@<TRIPOS>MOLECULE
tmp/5vd8A00.pdb
 178 168 0 0 0
SMALL
GASTEIGER

@<TRIPOS>ATOM
      1  N        -14.9630    3.7980    6.8390 N.3    11  GLU11      -0.1231
      2  CA       -14.1720    4.8420    6.2090 C.3    11  GLU11       0.1699
      3  C        -12.7380    4.3630    6.0460 C.2    11  GLU11       0.2592
      4  O        -12.1820    3.7630    6.9620 O.2    11  GLU11      -0.2718
      5  CB       -14.2250    6.1150    7.0590 C.3    11  GLU11       0.0402
      6  CG       -13.3250    7.2470    6.5960 C.3    11  GLU11       0.1161
      7  CD       -13.2550    8.3750    7.6100 C.2    11  GLU11       0.3649
      8  OE1      -12.4610    9.3190    7.4040 O.co2  11  GLU11      -0.2457
      9  OE2      -13.9920    8.3170    8.6190 O.co2  11  GLU11      -0.2457
     10  N        -12.1430    4.6160    4.8850 N.am   12  LYS12      -0.1966
     11  CA       -10.7230    4.3450    4.7040 C.3    12  LYS12       0.1728
     12  C         -9.9280    5.5080    5.2830 C.2    12  LYS12       0.2616
     13  O        -10.1470    6.6620    4.9090 O.2    12  LYS12      -0.2715
     14  CB       -10.3790    4.1390    3.2290 C.3    12  LYS12       0.0311
     15  CG        -8.9260    3.7400    2.9970 C.3    12  LYS12       0.0038
     16  CD        -8.5980    3.6070    1.5190 C.3    12  LYS12       0.0206
     17  CE        -9.1770    2.3390    0.9190 C.3    12  LYS12       0.1093
     18  NZ        -9.0330    2.3230   -0.5620 N.3    12  LYS12      -0.1314
     19  N         -9.0070    5.1990    6.1910 N.am   13  ILE13      -0.1963
     20  CA        -8.2510    6.2280    6.8970 C.3    13  ILE13       0.1727
     21  C         -6.7560    6.1610    6.5830 C.2    13  ILE13       0.2616
     22  O         -5.9830    6.9980    7.0500 O.2    13  ILE13      -0.2715
     23  CB        -8.4690    6.1250    8.4250 C.3    13  ILE13       0.0290
     24  CG1       -8.0340    4.7500    8.9510 C.3    13  ILE13       0.0022
     25  CG2       -9.9360    6.4080    8.7550 C.3    13  ILE13       0.0023
     26  CD1       -8.1650    4.5890   10.4630 C.3    13  ILE13       0.0001
     27  N         -6.3510    5.1810    5.7780 N.am   14  GLY14      -0.1955
     28  CA        -4.9700    5.0920    5.3340 C.3    14  GLY14       0.1869
     29  C         -4.7870    4.1820    4.1330 C.2    14  GLY14       0.2309
     30  O         -5.5750    3.2610    3.9150 O.2    14  GLY14      -0.2863
     31  N          1.5810   -0.6650    1.8900 N.3    18  PHE18      -0.1241
     32  CA         1.2700   -1.5290    3.0220 C.3    18  PHE18       0.1605
     33  C         -0.1490   -2.1000    2.9300 C.2    18  PHE18       0.2264
     34  O         -0.5230   -2.9770    3.7110 O.2    18  PHE18      -0.2867
     35  CB         1.4340   -0.7510    4.3310 C.3    18  PHE18       0.0534
     36  CG         0.4010    0.3180    4.5260 C.ar   18  PHE18      -0.0203
     37  CD1       -0.8490    0.0010    5.0240 C.ar   18  PHE18      -0.0042
     38  CD2        0.6750    1.6370    4.2050 C.ar   18  PHE18      -0.0042
     39  CE1       -1.8060    0.9700    5.1960 C.ar   18  PHE18      -0.0003
     40  CE2       -0.2820    2.6170    4.3810 C.ar   18  PHE18      -0.0003
     41  CZ        -1.5250    2.2820    4.8790 C.ar   18  PHE18      -0.0000
     42  N         -5.9480    0.9040    5.5370 N.3    21  VAL21      -0.1245
     43  CA        -6.4610    0.8910    6.9030 C.3    21  VAL21       0.1561
     44  C         -7.8810    1.4320    6.9090 C.2    21  VAL21       0.2260
     45  O         -8.1620    2.4640    6.2950 O.2    21  VAL21      -0.2867
     46  CB        -5.5960    1.7390    7.8620 C.3    21  VAL21       0.0252
     47  CG1       -6.1280    1.6560    9.2910 C.3    21  VAL21       0.0019
     48  CG2       -4.1590    1.2840    7.8230 C.3    21  VAL21       0.0019
     49  N         -9.2870    0.3250   14.2840 N.3    34  ALA34      -0.1245
     50  CA        -8.5350    0.5590   13.0630 C.3    34  ALA34       0.1562
     51  C         -8.0430   -0.7890   12.5660 C.2    34  ALA34       0.2260
     52  O         -7.2820   -1.4620   13.2610 O.2    34  ALA34      -0.2867
     53  CB        -7.3750    1.5070   13.3120 C.3    34  ALA34       0.0290
     54  N         -6.0600   -2.8420    9.6030 N.3    36  LYS36      -0.1245
     55  CA        -5.1690   -2.8090    8.4550 C.3    36  LYS36       0.1561
     56  C         -5.4020   -4.0540    7.6160 C.2    36  LYS36       0.2260
     57  O         -5.4290   -5.1610    8.1440 O.2    36  LYS36      -0.2867
     58  CB        -3.7080   -2.7260    8.9010 C.3    36  LYS36       0.0271
     59  CG        -2.7210   -2.5160    7.7620 C.3    36  LYS36       0.0035
     60  CD        -1.3180   -2.2620    8.2870 C.3    36  LYS36       0.0206
     61  CE        -0.4980   -3.5370    8.3270 C.3    36  LYS36       0.1093
     62  NZ         0.7130   -3.3890    9.1780 N.3    36  LYS36      -0.1314
     63  N          5.5580   -7.5250   14.0170 N.3    54  GLU54      -0.1245
     64  CA         4.4090   -6.8880   14.6490 C.3    54  GLU54       0.1567
     65  C          3.5950   -7.8720   15.5060 C.2    54  GLU54       0.2260
     66  O          3.2550   -7.5530   16.6430 O.2    54  GLU54      -0.2867
     67  CB         3.5180   -6.2350   13.5850 C.3    54  GLU54       0.0388
     68  CG         2.2920   -5.5570   14.1560 C.3    54  GLU54       0.1160
     69  CD         1.7740   -4.4220   13.2920 C.2    54  GLU54       0.3649
     70  OE1        1.7600   -4.5710   12.0530 O.co2  54  GLU54      -0.2457
     71  OE2        1.3820   -3.3780   13.8580 O.co2  54  GLU54      -0.2457
     72  N         -0.4470    1.8780   21.0720 N.3    68  VAL68      -0.1245
     73  CA        -1.7080    1.5330   20.4210 C.3    68  VAL68       0.1561
     74  C         -1.9990    0.0640   20.6960 C.2    68  VAL68       0.2260
     75  O         -1.1830   -0.8100   20.4020 O.2    68  VAL68      -0.2867
     76  CB        -1.6620    1.8140   18.9020 C.3    68  VAL68       0.0252
     77  CG1       -2.9180    1.2590   18.1880 C.3    68  VAL68       0.0019
     78  CG2       -1.4710    3.3160   18.6610 C.3    68  VAL68       0.0019
     79  N         -5.0460   -6.8620   10.5650 N.3    82  ILE82      -0.1245
     80  CA        -4.6170   -6.5170   11.9190 C.3    82  ILE82       0.1561
     81  C         -5.6090   -5.5390   12.5410 C.2    82  ILE82       0.2260
     82  O         -5.8230   -4.4520   12.0110 O.2    82  ILE82      -0.2867
     83  CB        -3.2020   -5.8880   11.9330 C.3    82  ILE82       0.0252
     84  CG1       -2.1900   -6.8330   11.2780 C.3    82  ILE82       0.0019
     85  CG2       -2.7750   -5.5620   13.3640 C.3    82  ILE82       0.0019
     86  CD1       -0.7940   -6.2440   11.1130 C.3    82  ILE82       0.0001
     87  N         -6.5270   -3.0700   15.4400 N.3    84  ASN84      -0.1225
     88  CA        -5.9720   -2.2400   16.5030 C.3    84  ASN84       0.1785
     89  C         -6.9830   -1.2620   17.0780 C.2    84  ASN84       0.2597
     90  O         -8.0480   -1.0270   16.5050 O.2    84  ASN84      -0.2718
     91  CB        -4.7570   -1.4610   15.9880 C.3    84  ASN84       0.1169
     92  CG        -3.5290   -2.3360   15.8150 C.2    84  ASN84       0.2627
     93  OD1       -3.3760   -3.3540   16.4870 O.2    84  ASN84      -0.2716
     94  ND2       -2.6450   -1.9390   14.9120 N.am   84  ASN84      -0.0877
     95  N         -6.6260   -0.7100   18.2310 N.am   85  GLU85      -0.1965
     96  CA        -7.3150    0.4250   18.8210 C.3    85  GLU85       0.1733
     97  C         -7.4960    1.5250   17.7770 C.2    85  GLU85       0.2616
     98  O         -6.6220    1.7200   16.9380 O.2    85  GLU85      -0.2715
     99  CB        -6.5040    0.9340   20.0180 C.3    85  GLU85       0.0429
    100  CG        -7.0620    2.1470   20.7240 C.3    85  GLU85       0.1163
    101  CD        -6.1360    2.6490   21.8210 C.2    85  GLU85       0.3649
    102  OE1       -5.0780    2.0200   22.0570 O.co2  85  GLU85      -0.2457
    103  OE2       -6.4620    3.6810   22.4440 O.co2  85  GLU85      -0.2457
    104  N         -8.6330    2.2160   17.8120 N.am   86  TYR86      -0.1960
    105  CA        -8.8440    3.3890   16.9650 C.3    86  TYR86       0.1771
    106  C         -8.5990    4.6660   17.7550 C.2    86  TYR86       0.2620
    107  O         -9.3030    4.9610   18.7180 O.2    86  TYR86      -0.2715
    108  CB       -10.2590    3.4060   16.3780 C.3    86  TYR86       0.0574
    109  CG       -10.5500    4.6300   15.5270 C.ar   86  TYR86      -0.0198
    110  CD1      -10.0570    4.7300   14.2340 C.ar   86  TYR86      -0.0009
    111  CD2      -11.3250    5.6780   16.0140 C.ar   86  TYR86      -0.0009
    112  CE1      -10.3170    5.8420   13.4510 C.ar   86  TYR86       0.0417
    113  CE2      -11.5930    6.7910   15.2380 C.ar   86  TYR86       0.0417
    114  CZ       -11.0890    6.8680   13.9580 C.ar   86  TYR86       0.1957
    115  OH       -11.3540    7.9770   13.1870 O.3    86  TYR86      -0.2866
    116  N         -7.5880    5.4160   17.3330 N.am   87  CYS87      -0.1954
    117  CA        -7.2660    6.7020   17.9290 C.3    87  CYS87       0.1843
    118  C         -7.9050    7.7970   17.0870 C.2    87  CYS87       0.2625
    119  O         -7.5390    7.9950   15.9280 O.2    87  CYS87      -0.2714
    120  CB        -5.7510    6.8850   18.0220 C.3    87  CYS87       0.0997
    121  SG        -4.9190    5.5490   18.9070 S.3    87  CYS87      -0.0797
    122  N         -8.8700    8.4970   17.6740 N.am   88  ASN88      -0.1958
    123  CA        -9.7260    9.4140   16.9260 C.3    88  ASN88       0.1819
    124  C         -9.0450   10.7110   16.4870 C.2    88  ASN88       0.2622
    125  O         -9.6420   11.5090   15.7620 O.2    88  ASN88      -0.2715
    126  CB       -10.9680    9.7490   17.7580 C.3    88  ASN88       0.1195
    127  CG       -10.6270   10.3890   19.0960 C.2    88  ASN88       0.2630
    128  OD1       -9.4800   10.7520   19.3540 O.2    88  ASN88      -0.2716
    129  ND2      -11.6320   10.5370   19.9510 N.am   88  ASN88      -0.0877
    130  N         -7.8000   10.9100   16.9120 N.am   89  GLY89      -0.1940
    131  CA        -7.0640   12.1220   16.5920 C.3    89  GLY89       0.2014
    132  C         -6.1060   11.9750   15.4240 C.2    89  GLY89       0.2639
    133  O         -5.3780   12.9110   15.0920 O.2    89  GLY89      -0.2714
    134  N         -6.1020   10.8060   14.7920 N.am   90  GLY90      -0.1954
    135  CA        -5.1690   10.5370   13.7160 C.3    90  GLY90       0.1869
    136  C         -3.7540   10.4320   14.2460 C.2    90  GLY90       0.2309
    137  O         -3.5480   10.1970   15.4370 O.2    90  GLY90      -0.2863
    138  N         -0.4510   13.8520   10.8700 N.3    94  ASP94      -0.1239
    139  CA        -1.6930   14.5010   10.4520 C.3    94  ASP94       0.1674
    140  C         -1.9010   15.8190   11.1810 C.2    94  ASP94       0.2266
    141  O         -2.2900   16.8200   10.5770 O.2    94  ASP94      -0.2867
    142  CB        -2.8930   13.5890   10.7090 C.3    94  ASP94       0.1410
    143  CG        -2.8530   12.3250    9.8830 C.2    94  ASP94       0.3668
    144  OD1       -2.7250   12.4270    8.6450 O.co2  94  ASP94      -0.2456
    145  OD2       -2.9420   11.2280   10.4740 O.co2  94  ASP94      -0.2456
    146  N          4.3660    9.9350   11.9740 N.3   138  SER138     -0.1202
    147  CA         3.2930    9.1700   11.3590 C.3   138  SER138      0.2020
    148  C          2.9620    7.8950   12.1490 C.2   138  SER138      0.2618
    149  O          1.9230    7.2760   11.9260 O.2   138  SER138     -0.2717
    150  CB         3.6340    8.8050    9.9110 C.3   138  SER138      0.2103
    151  OG         4.8120    8.0400    9.8210 O.3   138  SER138     -0.2182
    152  N          3.8360    7.5220   13.0830 N.am  139  ASN139     -0.1974
    153  CA         3.6480    6.3200   13.8940 C.3   139  ASN139      0.1688
    154  C          3.2760    6.6430   15.3360 C.2   139  ASN139      0.2292
    155  O          3.2160    5.7550   16.1860 O.2   139  ASN139     -0.2864
    156  CB         4.9170    5.4670   13.8600 C.3   139  ASN139      0.1181
    157  CG         5.1250    4.7940   12.5190 C.2   139  ASN139      0.2629
    158  OD1        4.1790    4.5940   11.7560 O.2   139  ASN139     -0.2716
    159  ND2        6.3660    4.4460   12.2200 N.am  139  ASN139     -0.0877
    160  N          0.1310    8.1250   17.4230 N.3   141  PHE141     -0.1241
    161  CA        -1.2990    8.3580   17.2570 C.3   141  PHE141      0.1605
    162  C         -1.9020    9.0920   18.4430 C.2   141  PHE141      0.2264
    163  O         -1.3710    9.0600   19.5530 O.2   141  PHE141     -0.2867
    164  CB        -2.0050    7.0300   17.0070 C.3   141  PHE141      0.0534
    165  CG        -1.6110    6.4000   15.7040 C.ar  141  PHE141     -0.0203
    166  CD1       -2.2870    6.7130   14.5400 C.ar  141  PHE141     -0.0042
    167  CD2       -0.5400    5.5230   15.6360 C.ar  141  PHE141     -0.0042
    168  CE1       -1.9150    6.1500   13.3340 C.ar  141  PHE141     -0.0003
    169  CE2       -0.1650    4.9580   14.4350 C.ar  141  PHE141     -0.0003
    170  CZ        -0.8500    5.2730   13.2820 C.ar  141  PHE141     -0.0000
    171  N          2.3690    1.2040   14.9160 N.3   152  ASP152     -0.1239
    172  CA         3.1550    0.6050   13.8320 C.3   152  ASP152      0.1674
    173  C          4.3960   -0.1490   14.3150 C.2   152  ASP152      0.2266
    174  O          5.5160    0.3500   14.2210 O.2   152  ASP152     -0.2867
    175  CB         3.5700    1.6750   12.8160 C.3   152  ASP152      0.1410
    176  CG         3.9650    1.0830   11.4710 C.2   152  ASP152      0.3668
    177  OD1        4.2100   -0.1410   11.4020 O.co2 152  ASP152     -0.2456
    178  OD2        4.0350    1.8430   10.4820 O.co2 152  ASP152     -0.2456
@<TRIPOS>BOND
     1    18    17    1
     2    17    16    1
     3    16    15    1
     4    31    32    1
     5    33    32    1
     6    33    34    2
     7    15    14    1
     8    32    35    1
     9    14    11    1
    10    30    29    2
    11    29    28    1
    12    38    40   ar
    13    38    36   ar
    14    35    36    1
    15    40    41   ar
    16    36    37   ar
    17    11    10    1
    18    11    12    1
    19    41    39   ar
    20    10     3   am
    21    13    12    2
    22    37    39   ar
    23    12    19   am
    24    28    27    1
    25    42    43    1
    26    27    21   am
    27     3     2    1
    28     3     4    2
    29    19    20    1
    30     2     1    1
    31     2     5    1
    32    45    44    2
    33    21    20    1
    34    21    22    2
    35     6     5    1
    36     6     7    1
    37    20    23    1
    38    43    44    1
    39    43    46    1
    40     8     7   ar
    41     7     9   ar
    42    56    57    2
    43    56    55    1
    44    59    60    1
    45    59    58    1
    46    48    46    1
    47    46    47    1
    48    60    61    1
    49    61    62    1
    50    23    25    1
    51    23    24    1
    52    55    58    1
    53    55    54    1
    54   144   143   ar
    55    24    26    1
    56   151   150    1
    57   143   145   ar
    58   143   142    1
    59   150   147    1
    60   139   142    1
    61   139   138    1
    62   139   140    1
    63   178   176   ar
    64    79    80    1
    65   141   140    2
    66    86    84    1
    67    84    83    1
    68   147   146    1
    69   147   148    1
    70   177   176   ar
    71   176   175    1
    72   158   157    2
    73    80    83    1
    74    80    81    1
    75   149   148    2
    76    83    85    1
    77    82    81    2
    78    70    69   ar
    79   148   152   am
    80   159   157   am
    81   157   156    1
    82    51    50    1
    83    51    52    2
    84   175   172    1
    85    50    53    1
    86    50    49    1
    87   152   153    1
    88   115   114    1
    89   170   168   ar
    90   170   169   ar
    91    69    71   ar
    92    69    68    1
    93   168   166   ar
    94   112   114   ar
    95   112   110   ar
    96    67    68    1
    97    67    64    1
    98   135   136    1
    99   135   134    1
   100   172   173    1
   101   172   171    1
   102   156   153    1
   103   153   154    1
   104   114   113   ar
   105    63    64    1
   106   174   173    2
   107   110   109   ar
   108   136   137    2
   109   169   167   ar
   110   166   165   ar
   111    64    65    1
   112   134   132   am
   113    94    92   am
   114   133   132    2
   115   113   111   ar
   116   154   155    2
   117   132   131    1
   118    87    88    1
   119    65    66    2
   120   109   111   ar
   121   109   108    1
   122   167   165   ar
   123   165   164    1
   124   125   124    2
   125    92    91    1
   126    92    93    2
   127   119   118    2
   128    91    88    1
   129   108   105    1
   130   124   130   am
   131   124   123    1
   132    88    89    1
   133    90    89    2
   134   131   130    1
   135   123   122    1
   136   123   126    1
   137    98    97    2
   138   105   106    1
   139   105   104    1
   140   164   161    1
   141    89    95   am
   142   118   122   am
   143   118   117    1
   144   161   160    1
   145   161   162    1
   146   116   106   am
   147   116   117    1
   148   106   107    2
   149   126   127    1
   150    97   104   am
   151    97    96    1
   152   117   120    1
   153   120   121    1
   154    77    76    1
   155    95    96    1
   156   162   163    2
   157    78    76    1
   158    96    99    1
   159    76    73    1
   160   127   128    2
   161   127   129   am
   162    99   100    1
   163    75    74    2
   164    73    74    1
   165    73    72    1
   166   100   101    1
   167   101   102   ar
   168   101   103   ar
