@<TRIPOS>MOLECULE
tmp/5vdbA00.pdb
 117 108 0 0 0
SMALL
GASTEIGER

@<TRIPOS>ATOM
      1  N        -10.1970    4.6640  -17.3380 N.3    28  TYR28      -0.1241
      2  CA        -9.4840    5.0990  -16.1320 C.3    28  TYR28       0.1605
      3  C        -10.3500    5.9050  -15.1760 C.2    28  TYR28       0.2264
      4  O        -10.2100    5.7800  -13.9550 O.2    28  TYR28      -0.2867
      5  CB        -8.2410    5.9400  -16.4740 C.3    28  TYR28       0.0534
      6  CG        -7.1630    5.2550  -17.2810 C.ar   28  TYR28      -0.0201
      7  CD1       -7.0670    3.8560  -17.3690 C.ar   28  TYR28      -0.0009
      8  CD2       -6.2020    6.0210  -17.9300 C.ar   28  TYR28      -0.0009
      9  CE1       -6.0530    3.2630  -18.1150 C.ar   28  TYR28       0.0417
     10  CE2       -5.1910    5.4340  -18.6670 C.ar   28  TYR28       0.0417
     11  CZ        -5.1200    4.0570  -18.7540 C.ar   28  TYR28       0.1957
     12  OH        -4.1080    3.4880  -19.5000 O.3    28  TYR28      -0.2866
     13  N        -14.9850    3.4620  -15.3970 N.3    31  PRO31      -0.2116
     14  CA       -14.9290    2.1250  -16.0060 C.3    31  PRO31       0.1372
     15  C        -16.2700    1.4970  -16.3690 C.2    31  PRO31       0.2244
     16  O        -16.2920    0.6250  -17.2180 O.2    31  PRO31      -0.2868
     17  CB       -14.1990    1.2780  -14.9500 C.3    31  PRO31       0.0268
     18  CG       -14.3280    2.0430  -13.6770 C.3    31  PRO31       0.0207
     19  CD       -14.3250    3.4830  -14.0820 C.3    31  PRO31       0.0892
     20  N        -18.2450    9.1700   -5.7970 N.3    68  TYR68      -0.1241
     21  CA       -19.1830    8.0460   -5.9510 C.3    68  TYR68       0.1605
     22  C        -19.4680    7.2740   -4.6690 C.2    68  TYR68       0.2264
     23  O        -20.3470    6.4120   -4.6680 O.2    68  TYR68      -0.2867
     24  CB       -18.7750    7.1030   -7.0750 C.3    68  TYR68       0.0534
     25  CG       -17.4720    6.3820   -6.8630 C.ar   68  TYR68      -0.0201
     26  CD1      -17.4250    5.1690   -6.1820 C.ar   68  TYR68      -0.0009
     27  CD2      -16.2920    6.8930   -7.3720 C.ar   68  TYR68      -0.0009
     28  CE1      -16.2210    4.4900   -6.0070 C.ar   68  TYR68       0.0417
     29  CE2      -15.0880    6.2280   -7.2150 C.ar   68  TYR68       0.0417
     30  CZ       -15.0630    5.0210   -6.5330 C.ar   68  TYR68       0.1957
     31  OH       -13.8670    4.3590   -6.3640 O.3    68  TYR68      -0.2866
     32  N        -12.3940   11.7090  -12.4050 N.3    81  MET81      -0.1245
     33  CA       -11.3790   12.7510  -12.4120 C.3    81  MET81       0.1570
     34  C        -10.8600   12.8800  -13.8400 C.2    81  MET81       0.2261
     35  O        -10.3220   11.9070  -14.3870 O.2    81  MET81      -0.2867
     36  CB       -10.2410   12.3420  -11.4660 C.3    81  MET81       0.0387
     37  CG        -9.0350   13.2690  -11.4060 C.3    81  MET81       0.0595
     38  SD        -9.3310   14.8490  -10.5790 S.3    81  MET81      -0.1393
     39  CE        -9.3870   15.9730  -11.9610 C.3    81  MET81       0.0692
     40  N         -9.2850   15.8840  -16.9850 N.3    83  VAL83      -0.1245
     41  CA        -8.7670   17.1890  -17.3540 C.3    83  VAL83       0.1561
     42  C         -8.6420   17.2690  -18.8660 C.2    83  VAL83       0.2260
     43  O         -8.2520   16.3090  -19.5350 O.2    83  VAL83      -0.2867
     44  CB        -7.3940   17.4330  -16.6650 C.3    83  VAL83       0.0252
     45  CG1       -6.6900   18.6880  -17.1770 C.3    83  VAL83       0.0019
     46  CG2       -7.5810   17.5160  -15.1510 C.3    83  VAL83       0.0019
     47  N         -3.2550   19.6350  -19.5530 N.3    88  ARG88      -0.1245
     48  CA        -2.6690   18.6840  -18.6140 C.3    88  ARG88       0.1563
     49  C         -1.2410   19.0510  -18.2450 C.2    88  ARG88       0.2260
     50  O         -0.5340   19.7250  -19.0030 O.2    88  ARG88      -0.2867
     51  CB        -2.7530   17.2640  -19.1490 C.3    88  ARG88       0.0307
     52  CG        -4.1870   16.7540  -19.0860 C.3    88  ARG88       0.0489
     53  CD        -4.3080   15.4300  -19.7680 C.3    88  ARG88       0.2205
     54  NE        -5.7040   15.0720  -19.9970 N.pl3  88  ARG88      -0.0865
     55  CZ        -6.0790   14.0030  -20.6810 C.cat  88  ARG88       0.5346
     56  NH1       -5.1640   13.1750  -21.1870 N.pl3  88  ARG88       0.1354
     57  NH2       -7.3680   13.7540  -20.8600 N.pl3  88  ARG88       0.1354
     58  N         -5.6140   19.1760  -12.0490 N.3    93  ALA93      -0.1245
     59  CA        -6.0670   18.0950  -11.1660 C.3    93  ALA93       0.1562
     60  C         -5.6080   18.2820   -9.7070 C.2    93  ALA93       0.2260
     61  O         -6.3800   18.0420   -8.7840 O.2    93  ALA93      -0.2867
     62  CB        -5.6640   16.7290  -11.7040 C.3    93  ALA93       0.0290
     63  N         -6.4550    2.7130  -11.9100 N.3   118  PHE118     -0.1241
     64  CA        -6.0540    1.5220  -12.6660 C.3   118  PHE118      0.1605
     65  C         -4.5550    1.4960  -12.9330 C.2   118  PHE118      0.2264
     66  O         -3.9040    2.5350  -13.0880 O.2   118  PHE118     -0.2867
     67  CB        -6.8440    1.4140  -13.9600 C.3   118  PHE118      0.0534
     68  CG        -8.2650    1.0050  -13.7400 C.ar  118  PHE118     -0.0203
     69  CD1       -8.5840   -0.3250  -13.5040 C.ar  118  PHE118     -0.0042
     70  CD2       -9.2810    1.9520  -13.7160 C.ar  118  PHE118     -0.0042
     71  CE1       -9.8950   -0.7100  -13.2800 C.ar  118  PHE118     -0.0003
     72  CE2      -10.5960    1.5610  -13.5020 C.ar  118  PHE118     -0.0003
     73  CZ       -10.9020    0.2340  -13.2630 C.ar  118  PHE118     -0.0000
     74  N         -2.6100    3.5330  -15.6130 N.3   121  ASN121     -0.1240
     75  CA        -2.7360    4.9790  -15.5150 C.3   121  ASN121      0.1653
     76  C         -1.5930    5.5650  -14.6810 C.2   121  ASN121      0.2266
     77  O         -1.7900    6.0200  -13.5530 O.2   121  ASN121     -0.2867
     78  CB        -4.1060    5.2820  -14.9040 C.3   121  ASN121      0.1155
     79  CG        -4.4750    6.7400  -14.9490 C.2   121  ASN121      0.2627
     80  OD1       -3.7850    7.5760  -15.5510 O.2   121  ASN121     -0.2716
     81  ND2       -5.5850    7.0560  -14.3000 N.am  121  ASN121     -0.0877
     82  N          0.0200    8.3290  -14.9920 N.3   123  ALA123     -0.1231
     83  CA        -0.1580    9.7460  -14.6830 C.3   123  ALA123      0.1694
     84  C         -0.9800    9.9330  -13.3950 C.2   123  ALA123      0.2592
     85  O         -0.6320   10.7460  -12.5490 O.2   123  ALA123     -0.2718
     86  CB        -0.8080   10.4600  -15.8480 C.3   123  ALA123      0.0304
     87  N         -2.0600    9.1630  -13.2570 N.am  124  GLY124     -0.1957
     88  CA        -2.8630    9.1560  -12.0390 C.3   124  GLY124      0.1869
     89  C         -2.0840    8.6920  -10.8260 C.2   124  GLY124      0.2309
     90  O         -2.0510    9.3580   -9.8030 O.2   124  GLY124     -0.2863
     91  N          0.3640   11.3060   -9.7410 N.3   127  LEU127     -0.1245
     92  CA        -0.3480   12.4580   -9.1670 C.3   127  LEU127      0.1561
     93  C         -0.7500   12.1880   -7.7230 C.2   127  LEU127      0.2260
     94  O         -0.4620   12.9810   -6.8270 O.2   127  LEU127     -0.2867
     95  CB        -1.6030   12.7740   -9.9820 C.3   127  LEU127      0.0270
     96  CG        -2.5690   13.8220   -9.3950 C.3   127  LEU127      0.0019
     97  CD1       -1.8700   15.1440   -9.1220 C.3   127  LEU127      0.0001
     98  CD2       -3.7400   14.0140  -10.3390 C.3   127  LEU127      0.0001
     99  N         -9.7670   -6.2750  -11.7570 N.3   141  ARG141     -0.1245
    100  CA       -10.8870   -5.8250  -12.5840 C.3   141  ARG141      0.1563
    101  C        -10.6490   -6.3180  -14.0030 C.2   141  ARG141      0.2260
    102  O         -9.5910   -6.8860  -14.3130 O.2   141  ARG141     -0.2867
    103  CB       -10.9960   -4.2940  -12.5800 C.3   141  ARG141      0.0307
    104  CG       -11.3540   -3.6710  -11.2410 C.3   141  ARG141      0.0489
    105  CD       -12.7870   -3.9570  -10.8420 C.3   141  ARG141      0.2205
    106  NE       -13.1620   -3.1720   -9.6570 N.pl3 141  ARG141     -0.0865
    107  CZ       -13.0680   -3.5820   -8.3940 C.cat 141  ARG141      0.5346
    108  NH1      -12.6020   -4.7930   -8.0900 N.pl3 141  ARG141      0.1354
    109  NH2      -13.4530   -2.7640   -7.4080 N.pl3 141  ARG141      0.1354
    110  N         -6.5990   -2.7400  -10.0470 N.3   151  LEU151     -0.1245
    111  CA        -7.0930   -1.4700   -9.5260 C.3   151  LEU151      0.1561
    112  C         -6.3510   -1.1960   -8.2250 C.2   151  LEU151      0.2260
    113  O         -6.4940   -1.9500   -7.2610 O.2   151  LEU151     -0.2867
    114  CB        -8.6050   -1.5400   -9.3010 C.3   151  LEU151      0.0270
    115  CG        -9.2650   -0.2480   -8.7980 C.3   151  LEU151      0.0019
    116  CD1       -9.1430    0.8730   -9.8130 C.3   151  LEU151      0.0001
    117  CD2      -10.7210   -0.5040   -8.4650 C.3   151  LEU151      0.0001
@<TRIPOS>BOND
     1    56    55    1
     2    57    55    1
     3    55    54    2
     4    54    53    1
     5    53    52    1
     6    47    48    1
     7    43    42    2
     8    12    11    1
     9    51    52    1
    10    51    48    1
    11    50    49    2
    12    42    41    1
    13    11    10   ar
    14    11     9   ar
    15    10     8   ar
    16    48    49    1
    17     9     7   ar
    18     8     6   ar
    19     7     6   ar
    20    41    40    1
    21    41    44    1
    22     1     2    1
    23     6     5    1
    24    16    15    2
    25    45    44    1
    26    44    46    1
    27     5     2    1
    28    15    14    1
    29     2     3    1
    30    14    13    1
    31    14    17    1
    32    86    83    1
    33    74    75    1
    34    80    79    2
    35    75    78    1
    36    75    76    1
    37    13    19    1
    38     3     4    2
    39    82    83    1
    40    17    18    1
    41    79    78    1
    42    79    81   am
    43    83    84    1
    44    76    77    2
    45    35    34    2
    46   102   101    2
    47    19    18    1
    48   101   100    1
    49    67    68    1
    50    67    64    1
    51    34    33    1
    52    68    70   ar
    53    68    69   ar
    54    70    72   ar
    55    69    71   ar
    56    72    73   ar
    57    84    87   am
    58    84    85    2
    59    71    73   ar
    60    87    88    1
    61    66    65    2
    62    65    64    1
    63    64    63    1
    64   100   103    1
    65   100    99    1
    66   103   104    1
    67    33    32    1
    68    33    36    1
    69    58    59    1
    70    88    89    1
    71    39    38    1
    72    62    59    1
    73    36    37    1
    74    37    38    1
    75   104   105    1
    76    59    60    1
    77   105   106    1
    78    89    90    2
    79    98    96    1
    80   110   111    1
    81    95    96    1
    82    95    92    1
    83   116   115    1
    84    91    92    1
    85    60    61    2
    86   106   107    2
    87   111   114    1
    88   111   112    1
    89    96    97    1
    90   114   115    1
    91    92    93    1
    92   115   117    1
    93   107   108    1
    94   107   109    1
    95   112   113    2
    96    93    94    2
    97    27    29   ar
    98    27    25   ar
    99    29    30   ar
   100    24    25    1
   101    24    21    1
   102    25    26   ar
   103    30    31    1
   104    30    28   ar
   105    26    28   ar
   106    21    20    1
   107    21    22    1
   108    22    23    2
