@<TRIPOS>MOLECULE
tmp/5vdhD00.pdb
 101 99 0 0 0
SMALL
GASTEIGER

@<TRIPOS>ATOM
      1  N        515.4830  144.9790  492.3960 N.3     8  PRO8       -0.2116
      2  CA       515.7550  144.2270  491.1680 C.3     8  PRO8        0.1372
      3  C        515.2020  144.8980  489.9110 C.2     8  PRO8        0.2244
      4  O        515.8620  144.8960  488.8780 O.2     8  PRO8       -0.2868
      5  CB       515.0530  142.8900  491.4110 C.3     8  PRO8        0.0268
      6  CG       514.9860  142.7570  492.8890 C.3     8  PRO8        0.0207
      7  CD       514.7810  144.1520  493.3950 C.3     8  PRO8        0.0892
      8  N        517.4850  147.6950  489.0270 N.3    11  PHE11      -0.1227
      9  CA       518.7700  147.1280  488.6210 C.3    11  PHE11       0.1736
     10  C        518.7370  146.6290  487.1800 C.2    11  PHE11       0.2595
     11  O        519.6450  146.9140  486.3980 O.2    11  PHE11      -0.2718
     12  CB       519.1720  145.9870  489.5560 C.3    11  PHE11       0.0547
     13  CG       520.4140  145.2670  489.1280 C.ar   11  PHE11      -0.0202
     14  CD1      521.6630  145.8190  489.3580 C.ar   11  PHE11      -0.0042
     15  CD2      520.3360  144.0390  488.4880 C.ar   11  PHE11      -0.0042
     16  CE1      522.8110  145.1590  488.9600 C.ar   11  PHE11      -0.0003
     17  CE2      521.4780  143.3740  488.0860 C.ar   11  PHE11      -0.0003
     18  CZ       522.7180  143.9340  488.3220 C.ar   11  PHE11      -0.0000
     19  N        517.6920  145.8790  486.8390 N.am   12  LEU12      -0.1980
     20  CA       517.5360  145.3490  485.4870 C.3    12  LEU12       0.1596
     21  C        517.3500  146.4730  484.4720 C.2    12  LEU12       0.2287
     22  O        517.8710  146.3980  483.3600 O.2    12  LEU12      -0.2864
     23  CB       516.3590  144.3720  485.4190 C.3    12  LEU12       0.0297
     24  CG       516.5240  143.0660  486.2010 C.3    12  LEU12       0.0022
     25  CD1      515.1930  142.3430  486.3330 C.3    12  LEU12       0.0001
     26  CD2      517.5620  142.1640  485.5530 C.3    12  LEU12       0.0001
     27  N        525.2510  143.9770  494.0700 N.3    76  TYR76      -0.1241
     28  CA       524.9930  142.8740  494.9940 C.3    76  TYR76       0.1605
     29  C        526.2650  142.0590  495.2230 C.2    76  TYR76       0.2264
     30  O        527.0980  141.9460  494.3220 O.2    76  TYR76      -0.2867
     31  CB       523.9000  141.9630  494.4450 C.3    76  TYR76       0.0534
     32  CG       522.6550  142.6890  493.9910 C.ar   76  TYR76      -0.0201
     33  CD1      521.7060  143.1300  494.9070 C.ar   76  TYR76      -0.0009
     34  CD2      522.4220  142.9270  492.6410 C.ar   76  TYR76      -0.0009
     35  CE1      520.5650  143.7940  494.4940 C.ar   76  TYR76       0.0417
     36  CE2      521.2830  143.5900  492.2170 C.ar   76  TYR76       0.0417
     37  CZ       520.3590  144.0250  493.1480 C.ar   76  TYR76       0.1957
     38  OH       519.2290  144.6850  492.7260 O.3    76  TYR76      -0.2866
     39  N        526.4390  138.8750  495.5810 N.3    78  ASP78      -0.1239
     40  CA       526.2600  137.5230  495.0460 C.3    78  ASP78       0.1674
     41  C        527.2180  137.2570  493.8870 C.2    78  ASP78       0.2266
     42  O        527.3840  138.1040  493.0060 O.2    78  ASP78      -0.2867
     43  CB       524.8200  137.3210  494.5580 C.3    78  ASP78       0.1410
     44  CG       523.7760  137.6840  495.6080 C.2    78  ASP78       0.3668
     45  OD1      524.0080  138.6300  496.3920 O.co2  78  ASP78      -0.2456
     46  OD2      522.7060  137.0360  495.6260 O.co2  78  ASP78      -0.2456
     47  N        523.7430  135.8960  489.5350 N.3    81  LEU81      -0.1231
     48  CA       522.3180  136.1830  489.6410 C.3    81  LEU81       0.1693
     49  C        521.5490  135.3330  488.6390 C.2    81  LEU81       0.2592
     50  O        521.9090  135.2760  487.4630 O.2    81  LEU81      -0.2718
     51  CB       522.0470  137.6590  489.3510 C.3    81  LEU81       0.0284
     52  CG       522.7750  138.6820  490.2190 C.3    81  LEU81       0.0019
     53  CD1      522.5890  140.0780  489.6470 C.3    81  LEU81       0.0001
     54  CD2      522.2900  138.6140  491.6600 C.3    81  LEU81       0.0001
     55  N        520.4970  134.6740  489.1120 N.am   82  ASP82      -0.1960
     56  CA       519.6100  133.9080  488.2480 C.3    82  ASP82       0.1840
     57  C        518.4830  134.8080  487.7680 C.2    82  ASP82       0.2622
     58  O        517.6340  135.2160  488.5580 O.2    82  ASP82      -0.2715
     59  CB       519.0430  132.7020  488.9960 C.3    82  ASP82       0.1450
     60  CG       520.0980  131.6590  489.2920 C.2    82  ASP82       0.3671
     61  OD1      520.8180  131.2640  488.3480 O.co2  82  ASP82      -0.2456
     62  OD2      520.2100  131.2290  490.4610 O.co2  82  ASP82      -0.2456
     63  N        518.4780  135.1100  486.4720 N.am   83  LEU83      -0.1963
     64  CA       517.5250  136.0530  485.8980 C.3    83  LEU83       0.1728
     65  C        516.3540  135.3570  485.2300 C.2    83  LEU83       0.2616
     66  O        516.4860  134.2380  484.7350 O.2    83  LEU83      -0.2715
     67  CB       518.2260  136.9510  484.8800 C.3    83  LEU83       0.0311
     68  CG       519.4040  137.7760  485.4080 C.3    83  LEU83       0.0022
     69  CD1      519.9610  138.6600  484.3040 C.3    83  LEU83       0.0001
     70  CD2      518.9980  138.6150  486.6120 C.3    83  LEU83       0.0001
     71  N        515.2060  136.0300  485.2290 N.am   84  ASP84      -0.1958
     72  CA       514.0260  135.5510  484.5210 C.3    84  ASP84       0.1825
     73  C        514.3670  135.4720  483.0340 C.2    84  ASP84       0.2464
     74  O        514.9220  136.4190  482.4840 O.2    84  ASP84      -0.2730
     75  CB       512.8390  136.4930  484.7520 C.3    84  ASP84       0.1450
     76  CG       511.5600  136.0060  484.0850 C.2    84  ASP84       0.3671
     77  OD1      510.7010  135.4280  484.7870 O.co2  84  ASP84      -0.2456
     78  OD2      511.4140  136.1930  482.8570 O.co2  84  ASP84      -0.2456
     79  N        514.0360  134.3460  482.3760 N.am   85  PRO85      -0.2727
     80  CA       514.4740  134.1440  480.9920 C.3    85  PRO85       0.1402
     81  C        513.8860  135.1290  479.9790 C.2    85  PRO85       0.2269
     82  O        514.3800  135.1900  478.8540 O.2    85  PRO85      -0.2865
     83  CB       514.0100  132.7150  480.6640 C.3    85  PRO85       0.0296
     84  CG       513.6150  132.1030  481.9580 C.3    85  PRO85       0.0237
     85  CD       513.1930  133.2350  482.8430 C.3    85  PRO85       0.0939
     86  N        517.2880  129.1290  480.6700 N.3   115  LEU115     -0.1231
     87  CA       517.9640  129.5060  481.9010 C.3   115  LEU115      0.1693
     88  C        518.9620  130.6180  481.5950 C.2   115  LEU115      0.2591
     89  O        519.7450  130.4980  480.6540 O.2   115  LEU115     -0.2718
     90  CB       518.6710  128.2800  482.4760 C.3   115  LEU115      0.0284
     91  CG       519.5330  128.4110  483.7320 C.3   115  LEU115      0.0019
     92  CD1      519.5890  127.0750  484.4620 C.3   115  LEU115      0.0001
     93  CD2      520.9450  128.8870  483.4120 C.3   115  LEU115      0.0001
     94  N        518.9190  131.6950  482.3780 N.am  116  LEU116     -0.1980
     95  CA       519.8590  132.8070  482.2190 C.3   116  LEU116      0.1596
     96  C        520.4920  133.1530  483.5550 C.2   116  LEU116      0.2287
     97  O        519.7990  133.5080  484.5050 O.2   116  LEU116     -0.2864
     98  CB       519.1690  134.0460  481.6370 C.3   116  LEU116      0.0297
     99  CG       520.0090  135.3310  481.5730 C.3   116  LEU116      0.0022
    100  CD1      521.2740  135.1380  480.7530 C.3   116  LEU116      0.0001
    101  CD2      519.1930  136.4840  481.0120 C.3   116  LEU116      0.0001
@<TRIPOS>BOND
     1    82    81    2
     2    81    80    1
     3    89    88    2
     4    83    80    1
     5    83    84    1
     6    86    87    1
     7   100    99    1
     8    80    79    1
     9   101    99    1
    10    99    98    1
    11    88    87    1
    12    88    94   am
    13    98    95    1
    14    87    90    1
    15    84    85    1
    16    95    94    1
    17    95    96    1
    18    79    85    1
    19    79    73   am
    20    90    91    1
    21    74    73    2
    22    78    76   ar
    23    73    72    1
    24    22    21    2
    25    93    91    1
    26    96    97    2
    27    91    92    1
    28    76    75    1
    29    76    77   ar
    30    69    68    1
    31    21    20    1
    32    72    75    1
    33    72    71    1
    34    66    65    2
    35    67    68    1
    36    67    64    1
    37    71    65   am
    38    65    64    1
    39    68    70    1
    40    23    20    1
    41    23    24    1
    42    20    19    1
    43    26    24    1
    44    64    63    1
    45    24    25    1
    46    11    10    2
    47    63    57   am
    48    19    10   am
    49    10     9    1
    50    50    49    2
    51    57    56    1
    52    57    58    2
    53    17    18   ar
    54    17    15   ar
    55    56    59    1
    56    56    55    1
    57    18    16   ar
    58    61    60   ar
    59    15    13   ar
    60     9     8    1
    61     9    12    1
    62    49    55   am
    63    49    48    1
    64     4     3    2
    65    16    14   ar
    66    59    60    1
    67    13    14   ar
    68    13    12    1
    69    60    62   ar
    70    51    48    1
    71    51    52    1
    72    47    48    1
    73    53    52    1
    74     3     2    1
    75    52    54    1
    76     2     5    1
    77     2     1    1
    78     5     6    1
    79    36    34   ar
    80    36    37   ar
    81     1     7    1
    82    34    32   ar
    83    38    37    1
    84     6     7    1
    85    42    41    2
    86    37    35   ar
    87    41    40    1
    88    32    31    1
    89    32    33   ar
    90    27    28    1
    91    30    29    2
    92    31    28    1
    93    35    33   ar
    94    43    40    1
    95    43    44    1
    96    28    29    1
    97    40    39    1
    98    44    46   ar
    99    44    45   ar
