@<TRIPOS>MOLECULE
tmp/5vdhD01.pdb
 77 72 0 0 0
SMALL
GASTEIGER

@<TRIPOS>ATOM
      1  N        522.2520   90.7010  469.4020 N.3   219  GLY219     -0.1225
      2  CA       521.2760   89.7310  469.9120 C.3   219  GLY219      0.1811
      3  C        519.9560   89.6410  469.1700 C.2   219  GLY219      0.2280
      4  O        519.4160   88.5490  468.9970 O.2   219  GLY219     -0.2866
      5  N        520.4820   87.5930  465.8530 N.3   222  LEU222     -0.1231
      6  CA       520.6330   86.1640  466.1090 C.3   222  LEU222      0.1693
      7  C        519.2630   85.5070  466.2130 C.2   222  LEU222      0.2592
      8  O        519.0180   84.4730  465.5980 O.2   222  LEU222     -0.2718
      9  CB       521.4170   85.9070  467.4010 C.3   222  LEU222      0.0284
     10  CG       522.8870   86.3360  467.4490 C.3   222  LEU222      0.0019
     11  CD1      523.4890   85.9650  468.7970 C.3   222  LEU222      0.0001
     12  CD2      523.6920   85.7110  466.3180 C.3   222  LEU222      0.0001
     13  N        518.3730   86.1210  466.9880 N.am  223  ILE223     -0.1966
     14  CA       517.0550   85.5520  467.2580 C.3   223  ILE223      0.1727
     15  C        516.1150   85.6420  466.0560 C.2   223  ILE223      0.2616
     16  O        515.3980   84.6880  465.7710 O.2   223  ILE223     -0.2715
     17  CB       516.4000   86.2080  468.4980 C.3   223  ILE223      0.0290
     18  CG1      517.1690   85.8120  469.7630 C.3   223  ILE223      0.0022
     19  CG2      514.9380   85.7920  468.6350 C.3   223  ILE223      0.0023
     20  CD1      516.8380   86.6490  470.9810 C.3   223  ILE223      0.0001
     21  N        516.1170   86.7690  465.3520 N.am  224  GLN224     -0.1977
     22  CA       515.1220   87.0020  464.3010 C.3   224  GLN224      0.1601
     23  C        515.6410   86.8110  462.8700 C.2   224  GLN224      0.2287
     24  O        514.8430   86.7890  461.9330 O.2   224  GLN224     -0.2864
     25  CB       514.5110   88.4040  464.4480 C.3   224  GLN224      0.0394
     26  CG       513.8920   88.6990  465.8150 C.3   224  GLN224      0.0908
     27  CD       512.6390   87.8840  466.1250 C.2   224  GLN224      0.2608
     28  OE1      512.0990   87.1820  465.2680 O.2   224  GLN224     -0.2717
     29  NE2      512.1640   87.9890  467.3640 N.am  224  GLN224     -0.0878
     30  N        519.3520   82.6410  463.3540 N.3   227  ILE227     -0.1231
     31  CA       518.8050   81.3480  463.7910 C.3   227  ILE227      0.1678
     32  C        517.7110   80.8170  462.8560 C.2   227  ILE227      0.2434
     33  O        517.7470   79.6450  462.4830 O.2   227  ILE227     -0.2733
     34  CB       518.2960   81.3900  465.2520 C.3   227  ILE227      0.0265
     35  CG1      519.4860   81.3220  466.2110 C.3   227  ILE227      0.0019
     36  CG2      517.3480   80.2300  465.5420 C.3   227  ILE227      0.0020
     37  CD1      519.1390   81.5740  467.6620 C.3   227  ILE227      0.0001
     38  N        516.7310   81.6620  462.4860 N.am  228  PRO228     -0.2729
     39  CA       515.7010   81.1690  461.5620 C.3   228  PRO228      0.1401
     40  C        516.2230   80.7890  460.1710 C.2   228  PRO228      0.2269
     41  O        515.5920   79.9860  459.4920 O.2   228  PRO228     -0.2865
     42  CB       514.6960   82.3290  461.4740 C.3   228  PRO228      0.0296
     43  CG       515.3830   83.5090  462.0550 C.3   228  PRO228      0.0237
     44  CD       516.4070   82.9970  463.0130 C.3   228  PRO228      0.0939
     45  N        519.3330   79.3660  459.7830 N.3   230  LEU230     -0.1231
     46  CA       519.8630   78.0380  460.1290 C.3   230  LEU230      0.1693
     47  C        518.7770   76.9690  460.0660 C.2   230  LEU230      0.2591
     48  O        519.0010   75.8850  459.5330 O.2   230  LEU230     -0.2718
     49  CB       520.4870   78.0290  461.5320 C.3   230  LEU230      0.0284
     50  CG       522.0090   77.9100  461.6100 C.3   230  LEU230      0.0019
     51  CD1      522.6790   79.1640  461.0730 C.3   230  LEU230      0.0001
     52  CD2      522.4450   77.6390  463.0420 C.3   230  LEU230      0.0001
     53  N        517.6110   77.2840  460.6240 N.am  231  LEU231     -0.1980
     54  CA       516.4780   76.3630  460.6470 C.3   231  LEU231      0.1596
     55  C        516.0830   75.8970  459.2490 C.2   231  LEU231      0.2287
     56  O        515.7570   74.7300  459.0580 O.2   231  LEU231     -0.2864
     57  CB       515.2750   77.0170  461.3350 C.3   231  LEU231      0.0297
     58  CG       514.0010   76.1780  461.4630 C.3   231  LEU231      0.0022
     59  CD1      514.2210   75.0020  462.3970 C.3   231  LEU231      0.0001
     60  CD2      512.8460   77.0320  461.9560 C.3   231  LEU231      0.0001
     61  N        519.0620   73.6660  457.7940 N.3   234  ILE234     -0.1245
     62  CA       518.9730   72.3520  458.4390 C.3   234  ILE234      0.1561
     63  C        517.7700   71.5600  457.9220 C.2   234  ILE234      0.2260
     64  O        517.8510   70.3420  457.7670 O.2   234  ILE234     -0.2867
     65  CB       518.9150   72.4750  459.9820 C.3   234  ILE234      0.0252
     66  CG1      520.3000   72.8390  460.5270 C.3   234  ILE234      0.0019
     67  CG2      518.4400   71.1750  460.6250 C.3   234  ILE234      0.0019
     68  CD1      520.2980   73.3420  461.9550 C.3   234  ILE234      0.0001
     69  N        512.6250   85.2390  453.3950 N.3   264  GLN264     -0.1245
     70  CA       513.4540   85.5360  454.5640 C.3   264  GLN264      0.1566
     71  C        514.4890   86.6160  454.2360 C.2   264  GLN264      0.2260
     72  O        514.6670   87.5690  454.9980 O.2   264  GLN264     -0.2867
     73  CB       514.1630   84.2590  455.0320 C.3   264  GLN264      0.0367
     74  CG       515.1550   84.4320  456.1770 C.3   264  GLN264      0.0905
     75  CD       514.6230   83.9350  457.5110 C.2   264  GLN264      0.2608
     76  OE1      514.1380   82.8030  457.6160 O.2   264  GLN264     -0.2717
     77  NE2      514.7310   84.7710  458.5440 N.am  264  GLN264     -0.0878
@<TRIPOS>BOND
     1    69    70    1
     2    71    70    1
     3    71    72    2
     4    70    73    1
     5    73    74    1
     6    74    75    1
     7    75    76    2
     8    75    77   am
     9    64    63    2
    10    61    62    1
    11    63    62    1
    12    62    65    1
    13    56    55    2
    14    55    54    1
    15    41    40    2
    16    48    47    2
    17    45    46    1
    18    65    66    1
    19    65    67    1
    20    47    46    1
    21    47    53   am
    22    46    49    1
    23    40    39    1
    24    66    68    1
    25    53    54    1
    26    54    57    1
    27    51    50    1
    28    57    58    1
    29    58    60    1
    30    58    59    1
    31    42    39    1
    32    42    43    1
    33    49    50    1
    34    39    38    1
    35    50    52    1
    36    24    23    2
    37    43    44    1
    38    33    32    2
    39    38    32   am
    40    38    44    1
    41    32    31    1
    42    23    22    1
    43    30    31    1
    44    31    34    1
    45    22    25    1
    46    22    21    1
    47    25    26    1
    48    34    36    1
    49    34    35    1
    50    28    27    2
    51    21    15   am
    52     8     7    2
    53    16    15    2
    54    26    27    1
    55     5     6    1
    56    15    14    1
    57     6     7    1
    58     6     9    1
    59    27    29   am
    60    35    37    1
    61     7    13   am
    62    12    10    1
    63    13    14    1
    64    14    17    1
    65     9    10    1
    66    10    11    1
    67    17    19    1
    68    17    18    1
    69     4     3    2
    70     3     2    1
    71     1     2    1
    72    18    20    1
