@<TRIPOS>MOLECULE
tmp/5vdhD03.pdb
 118 112 0 0 0
SMALL
GASTEIGER

@<TRIPOS>ATOM
      1  N        514.1800   82.9360  450.2200 N.3   262  THR262     -0.1218
      2  CA       514.1170   84.1860  449.4550 C.3   262  THR262      0.1862
      3  C        513.2690   85.2400  450.1660 C.2   262  THR262      0.2287
      4  O        513.6530   86.4060  450.2220 O.2   262  THR262     -0.2866
      5  CB       513.5600   83.9780  448.0330 C.3   262  THR262      0.1770
      6  OG1      512.2990   83.3030  448.0990 O.3   262  THR262     -0.2211
      7  CG2      514.5320   83.1710  447.1880 C.3   262  THR262      0.0375
      8  N        515.1640   86.4530  453.1010 N.3   265  SER265     -0.1202
      9  CA       516.2280   87.3660  452.6870 C.3   265  SER265      0.2020
     10  C        515.7040   88.7510  452.3110 C.2   265  SER265      0.2619
     11  O        516.2760   89.7630  452.7170 O.2   265  SER265     -0.2717
     12  CB       517.0030   86.7720  451.5090 C.3   265  SER265      0.2103
     13  OG       518.0570   87.6280  451.1060 O.3   265  SER265     -0.2182
     14  N        514.6230   88.7930  451.5360 N.am  266  SER266     -0.1951
     15  CA       514.0380   90.0620  451.0970 C.3   266  SER266      0.1924
     16  C        513.3340   90.8020  452.2380 C.2   266  SER266      0.2314
     17  O        513.3230   92.0330  452.2680 O.2   266  SER266     -0.2863
     18  CB       513.0620   89.8330  449.9430 C.3   266  SER266      0.2116
     19  OG       511.9230   89.1150  450.3760 O.3   266  SER266     -0.2180
     20  N        515.6880   93.0030  454.3920 N.3   269  ARG269     -0.1245
     21  CA       516.1070   94.2540  453.7540 C.3   269  ARG269      0.1563
     22  C        515.0230   95.3410  453.7730 C.2   269  ARG269      0.2260
     23  O        515.2610   96.4590  453.3110 O.2   269  ARG269     -0.2867
     24  CB       516.5270   93.9830  452.3050 C.3   269  ARG269      0.0307
     25  CG       517.9370   93.5070  452.1920 C.3   269  ARG269      0.0489
     26  CD       518.2200   93.0550  450.7860 C.3   269  ARG269      0.2205
     27  NE       517.4540   91.8670  450.4460 N.pl3 269  ARG269     -0.0865
     28  CZ       517.6130   91.1790  449.3210 C.cat 269  ARG269      0.5346
     29  NH1      518.5050   91.5760  448.4240 N.pl3 269  ARG269      0.1354
     30  NH2      516.8800   90.1020  449.0900 N.pl3 269  ARG269      0.1354
     31  N        523.3200  100.6660  447.1800 N.3   276  SER276     -0.1202
     32  CA       523.8210   99.8870  446.0420 C.3   276  SER276      0.2020
     33  C        525.2020   99.2710  446.2940 C.2   276  SER276      0.2619
     34  O        526.0200   99.1750  445.3800 O.2   276  SER276     -0.2717
     35  CB       523.8580  100.7640  444.7860 C.3   276  SER276      0.2103
     36  OG       522.5480  101.0850  444.3610 O.3   276  SER276     -0.2182
     37  N        525.4530   98.8460  447.5300 N.am  277  TYR277     -0.1961
     38  CA       526.6610   98.0870  447.8530 C.3   277  TYR277      0.1771
     39  C        526.3020   96.8260  448.6350 C.2   277  TYR277      0.2619
     40  O        525.1980   96.7080  449.1700 O.2   277  TYR277     -0.2715
     41  CB       527.6810   98.9450  448.6160 C.3   277  TYR277      0.0574
     42  CG       527.1460   99.6570  449.8400 C.ar  277  TYR277     -0.0198
     43  CD1      526.9930   98.9880  451.0510 C.ar  277  TYR277     -0.0009
     44  CD2      526.8140  101.0090  449.7930 C.ar  277  TYR277     -0.0009
     45  CE1      526.5100   99.6410  452.1740 C.ar  277  TYR277      0.0417
     46  CE2      526.3330  101.6710  450.9120 C.ar  277  TYR277      0.0417
     47  CZ       526.1810  100.9850  452.1000 C.ar  277  TYR277      0.1957
     48  OH       525.7040  101.6390  453.2130 O.3   277  TYR277     -0.2866
     49  N        527.2420   95.8870  448.6860 N.am  278  VAL278     -0.1977
     50  CA       527.0120   94.5890  449.3140 C.3   278  VAL278      0.1596
     51  C        527.1580   94.6950  450.8280 C.2   278  VAL278      0.2287
     52  O        528.1720   95.1800  451.3270 O.2   278  VAL278     -0.2864
     53  CB       527.9950   93.5300  448.7760 C.3   278  VAL278      0.0276
     54  CG1      527.7860   92.1890  449.4700 C.3   278  VAL278      0.0022
     55  CG2      527.8320   93.3800  447.2700 C.3   278  VAL278      0.0022
     56  N        523.7530   90.3350  453.2760 N.3   282  ASP282     -0.1225
     57  CA       523.5580   89.8490  451.9050 C.3   282  ASP282      0.1805
     58  C        524.4500   88.6450  451.6000 C.2   282  ASP282      0.2597
     59  O        524.0450   87.7370  450.8740 O.2   282  ASP282     -0.2718
     60  CB       523.8290   90.9600  450.8840 C.3   282  ASP282      0.1424
     61  CG       522.8610   92.1250  451.0080 C.2   282  ASP282      0.3668
     62  OD1      521.6770   91.8880  451.3330 O.co2 282  ASP282     -0.2456
     63  OD2      523.2830   93.2810  450.7770 O.co2 282  ASP282     -0.2456
     64  N        525.6590   88.6440  452.1600 N.am  283  ILE283     -0.1980
     65  CA       526.5870   87.5270  452.0020 C.3   283  ILE283      0.1595
     66  C        526.0150   86.2860  452.6820 C.2   283  ILE283      0.2287
     67  O        525.9820   85.2070  452.0920 O.2   283  ILE283     -0.2864
     68  CB       527.9780   87.8340  452.6090 C.3   283  ILE283      0.0276
     69  CG1      528.6220   89.0640  451.9470 C.3   283  ILE283      0.0022
     70  CG2      528.9020   86.6260  452.4860 C.3   283  ILE283      0.0022
     71  CD1      528.8840   88.9310  450.4600 C.3   283  ILE283      0.0001
     72  N        522.8520   85.5570  453.5750 N.3   285  MET285     -0.1230
     73  CA       521.6480   85.0780  452.8970 C.3   285  MET285      0.1702
     74  C        521.9720   84.4340  451.5520 C.2   285  MET285      0.2592
     75  O        521.3570   83.4350  451.1810 O.2   285  MET285     -0.2718
     76  CB       520.6440   86.2170  452.7000 C.3   285  MET285      0.0401
     77  CG       520.0200   86.7260  453.9900 C.3   285  MET285      0.0596
     78  SD       519.0370   85.4810  454.8510 S.3   285  MET285     -0.1393
     79  CE       518.5760   86.3890  456.3250 C.3   285  MET285      0.0692
     80  N        522.9380   85.0030  450.8350 N.am  286  ALA286     -0.1966
     81  CA       523.3820   84.4530  449.5530 C.3   286  ALA286      0.1728
     82  C        523.9380   83.0410  449.7090 C.2   286  ALA286      0.2616
     83  O        523.5720   82.1370  448.9560 O.2   286  ALA286     -0.2715
     84  CB       524.4300   85.3560  448.9230 C.3   286  ALA286      0.0334
     85  N        524.8140   82.8580  450.6940 N.am  287  VAL287     -0.1977
     86  CA       525.4320   81.5590  450.9470 C.3   287  VAL287      0.1596
     87  C        524.4060   80.5600  451.4830 C.2   287  VAL287      0.2287
     88  O        524.3770   79.4120  451.0440 O.2   287  VAL287     -0.2864
     89  CB       526.6340   81.6760  451.9090 C.3   287  VAL287      0.0276
     90  CG1      527.1470   80.2990  452.3130 C.3   287  VAL287      0.0022
     91  CG2      527.7490   82.4820  451.2550 C.3   287  VAL287      0.0022
     92  N        521.4050   80.5870  450.7520 N.3   289  LEU289     -0.1231
     93  CA       520.6020   80.2770  449.5740 C.3   289  LEU289      0.1693
     94  C        521.2980   79.2570  448.6680 C.2   289  LEU289      0.2591
     95  O        520.6310   78.4260  448.0600 O.2   289  LEU289     -0.2718
     96  CB       520.2700   81.5600  448.8010 C.3   289  LEU289      0.0284
     97  CG       518.9670   81.6110  448.0000 C.3   289  LEU289      0.0019
     98  CD1      517.7530   81.2950  448.8570 C.3   289  LEU289      0.0001
     99  CD2      518.8050   82.9900  447.3840 C.3   289  LEU289      0.0001
    100  N        522.6270   79.3190  448.5810 N.am  290  LEU290     -0.1980
    101  CA       523.4050   78.3070  447.8480 C.3   290  LEU290      0.1596
    102  C        523.2520   76.9100  448.4450 C.2   290  LEU290      0.2287
    103  O        523.0090   75.9480  447.7200 O.2   290  LEU290     -0.2864
    104  CB       524.8970   78.6670  447.8010 C.3   290  LEU290      0.0297
    105  CG       525.3870   79.4980  446.6120 C.3   290  LEU290      0.0022
    106  CD1      526.7930   80.0170  446.8710 C.3   290  LEU290      0.0001
    107  CD2      525.3530   78.6790  445.3300 C.3   290  LEU290      0.0001
    108  N        519.7370   75.7670  447.8100 N.3   293  PHE293     -0.1241
    109  CA       519.5720   75.5570  446.3690 C.3   293  PHE293      0.1605
    110  C        520.3580   74.3350  445.8740 C.2   293  PHE293      0.2264
    111  O        519.9090   73.6310  444.9660 O.2   293  PHE293     -0.2867
    112  CB       519.9980   76.8160  445.6040 C.3   293  PHE293      0.0534
    113  CG       519.7850   76.7320  444.1190 C.ar  293  PHE293     -0.0203
    114  CD1      518.5110   76.8500  443.5790 C.ar  293  PHE293     -0.0042
    115  CD2      520.8590   76.5450  443.2590 C.ar  293  PHE293     -0.0042
    116  CE1      518.3110   76.7750  442.2100 C.ar  293  PHE293     -0.0003
    117  CE2      520.6650   76.4680  441.8890 C.ar  293  PHE293     -0.0003
    118  CZ       519.3900   76.5850  441.3640 C.ar  293  PHE293     -0.0000
@<TRIPOS>BOND
     1   118   117   ar
     2   118   116   ar
     3   117   115   ar
     4   116   114   ar
     5   115   113   ar
     6   114   113   ar
     7   113   112    1
     8    36    35    1
     9    35    32    1
    10   111   110    2
    11   107   105    1
    12    34    33    2
    13   112   109    1
    14   110   109    1
    15    32    33    1
    16    32    31    1
    17    33    37   am
    18   109   108    1
    19   105   106    1
    20   105   104    1
    21     7     5    1
    22    55    53    1
    23    99    97    1
    24    37    38    1
    25   103   102    2
    26   104   101    1
    27   101   102    1
    28   101   100    1
    29    38    41    1
    30    38    39    1
    31    97    96    1
    32    97    98    1
    33     5     6    1
    34     5     2    1
    35    95    94    2
    36    29    28    1
    37   100    94   am
    38    41    42    1
    39    39    49   am
    40    39    40    2
    41    94    93    1
    42    49    50    1
    43    53    50    1
    44    53    54    1
    45    96    93    1
    46    84    81    1
    47    83    82    2
    48    30    28    1
    49    50    51    1
    50    28    27    2
    51     2     3    1
    52     2     1    1
    53    81    82    1
    54    81    80    1
    55    93    92    1
    56    82    85   am
    57    44    42   ar
    58    44    46   ar
    59    42    43   ar
    60    18    19    1
    61    18    15    1
    62     3     4    2
    63    27    26    1
    64    71    69    1
    65    85    86    1
    66    63    61   ar
    67    26    25    1
    68    51    52    2
    69    80    74   am
    70    59    58    2
    71    60    61    1
    72    60    57    1
    73    46    47   ar
    74    86    87    1
    75    86    89    1
    76    61    62   ar
    77    88    87    2
    78    43    45   ar
    79    15    14    1
    80    15    16    1
    81    13    12    1
    82    75    74    2
    83    91    89    1
    84    12     9    1
    85    14    10   am
    86    74    73    1
    87    58    57    1
    88    58    64   am
    89    57    56    1
    90    89    90    1
    91    69    68    1
    92    65    64    1
    93    65    68    1
    94    65    66    1
    95    67    66    2
    96    47    45   ar
    97    47    48    1
    98    25    24    1
    99    16    17    2
   100    24    21    1
   101    10     9    1
   102    10    11    2
   103    70    68    1
   104     9     8    1
   105    76    73    1
   106    76    77    1
   107    73    72    1
   108    23    22    2
   109    21    22    1
   110    21    20    1
   111    77    78    1
   112    78    79    1
