@<TRIPOS>MOLECULE
tmp/5vdkA00.pdb
 190 179 0 0 0
SMALL
GASTEIGER

@<TRIPOS>ATOM
      1  N         -8.0960  -32.7270  -21.4850 N.3    13  GLU13      -0.1231
      2  CA        -7.8000  -31.4590  -22.1340 C.3    13  GLU13       0.1699
      3  C         -7.1500  -30.5270  -21.1230 C.2    13  GLU13       0.2592
      4  O         -7.3370  -30.6790  -19.9140 O.2    13  GLU13      -0.2718
      5  CB        -9.0690  -30.8130  -22.7000 C.3    13  GLU13       0.0402
      6  CG       -10.0810  -30.4380  -21.6260 C.3    13  GLU13       0.1161
      7  CD       -11.3210  -29.7650  -22.1800 C.2    13  GLU13       0.3649
      8  OE1      -11.1870  -28.9030  -23.0730 O.co2  13  GLU13      -0.2457
      9  OE2      -12.4330  -30.0940  -21.7150 O.co2  13  GLU13      -0.2457
     10  N         -6.3880  -29.5640  -21.6340 N.am   14  LYS14      -0.1966
     11  CA        -5.8530  -28.4840  -20.8160 C.3    14  LYS14       0.1728
     12  C         -6.8800  -27.3600  -20.7620 C.2    14  LYS14       0.2616
     13  O         -7.4080  -26.9450  -21.7980 O.2    14  LYS14      -0.2715
     14  CB        -4.5230  -27.9840  -21.3840 C.3    14  LYS14       0.0311
     15  CG        -4.3090  -26.4790  -21.2940 C.3    14  LYS14       0.0038
     16  CD        -2.8750  -26.1090  -21.6460 C.3    14  LYS14       0.0206
     17  CE        -2.4170  -26.8150  -22.9150 C.3    14  LYS14       0.1093
     18  NZ        -0.9730  -26.5900  -23.2020 N.3    14  LYS14      -0.1314
     19  N         -7.1730  -26.8800  -19.5540 N.am   15  ILE15      -0.1963
     20  CA        -8.2810  -25.9590  -19.3380 C.3    15  ILE15       0.1727
     21  C         -7.8460  -24.6190  -18.7660 C.2    15  ILE15       0.2617
     22  O         -8.6920  -23.7360  -18.5900 O.2    15  ILE15      -0.2715
     23  CB        -9.3670  -26.5900  -18.4420 C.3    15  ILE15       0.0290
     24  CG1       -8.7950  -26.9310  -17.0660 C.3    15  ILE15       0.0022
     25  CG2       -9.9500  -27.8300  -19.1040 C.3    15  ILE15       0.0023
     26  CD1       -9.8230  -27.4710  -16.0980 C.3    15  ILE15       0.0001
     27  N         -6.5660  -24.4310  -18.4700 N.am   16  GLY16      -0.1940
     28  CA        -6.1230  -23.1450  -17.9700 C.3    16  GLY16       0.2014
     29  C         -4.7070  -23.2020  -17.4390 C.2    16  GLY16       0.2639
     30  O         -4.0650  -24.2560  -17.4030 O.2    16  GLY16      -0.2714
     31  N         -4.2320  -22.0270  -17.0300 N.am   17  VAL17      -0.1963
     32  CA        -2.8880  -21.8360  -16.4930 C.3    17  VAL17       0.1727
     33  C         -2.9770  -20.8220  -15.3620 C.2    17  VAL17       0.2617
     34  O         -3.6100  -19.7740  -15.5150 O.2    17  VAL17      -0.2715
     35  CB        -1.8990  -21.3460  -17.5710 C.3    17  VAL17       0.0290
     36  CG1       -0.5850  -20.9080  -16.9340 C.3    17  VAL17       0.0023
     37  CG2       -1.6480  -22.4260  -18.6150 C.3    17  VAL17       0.0023
     38  N         -2.3530  -21.1260  -14.2330 N.am   18  GLY18      -0.1940
     39  CA        -2.3260  -20.1780  -13.1350 C.3    18  GLY18       0.2014
     40  C         -1.7250  -20.8050  -11.9020 C.2    18  GLY18       0.2638
     41  O         -1.5090  -22.0180  -11.8290 O.2    18  GLY18      -0.2714
     42  N         -1.4740  -19.9420  -10.9150 N.am   19  GLU19      -0.1977
     43  CA        -0.7470  -20.3050   -9.6970 C.3    19  GLU19       0.1602
     44  C          0.4870  -21.1360  -10.0310 C.2    19  GLU19       0.2287
     45  O          0.7680  -22.1540   -9.3950 O.2    19  GLU19      -0.2864
     46  CB        -1.6480  -21.0300   -8.6900 C.3    19  GLU19       0.0415
     47  CG        -3.0480  -20.4480   -8.5250 C.3    19  GLU19       0.1163
     48  CD        -3.9520  -21.3160   -7.6630 C.2    19  GLU19       0.3649
     49  OE1       -4.7850  -22.0610   -8.2190 O.co2  19  GLU19      -0.2457
     50  OE2       -3.8220  -21.2570   -6.4220 O.co2  19  GLU19      -0.2457
     51  N         -3.5350  -26.5380  -15.6140 N.3    23  VAL23      -0.1245
     52  CA        -4.6750  -27.3120  -15.1360 C.3    23  VAL23       0.1561
     53  C         -5.2530  -28.1150  -16.2910 C.2    23  VAL23       0.2260
     54  O         -5.3870  -27.6050  -17.4110 O.2    23  VAL23      -0.2867
     55  CB        -5.7510  -26.4050  -14.5050 C.3    23  VAL23       0.0252
     56  CG1       -6.7600  -27.2400  -13.7280 C.3    23  VAL23       0.0019
     57  CG2       -5.1020  -25.3710  -13.6030 C.3    23  VAL23       0.0019
     58  N        -10.3080  -31.4950  -11.8100 N.3    36  ALA36      -0.1245
     59  CA        -9.3770  -30.4870  -12.2980 C.3    36  ALA36       0.1562
     60  C         -8.0700  -30.6360  -11.5290 C.2    36  ALA36       0.2260
     61  O         -8.0520  -30.5200  -10.2970 O.2    36  ALA36      -0.2867
     62  CB        -9.9480  -29.0780  -12.1400 C.3    36  ALA36       0.0290
     63  N         -3.9880  -29.4910  -11.2870 N.3    38  LYS38      -0.1245
     64  CA        -3.0280  -28.4530  -11.6490 C.3    38  LYS38       0.1561
     65  C         -1.6180  -28.9480  -11.3580 C.2    38  LYS38       0.2260
     66  O         -1.2990  -29.2820  -10.2110 O.2    38  LYS38      -0.2867
     67  CB        -3.3150  -27.1490  -10.9020 C.3    38  LYS38       0.0271
     68  CG        -2.2000  -26.1070  -11.0040 C.3    38  LYS38       0.0035
     69  CD        -2.4250  -24.9450  -10.0500 C.3    38  LYS38       0.0206
     70  CE        -2.2210  -25.3770   -8.6140 C.3    38  LYS38       0.1093
     71  NZ        -1.7700  -24.2560   -7.7610 N.3    38  LYS38      -0.1314
     72  N         -1.4510  -22.6510   -0.8070 N.3    56  GLU56      -0.1245
     73  CA        -2.4150  -23.6660   -1.2200 C.3    56  GLU56       0.1567
     74  C         -2.3960  -24.8560   -0.2700 C.2    56  GLU56       0.2260
     75  O         -3.4490  -25.3770    0.1160 O.2    56  GLU56      -0.2867
     76  CB        -2.1040  -24.1210   -2.6440 C.3    56  GLU56       0.0388
     77  CG        -1.6090  -23.0010   -3.5340 C.3    56  GLU56       0.1160
     78  CD        -1.4180  -23.4240   -4.9710 C.2    56  GLU56       0.3649
     79  OE1       -0.5090  -22.8740   -5.6270 O.co2  56  GLU56      -0.2457
     80  OE2       -2.1570  -24.3060   -5.4510 O.co2  56  GLU56      -0.2457
     81  N        -14.3730  -24.6280   -3.8320 N.3    70  VAL70      -0.1245
     82  CA       -13.9980  -25.7180   -4.7240 C.3    70  VAL70       0.1561
     83  C        -13.3610  -26.8270   -3.9040 C.2    70  VAL70       0.2260
     84  O        -12.4100  -26.5960   -3.1480 O.2    70  VAL70      -0.2867
     85  CB       -13.0560  -25.2090   -5.8240 C.3    70  VAL70       0.0252
     86  CG1      -12.4100  -26.3780   -6.5540 C.3    70  VAL70       0.0019
     87  CG2      -13.8140  -24.3140   -6.7950 C.3    70  VAL70       0.0019
     88  N         -1.9900  -30.7480   -7.7290 N.3    84  ILE84      -0.1245
     89  CA        -3.1850  -30.5160   -6.9240 C.3    84  ILE84       0.1561
     90  C         -4.3790  -31.1210   -7.6560 C.2    84  ILE84       0.2260
     91  O         -4.5020  -30.9880   -8.8790 O.2    84  ILE84      -0.2867
     92  CB        -3.3850  -29.0080   -6.6390 C.3    84  ILE84       0.0252
     93  CG1       -3.8720  -28.7540   -5.2080 C.3    84  ILE84       0.0019
     94  CG2       -4.3250  -28.3500   -7.6290 C.3    84  ILE84       0.0019
     95  CD1       -2.9000  -29.1640   -4.1310 C.3    84  ILE84       0.0001
     96  N         -8.4720  -31.1610   -7.5350 N.3    86  ASN86      -0.1225
     97  CA        -9.6900  -30.5560   -7.0210 C.3    86  ASN86       0.1785
     98  C        -10.8940  -31.0400   -7.8180 C.2    86  ASN86       0.2597
     99  O        -10.7670  -31.6290   -8.8960 O.2    86  ASN86      -0.2718
    100  CB        -9.6100  -29.0240   -7.0660 C.3    86  ASN86       0.1169
    101  CG        -8.6040  -28.4640   -6.0830 C.2    86  ASN86       0.2627
    102  OD1       -8.2550  -29.1160   -5.0990 O.2    86  ASN86      -0.2716
    103  ND2       -8.1470  -27.2420   -6.3320 N.am   86  ASN86      -0.0877
    104  N        -12.0770  -30.7900   -7.2600 N.am   87  GLU87      -0.1965
    105  CA       -13.3120  -31.0560   -7.9810 C.3    87  GLU87       0.1733
    106  C        -13.3440  -30.2490   -9.2740 C.2    87  GLU87       0.2616
    107  O        -12.7520  -29.1710   -9.3760 O.2    87  GLU87      -0.2715
    108  CB       -14.5200  -30.7220   -7.1020 C.3    87  GLU87       0.0429
    109  CG       -15.0260  -29.2940   -7.2480 C.3    87  GLU87       0.1163
    110  CD       -16.3610  -29.0620   -6.5720 C.2    87  GLU87       0.3649
    111  OE1      -17.3940  -29.5040   -7.1170 O.co2  87  GLU87      -0.2457
    112  OE2      -16.3770  -28.4270   -5.4960 O.co2  87  GLU87      -0.2457
    113  N        -14.0250  -30.7930  -10.2780 N.am   88  TYR88      -0.1960
    114  CA       -14.0900  -30.1820  -11.6000 C.3    88  TYR88       0.1771
    115  C        -15.4160  -29.4460  -11.7460 C.2    88  TYR88       0.2620
    116  O        -16.4740  -30.0740  -11.8520 O.2    88  TYR88      -0.2715
    117  CB       -13.9290  -31.2330  -12.6970 C.3    88  TYR88       0.0574
    118  CG       -14.1590  -30.6810  -14.0830 C.ar   88  TYR88      -0.0198
    119  CD1      -13.1820  -29.9300  -14.7170 C.ar   88  TYR88      -0.0009
    120  CD2      -15.3560  -30.9000  -14.7530 C.ar   88  TYR88      -0.0009
    121  CE1      -13.3840  -29.4180  -15.9800 C.ar   88  TYR88       0.0417
    122  CE2      -15.5680  -30.3890  -16.0180 C.ar   88  TYR88       0.0417
    123  CZ       -14.5780  -29.6470  -16.6250 C.ar   88  TYR88       0.1957
    124  OH       -14.7790  -29.1330  -17.8850 O.3    88  TYR88      -0.2866
    125  N        -15.3570  -28.1180  -11.7570 N.am   89  CYS89      -0.1954
    126  CA       -16.5340  -27.3010  -12.0190 C.3    89  CYS89       0.1843
    127  C        -16.7440  -27.2020  -13.5260 C.2    89  CYS89       0.2625
    128  O        -15.9060  -26.6410  -14.2410 O.2    89  CYS89      -0.2714
    129  CB       -16.3700  -25.9190  -11.3900 C.3    89  CYS89       0.0997
    130  SG       -16.0170  -25.9620   -9.6120 S.3    89  CYS89      -0.0797
    131  N        -17.8630  -27.7430  -14.0070 N.am   90  ASN90      -0.1972
    132  CA       -18.1130  -27.9250  -15.4320 C.3    90  ASN90       0.1688
    133  C        -18.6640  -26.6810  -16.1210 C.2    90  ASN90       0.2292
    134  O        -18.9940  -26.7440  -17.3100 O.2    90  ASN90      -0.2864
    135  CB       -19.0740  -29.0980  -15.6470 C.3    90  ASN90       0.1181
    136  CG       -20.4530  -28.8370  -15.0660 C.2    90  ASN90       0.2629
    137  OD1      -20.6190  -28.7390  -13.8500 O.2    90  ASN90      -0.2716
    138  ND2      -21.4510  -28.7280  -15.9360 N.am   90  ASN90      -0.0877
    139  N        -16.9560  -23.6570  -15.7670 N.3    92  GLY92      -0.1210
    140  CA       -15.8070  -22.7950  -15.9500 C.3    92  GLY92       0.1956
    141  C        -15.8350  -21.5800  -15.0330 C.2    92  GLY92       0.2612
    142  O        -16.5500  -21.5160  -14.0320 O.2    92  GLY92      -0.2717
    143  N        -15.0320  -20.5940  -15.4110 N.am   93  SER93      -0.1952
    144  CA       -14.9120  -19.3900  -14.6100 C.3    93  SER93       0.1924
    145  C        -16.1920  -18.5620  -14.6820 C.2    93  SER93       0.2314
    146  O        -16.9870  -18.6680  -15.6160 O.2    93  SER93      -0.2863
    147  CB       -13.7230  -18.5460  -15.0770 C.3    93  SER93       0.2116
    148  OG       -13.1790  -17.7910  -14.0140 O.3    93  SER93      -0.2180
    149  N        -15.2530  -16.0690  -17.4210 N.3    96  ALA96      -0.1245
    150  CA       -15.5190  -16.5100  -18.7860 C.3    96  ALA96       0.1562
    151  C        -16.9700  -16.2610  -19.1790 C.2    96  ALA96       0.2260
    152  O        -17.2590  -15.9450  -20.3390 O.2    96  ALA96      -0.2867
    153  CB       -15.1670  -17.9880  -18.9340 C.3    96  ALA96       0.0290
    154  N        -12.1060  -14.5360  -11.9180 N.3   140  SER140     -0.1202
    155  CA       -11.2130  -15.6030  -12.3600 C.3   140  SER140      0.2020
    156  C        -11.2840  -16.8050  -11.4280 C.2   140  SER140      0.2618
    157  O        -11.2740  -17.9560  -11.8810 O.2   140  SER140     -0.2717
    158  CB        -9.7740  -15.0890  -12.4350 C.3   140  SER140      0.2103
    159  OG        -9.4480  -14.6240  -13.7310 O.3   140  SER140     -0.2182
    160  N        -11.3580  -16.5550  -10.1210 N.am  141  ASN141     -0.1974
    161  CA       -11.2910  -17.6000   -9.1100 C.3   141  ASN141      0.1688
    162  C        -12.6640  -17.9710   -8.5570 C.2   141  ASN141      0.2292
    163  O        -12.7590  -18.4770   -7.4340 O.2   141  ASN141     -0.2864
    164  CB       -10.3550  -17.1680   -7.9800 C.3   141  ASN141      0.1181
    165  CG        -9.0160  -16.6680   -8.4950 C.2   141  ASN141      0.2629
    166  OD1       -8.5360  -17.1070   -9.5400 O.2   141  ASN141     -0.2716
    167  ND2       -8.4140  -15.7350   -7.7680 N.am  141  ASN141     -0.0877
    168  N        -15.9450  -20.3410   -9.7160 N.3   143  PHE143     -0.1241
    169  CA       -16.2210  -21.4050  -10.6670 C.3   143  PHE143      0.1605
    170  C        -17.6800  -21.8320  -10.5890 C.2   143  PHE143      0.2264
    171  O        -18.2920  -21.8320   -9.5170 O.2   143  PHE143     -0.2867
    172  CB       -15.2960  -22.5980  -10.4230 C.3   143  PHE143      0.0534
    173  CG       -13.8520  -22.2970  -10.6940 C.ar  143  PHE143     -0.0203
    174  CD1      -13.3580  -22.3310  -11.9860 C.ar  143  PHE143     -0.0042
    175  CD2      -12.9950  -21.9580   -9.6610 C.ar  143  PHE143     -0.0042
    176  CE1      -12.0320  -22.0440  -12.2440 C.ar  143  PHE143     -0.0003
    177  CE2      -11.6670  -21.6710   -9.9130 C.ar  143  PHE143     -0.0003
    178  CZ       -11.1860  -21.7150  -11.2070 C.ar  143  PHE143     -0.0000
    179  N        -12.2980  -20.6330   -5.7380 N.3   153  GLY153     -0.1210
    180  CA       -11.1090  -21.4220   -5.9860 C.3   153  GLY153      0.1956
    181  C         -9.8630  -20.5600   -5.9050 C.2   153  GLY153      0.2611
    182  O         -9.9340  -19.3680   -5.6040 O.2   153  GLY153     -0.2717
    183  N         -8.7200  -21.1900   -6.1830 N.am  154  ASP154     -0.1973
    184  CA        -7.4100  -20.5540   -6.0770 C.3   154  ASP154      0.1709
    185  C         -7.1850  -20.0800   -4.6460 C.2   154  ASP154      0.2293
    186  O         -7.6460  -19.0020   -4.2620 O.2   154  ASP154     -0.2864
    187  CB        -7.2840  -19.3960   -7.0850 C.3   154  ASP154      0.1436
    188  CG        -5.9220  -18.6870   -7.0340 C.2   154  ASP154      0.3671
    189  OD1       -5.5520  -18.0350   -8.0340 O.co2 154  ASP154     -0.2456
    190  OD2       -5.2100  -18.7720   -6.0160 O.co2 154  ASP154     -0.2456
@<TRIPOS>BOND
     1    18    17    1
     2     8     7   ar
     3    17    16    1
     4     5     2    1
     5     5     6    1
     6     7     9   ar
     7     7     6    1
     8     2     1    1
     9     2     3    1
    10    13    12    2
    11    16    15    1
    12    10     3   am
    13    10    11    1
    14    14    15    1
    15    14    11    1
    16     3     4    2
    17    11    12    1
    18    12    19   am
    19   152   151    2
    20    19    20    1
    21    20    21    1
    22    20    23    1
    23   151   150    1
    24    25    23    1
    25   153   150    1
    26   150   149    1
    27    21    22    2
    28    21    27   am
    29    37    35    1
    30    27    28    1
    31    23    24    1
    32    28    29    1
    33   124   123    1
    34    35    36    1
    35    35    32    1
    36    29    30    2
    37    29    31   am
    38    54    53    2
    39   134   133    2
    40    24    26    1
    41    31    32    1
    42   123   122   ar
    43   123   121   ar
    44    32    33    1
    45    53    52    1
    46   133   132    1
    47   122   120   ar
    48   121   119   ar
    49   140   139    1
    50   140   141    1
    51   138   136   am
    52   135   132    1
    53   135   136    1
    54   146   145    2
    55    51    52    1
    56    34    33    2
    57   132   131    1
    58   143   141   am
    59   143   144    1
    60    33    38   am
    61    52    55    1
    62   147   144    1
    63   147   148    1
    64   136   137    2
    65   141   142    2
    66   120   118   ar
    67   119   118   ar
    68   145   144    1
    69    55    56    1
    70    55    57    1
    71   128   127    2
    72    38    39    1
    73   118   117    1
    74   131   127   am
    75   159   158    1
    76   127   126    1
    77    39    40    1
    78   117   114    1
    79   158   155    1
    80   155   154    1
    81   155   156    1
    82    59    62    1
    83    59    58    1
    84    59    60    1
    85   176   174   ar
    86   176   178   ar
    87   126   125    1
    88   126   129    1
    89   174   173   ar
    90    40    41    2
    91    40    42   am
    92   157   156    2
    93   116   115    2
    94   125   115   am
    95   115   114    1
    96    64    65    1
    97    64    63    1
    98    64    67    1
    99   114   113    1
   100    60    61    2
   101   156   160   am
   102   129   130    1
   103    65    66    2
   104   178   177   ar
   105    68    67    1
   106    68    69    1
   107    42    43    1
   108   173   172    1
   109   173   175   ar
   110   169   170    1
   111   169   172    1
   112   169   168    1
   113   170   171    2
   114   113   106   am
   115   160   161    1
   116    69    70    1
   117    44    43    1
   118    44    45    2
   119   177   175   ar
   120    43    46    1
   121   166   165    2
   122   107   106    2
   123   106   105    1
   124   161   162    1
   125   161   164    1
   126    99    98    2
   127    91    90    2
   128    46    47    1
   129    70    71    1
   130   162   163    2
   131    47    48    1
   132   165   164    1
   133   165   167   am
   134    49    48   ar
   135   189   188   ar
   136   105   104    1
   137   105   108    1
   138    98   104   am
   139    98    97    1
   140    88    89    1
   141    48    50   ar
   142    90    89    1
   143    94    92    1
   144    96    97    1
   145   109   108    1
   146   109   110    1
   147   111   110   ar
   148   187   188    1
   149   187   184    1
   150   100    97    1
   151   100   101    1
   152   188   190   ar
   153    89    92    1
   154    87    85    1
   155    92    93    1
   156   110   112   ar
   157    86    85    1
   158   103   101   am
   159   183   184    1
   160   183   181   am
   161   101   102    2
   162   184   185    1
   163   180   181    1
   164   180   179    1
   165   181   182    2
   166    85    82    1
   167    79    78   ar
   168    80    78   ar
   169    93    95    1
   170    78    77    1
   171    82    83    1
   172    82    81    1
   173   185   186    2
   174    83    84    2
   175    77    76    1
   176    76    73    1
   177    73    72    1
   178    73    74    1
   179    74    75    2
