@<TRIPOS>MOLECULE
tmp/5vdnA01.pdb
 94 87 0 0 0
SMALL
GASTEIGER

@<TRIPOS>ATOM
      1  N         -5.2250   45.7220    1.8780 N.3    33  GLU33      -0.1245
      2  CA        -5.4380   44.8150    0.7450 C.3    33  GLU33       0.1567
      3  C         -6.7780   44.1420    0.8640 C.2    33  GLU33       0.2260
      4  O         -7.0640   43.4910    1.8740 O.2    33  GLU33      -0.2867
      5  CB        -4.3220   43.7670    0.6710 C.3    33  GLU33       0.0388
      6  CG        -4.5560   42.6190   -0.3010 C.3    33  GLU33       0.1160
      7  CD        -4.8130   43.0650   -1.7230 C.2    33  GLU33       0.3649
      8  OE1       -4.0210   43.8740   -2.2580 O.co2  33  GLU33      -0.2457
      9  OE2       -5.8250   42.6080   -2.3220 O.co2  33  GLU33      -0.2457
     10  N         -8.0550   41.6770   -1.1170 N.3    35  LYS35      -0.1245
     11  CA        -8.0600   40.2580   -1.5000 C.3    35  LYS35       0.1561
     12  C         -6.8220   39.5540   -0.9880 C.2    35  LYS35       0.2260
     13  O         -6.6660   39.4470    0.2080 O.2    35  LYS35      -0.2867
     14  CB        -8.2860   40.1350   -3.0140 C.3    35  LYS35       0.0271
     15  CG        -9.6760   40.6010   -3.4020 C.3    35  LYS35       0.0035
     16  CD       -10.0140   40.4890   -4.8780 C.3    35  LYS35       0.0206
     17  CE       -11.5040   40.7760   -5.0620 C.3    35  LYS35       0.1093
     18  NZ       -11.9450   40.9520   -6.4770 N.3    35  LYS35      -0.1314
     19  N         -1.0530   40.7140   -5.0320 N.3    39  GLY39      -0.1210
     20  CA        -1.8000   41.2890   -6.1420 C.3    39  GLY39       0.1956
     21  C         -1.9870   40.3980   -7.3490 C.2    39  GLY39       0.2612
     22  O         -2.0060   39.1740   -7.2650 O.2    39  GLY39      -0.2717
     23  N         -2.1350   41.0470   -8.4840 N.am   40  THR40      -0.1952
     24  CA        -2.3720   40.3570   -9.7110 C.3    40  THR40       0.1897
     25  C         -1.2370   39.4260  -10.0710 C.2    40  THR40       0.2313
     26  O         -1.4680   38.2930  -10.4490 O.2    40  THR40      -0.2863
     27  CB        -2.6180   41.3760  -10.8380 C.3    40  THR40       0.1794
     28  OG1       -3.8320   42.0880  -10.5510 O.3    40  THR40      -0.2208
     29  CG2       -2.7270   40.7070  -12.1770 C.3    40  THR40       0.0378
     30  N         -1.1650   36.1400   -7.7570 N.3    43  ASN43      -0.1225
     31  CA        -2.3740   35.3420   -7.6690 C.3    43  ASN43       0.1785
     32  C         -3.0230   34.9330   -8.9750 C.2    43  ASN43       0.2597
     33  O         -3.4970   33.7940   -9.0970 O.2    43  ASN43      -0.2718
     34  CB        -3.3510   36.1240   -6.7930 C.3    43  ASN43       0.1169
     35  CG        -2.8280   36.2510   -5.3780 C.2    43  ASN43       0.2627
     36  OD1       -2.8070   35.2670   -4.6420 O.2    43  ASN43      -0.2716
     37  ND2       -2.3450   37.4400   -5.0130 N.am   43  ASN43      -0.0877
     38  N         -3.0110   35.8410   -9.9480 N.am   44  VAL44      -0.1980
     39  CA        -3.7040   35.6220  -11.2260 C.3    44  VAL44       0.1595
     40  C         -2.9110   36.2330  -12.3730 C.2    44  VAL44       0.2287
     41  O         -3.4780   36.6730  -13.3520 O.2    44  VAL44      -0.2864
     42  CB        -5.1390   36.2230  -11.1710 C.3    44  VAL44       0.0276
     43  CG1       -6.0140   35.4320  -10.2210 C.3    44  VAL44       0.0022
     44  CG2       -5.1130   37.6900  -10.7610 C.3    44  VAL44       0.0022
     45  N         -5.3190   47.0560  -11.6650 N.3   140  GLY140     -0.1210
     46  CA        -6.4320   46.9830  -12.5740 C.3   140  GLY140      0.1956
     47  C         -7.1590   45.6560  -12.5120 C.2   140  GLY140      0.2612
     48  O         -7.0030   44.8870  -11.5700 O.2   140  GLY140     -0.2717
     49  N         -7.9670   45.4090  -13.5370 N.am  141  ARG141     -0.1966
     50  CA        -8.7630   44.1860  -13.6430 C.3   141  ARG141      0.1714
     51  C         -9.0810   43.9250  -15.1140 C.2   141  ARG141      0.2458
     52  O         -8.9700   44.8290  -15.9470 O.2   141  ARG141     -0.2730
     53  CB       -10.0750   44.3370  -12.8540 C.3   141  ARG141      0.0347
     54  CG       -11.0980   45.2410  -13.5150 C.3   141  ARG141      0.0492
     55  CD       -12.3910   45.3780  -12.7150 C.3   141  ARG141      0.2205
     56  NE       -12.2410   46.1210  -11.4680 N.pl3 141  ARG141     -0.0865
     57  CZ       -12.5240   47.4130  -11.3310 C.cat 141  ARG141      0.5346
     58  NH1      -12.3550   48.0130  -10.1570 N.pl3 141  ARG141      0.1354
     59  NH2      -12.9720   48.1090  -12.3670 N.pl3 141  ARG141      0.1354
     60  N         -9.4600   42.6810  -15.4590 N.am  142  PRO142     -0.2727
     61  CA        -9.8100   42.4000  -16.8500 C.3   142  PRO142      0.1402
     62  C        -11.0340   43.1680  -17.3400 C.2   142  PRO142      0.2269
     63  O        -11.9650   43.4030  -16.5580 O.2   142  PRO142     -0.2865
     64  CB       -10.1180   40.8900  -16.8370 C.3   142  PRO142      0.0296
     65  CG        -9.4290   40.3640  -15.6270 C.3   142  PRO142      0.0237
     66  CD        -9.5340   41.4720  -14.6220 C.3   142  PRO142      0.0939
     67  N         -8.6570   35.8910  -15.1190 N.3   157  ASP157     -0.1239
     68  CA        -8.8820   35.4080  -13.7600 C.3   157  ASP157      0.1674
     69  C         -9.5970   34.0680  -13.8570 C.2   157  ASP157      0.2266
     70  O         -9.2630   33.1280  -13.1410 O.2   157  ASP157     -0.2867
     71  CB        -9.7500   36.3580  -12.9380 C.3   157  ASP157      0.1410
     72  CG        -9.1180   37.7290  -12.6960 C.2   157  ASP157      0.3668
     73  OD1       -7.9010   37.9120  -12.8540 O.co2 157  ASP157     -0.2456
     74  OD2       -9.8860   38.6400  -12.2930 O.co2 157  ASP157     -0.2456
     75  N         -8.9930   29.9390  -12.6860 N.3   161  GLU161     -0.1245
     76  CA       -10.0180   29.2190  -11.9020 C.3   161  GLU161      0.1567
     77  C        -10.4580   27.9020  -12.5660 C.2   161  GLU161      0.2260
     78  O        -11.2030   27.1290  -11.9540 O.2   161  GLU161     -0.2867
     79  CB       -11.2390   30.1190  -11.6500 C.3   161  GLU161      0.0388
     80  CG       -10.9270   31.2560  -10.6920 C.3   161  GLU161      0.1160
     81  CD       -12.0240   32.3170  -10.5700 C.2   161  GLU161      0.3649
     82  OE1      -13.0480   32.2620  -11.2980 O.co2 161  GLU161     -0.2457
     83  OE2      -11.8390   33.2400   -9.7490 O.co2 161  GLU161     -0.2457
     84  N         -7.4370   45.4430  -20.1150 N.3   262  ARG262     -0.1245
     85  CA        -7.6310   45.6420  -18.6920 C.3   262  ARG262      0.1563
     86  C         -8.0370   47.0770  -18.4530 C.2   262  ARG262      0.2260
     87  O         -7.9230   47.9430  -19.3450 O.2   262  ARG262     -0.2867
     88  CB        -6.3850   45.2750  -17.8920 C.3   262  ARG262      0.0307
     89  CG        -6.0730   43.8000  -17.9520 C.3   262  ARG262      0.0489
     90  CD        -4.7910   43.4220  -17.2430 C.3   262  ARG262      0.2205
     91  NE        -4.7810   43.6760  -15.7930 N.pl3 262  ARG262     -0.0865
     92  CZ        -5.2920   42.8670  -14.8630 C.cat 262  ARG262      0.5346
     93  NH1       -5.8980   41.7350  -15.1960 N.pl3 262  ARG262      0.1354
     94  NH2       -5.1790   43.1940  -13.5780 N.pl3 262  ARG262      0.1354
@<TRIPOS>BOND
     1    84    85    1
     2    87    86    2
     3    85    86    1
     4    85    88    1
     5    89    88    1
     6    89    90    1
     7    62    61    1
     8    62    63    2
     9    90    91    1
    10    61    64    1
    11    61    60    1
    12    64    65    1
    13    52    51    2
    14    91    92    2
    15    65    66    1
    16    60    51   am
    17    60    66    1
    18    93    92    1
    19    67    68    1
    20    51    50    1
    21    92    94    1
    22    69    68    1
    23    69    70    2
    24    68    71    1
    25    50    49    1
    26    50    53    1
    27    49    47   am
    28    54    53    1
    29    54    55    1
    30    41    40    2
    31    71    72    1
    32    73    72   ar
    33    55    56    1
    34    72    74   ar
    35    75    76    1
    36    46    47    1
    37    46    45    1
    38    77    78    2
    39    77    76    1
    40    47    48    2
    41    40    39    1
    42    59    57    1
    43    29    27    1
    44    76    79    1
    45    79    80    1
    46    56    57    2
    47    57    58    1
    48    82    81   ar
    49    39    42    1
    50    39    38    1
    51    42    44    1
    52    42    43    1
    53    27    28    1
    54    27    24    1
    55    80    81    1
    56    81    83   ar
    57    26    25    2
    58    25    24    1
    59    38    32   am
    60    24    23    1
    61    33    32    2
    62    32    31    1
    63    23    21   am
    64    30    31    1
    65    31    34    1
    66    21    22    2
    67    21    20    1
    68    34    35    1
    69    18    17    1
    70    20    19    1
    71    35    37   am
    72    35    36    2
    73    17    16    1
    74    16    15    1
    75    15    14    1
    76    14    11    1
    77     9     7   ar
    78     8     7   ar
    79     7     6    1
    80    11    10    1
    81    11    12    1
    82    12    13    2
    83     6     5    1
    84     5     2    1
    85     2     3    1
    86     2     1    1
    87     3     4    2
