@<TRIPOS>MOLECULE
tmp/5vdoB00.pdb
 203 195 0 0 0
SMALL
GASTEIGER

@<TRIPOS>ATOM
      1  N        -25.1090   12.2890   24.6260 N.3    61  ASP61      -0.1239
      2  CA       -24.5390   11.0260   24.1780 C.3    61  ASP61       0.1674
      3  C        -23.9260   11.1670   22.7870 C.2    61  ASP61       0.2266
      4  O        -24.6110   11.5240   21.8270 O.2    61  ASP61      -0.2867
      5  CB       -25.6030    9.9260   24.1830 C.3    61  ASP61       0.1410
      6  CG       -25.0110    8.5390   24.0170 C.2    61  ASP61       0.3668
      7  OD1      -23.8090    8.3640   24.3120 O.co2  61  ASP61      -0.2456
      8  OD2      -25.7480    7.6210   23.5980 O.co2  61  ASP61      -0.2456
      9  N        -19.1550    2.3230   36.3800 N.3   136  ARG136     -0.1231
     10  CA       -20.1660    1.8080   37.2970 C.3   136  ARG136      0.1694
     11  C        -20.1990    0.2830   37.2850 C.2   136  ARG136      0.2593
     12  O        -20.8200   -0.3410   38.1450 O.2   136  ARG136     -0.2718
     13  CB       -21.5460    2.3660   36.9410 C.3   136  ARG136      0.0321
     14  CG       -21.7860    3.7970   37.3540 C.3   136  ARG136      0.0489
     15  CD       -21.7700    3.9990   38.8730 C.3   136  ARG136      0.2205
     16  NE       -21.5140    5.4490   39.1740 N.pl3 136  ARG136     -0.0865
     17  CZ       -20.3710    6.0200   38.7490 C.cat 136  ARG136      0.5346
     18  NH1      -19.4750    5.2170   38.1500 N.pl3 136  ARG136      0.1354
     19  NH2      -20.1090    7.3090   38.9500 N.pl3 136  ARG136      0.1354
     20  N        -19.5250   -0.3110   36.3050 N.am  137  GLY137     -0.1942
     21  CA       -19.5070   -1.7530   36.1550 C.3   137  GLY137      0.2014
     22  C        -20.4170   -2.2290   35.0420 C.2   137  GLY137      0.2639
     23  O        -21.6380   -2.0900   35.1120 O.2   137  GLY137     -0.2714
     24  N        -19.8060   -2.7950   34.0060 N.am  138  GLY138     -0.1939
     25  CA       -20.5290   -3.2370   32.8290 C.3   138  GLY138      0.2014
     26  C        -20.7260   -2.1360   31.8050 C.2   138  GLY138      0.2640
     27  O        -20.8570   -2.4090   30.6130 O.2   138  GLY138     -0.2714
     28  N        -20.7470   -0.8900   32.2690 N.am  139  SER139     -0.1936
     29  CA       -20.9060    0.2540   31.3770 C.3   139  SER139      0.2040
     30  C        -19.6270    0.5300   30.5900 C.2   139  SER139      0.2485
     31  O        -18.5830    0.8190   31.1750 O.2   139  SER139     -0.2729
     32  CB       -21.3110    1.4980   32.1700 C.3   139  SER139      0.2129
     33  OG       -21.4230    2.6290   31.3230 O.3   139  SER139     -0.2179
     34  N        -19.7100    0.4420   29.2530 N.am  140  PRO140     -0.2715
     35  CA       -18.5750    0.7040   28.3630 C.3   140  PRO140      0.1536
     36  C        -18.3580    2.1940   28.1140 C.2   140  PRO140      0.2598
     37  O        -17.3020    2.5990   27.6290 O.2   140  PRO140     -0.2715
     38  CB       -18.9790   -0.0050   27.0730 C.3   140  PRO140      0.0310
     39  CG       -20.4660    0.0900   27.0640 C.3   140  PRO140      0.0237
     40  CD       -20.9060    0.0090   28.5060 C.3   140  PRO140      0.0939
     41  N        -19.3590    2.9970   28.4580 N.am  141  ALA141     -0.1978
     42  CA       -19.3230    4.4330   28.2130 C.3   141  ALA141      0.1597
     43  C        -18.3520    5.1520   29.1400 C.2   141  ALA141      0.2287
     44  O        -18.1610    4.7570   30.2900 O.2   141  ALA141     -0.2864
     45  CB       -20.7170    5.0240   28.3550 C.3   141  ALA141      0.0319
     46  N        -21.5750   11.2240   27.8000 N.3   153  ASP153     -0.1239
     47  CA       -21.0980    9.8520   27.6830 C.3   153  ASP153      0.1674
     48  C        -20.4450    9.6110   26.3310 C.2   153  ASP153      0.2266
     49  O        -21.0310    9.8930   25.2880 O.2   153  ASP153     -0.2867
     50  CB       -22.2440    8.8660   27.8920 C.3   153  ASP153      0.1410
     51  CG       -22.8870    9.0050   29.2530 C.2   153  ASP153      0.3668
     52  OD1      -22.9530   10.1420   29.7650 O.co2 153  ASP153     -0.2456
     53  OD2      -23.3250    7.9780   29.8110 O.co2 153  ASP153     -0.2456
     54  N        -18.8570    6.8840   23.7250 N.3   155  THR155     -0.1218
     55  CA       -18.8130    5.4780   23.3480 C.3   155  THR155      0.1862
     56  C        -18.0400    5.3040   22.0410 C.2   155  THR155      0.2287
     57  O        -18.2210    6.0760   21.0990 O.2   155  THR155     -0.2866
     58  CB       -20.2270    4.8930   23.1930 C.3   155  THR155      0.1770
     59  OG1      -21.0120    5.2320   24.3430 O.3   155  THR155     -0.2211
     60  CG2      -20.1670    3.3790   23.0620 C.3   155  THR155      0.0375
     61  N        -20.1690   -2.3220   19.2460 N.3   194  VAL194     -0.1245
     62  CA       -19.9310   -1.6870   20.5370 C.3   194  VAL194      0.1561
     63  C        -19.4510   -2.7100   21.5630 C.2   194  VAL194      0.2260
     64  O        -20.0140   -3.7950   21.6760 O.2   194  VAL194     -0.2867
     65  CB       -21.1930   -0.9580   21.0340 C.3   194  VAL194      0.0252
     66  CG1      -21.4120    0.3160   20.2330 C.3   194  VAL194      0.0019
     67  CG2      -22.4100   -1.8660   20.9330 C.3   194  VAL194      0.0019
     68  N        -19.4200   -4.6910   24.4410 N.3   196  LYS196     -0.1231
     69  CA       -20.2880   -5.1140   25.5360 C.3   196  LYS196      0.1693
     70  C        -20.1740   -6.6190   25.7580 C.2   196  LYS196      0.2592
     71  O        -20.3430   -7.4090   24.8290 O.2   196  LYS196     -0.2718
     72  CB       -21.7460   -4.7360   25.2650 C.3   196  LYS196      0.0285
     73  CG       -22.0500   -3.2460   25.3450 C.3   196  LYS196      0.0035
     74  CD       -23.5050   -2.9810   24.9860 C.3   196  LYS196      0.0206
     75  CE       -23.8390   -1.4980   24.9890 C.3   196  LYS196      0.1093
     76  NZ       -25.2280   -1.2580   24.5020 N.3   196  LYS196     -0.1314
     77  N        -19.8790   -7.0060   26.9940 N.am  197  HIS197     -0.1976
     78  CA       -19.7350   -8.4140   27.3450 C.3   197  HIS197      0.1656
     79  C        -21.0790   -9.0680   27.6580 C.2   197  HIS197      0.2291
     80  O        -21.9510   -8.4560   28.2740 O.2   197  HIS197     -0.2864
     81  CB       -18.7820   -8.5660   28.5360 C.3   197  HIS197      0.0771
     82  CG       -19.1530   -7.7310   29.7220 C.ar  197  HIS197      0.0820
     83  ND1      -20.3080   -7.9330   30.4470 N.ar  197  HIS197     -0.2267
     84  CD2      -18.5160   -6.6920   30.3140 C.ar  197  HIS197      0.1154
     85  CE1      -20.3680   -7.0540   31.4310 C.ar  197  HIS197      0.1986
     86  NE2      -19.2930   -6.2900   31.3730 N.ar  197  HIS197     -0.2212
     87  N        -21.0070   -6.1680   20.4030 N.3   210  ARG210     -0.1231
     88  CA       -22.4190   -6.1920   20.0340 C.3   210  ARG210      0.1694
     89  C        -22.6680   -5.4440   18.7270 C.2   210  ARG210      0.2591
     90  O        -22.0400   -4.4170   18.4610 O.2   210  ARG210     -0.2718
     91  CB       -23.2810   -5.5750   21.1410 C.3   210  ARG210      0.0321
     92  CG       -24.7850   -5.6230   20.8650 C.3   210  ARG210      0.0489
     93  CD       -25.5480   -4.5720   21.6600 C.3   210  ARG210      0.2205
     94  NE       -25.4840   -4.8010   23.1010 N.pl3 210  ARG210     -0.0865
     95  CZ       -26.2360   -5.6780   23.7560 C.cat 210  ARG210      0.5346
     96  NH1      -27.1120   -6.4280   23.1000 N.pl3 210  ARG210      0.1354
     97  NH2      -26.1060   -5.8140   25.0690 N.pl3 210  ARG210      0.1354
     98  N        -23.5910   -5.9620   17.9220 N.am  211  LEU211     -0.1980
     99  CA       -24.0160   -5.2880   16.7020 C.3   211  LEU211      0.1596
    100  C        -24.7970   -4.0240   17.0350 C.2   211  LEU211      0.2287
    101  O        -25.7400   -4.0550   17.8270 O.2   211  LEU211     -0.2864
    102  CB       -24.8740   -6.2150   15.8430 C.3   211  LEU211      0.0297
    103  CG       -24.1640   -7.3820   15.1650 C.3   211  LEU211      0.0022
    104  CD1      -25.1680   -8.2310   14.4060 C.3   211  LEU211      0.0001
    105  CD2      -23.0820   -6.8680   14.2330 C.3   211  LEU211      0.0001
    106  N        -27.5180    2.0070   15.2760 N.3   214  SER214     -0.1217
    107  CA       -28.1080    3.2560   15.7450 C.3   214  SER214      0.1889
    108  C        -28.3720    4.2230   14.5970 C.2   214  SER214      0.2288
    109  O        -29.3760    4.9380   14.5920 O.2   214  SER214     -0.2866
    110  CB       -27.1960    3.9160   16.7810 C.3   214  SER214      0.2089
    111  OG       -26.9980    3.0680   17.8990 O.3   214  SER214     -0.2183
    112  N        -39.3550    4.8100   35.9890 N.3   255  LYS255     -0.1245
    113  CA       -38.0520    4.4490   36.5330 C.3   255  LYS255      0.1561
    114  C        -37.6380    5.4510   37.6050 C.2   255  LYS255      0.2260
    115  O        -36.9380    5.1050   38.5550 O.2   255  LYS255     -0.2867
    116  CB       -36.9950    4.3830   35.4260 C.3   255  LYS255      0.0271
    117  CG       -37.1180    3.1640   34.5180 C.3   255  LYS255      0.0035
    118  CD       -36.1290    3.2170   33.3580 C.3   255  LYS255      0.0206
    119  CE       -34.6890    3.1080   33.8340 C.3   255  LYS255      0.1093
    120  NZ       -34.3880    1.7650   34.4040 N.3   255  LYS255     -0.1314
    121  N        -34.5000   -1.4610   36.7980 N.3   265  ASP265     -0.1225
    122  CA       -33.1280   -1.1300   36.4280 C.3   265  ASP265      0.1805
    123  C        -32.6660   -1.8610   35.1720 C.2   265  ASP265      0.2598
    124  O        -31.7170   -1.4340   34.5160 O.2   265  ASP265     -0.2718
    125  CB       -32.1730   -1.4350   37.5850 C.3   265  ASP265      0.1424
    126  CG       -32.3350   -0.4710   38.7440 C.2   265  ASP265      0.3668
    127  OD1      -32.8410    0.6490   38.5200 O.co2 265  ASP265     -0.2456
    128  OD2      -31.9410   -0.8260   39.8750 O.co2 265  ASP265     -0.2456
    129  N        -33.3350   -2.9570   34.8340 N.am  266  LYS266     -0.1966
    130  CA       -32.9510   -3.7390   33.6630 C.3   266  LYS266      0.1728
    131  C        -33.7620   -3.3600   32.4260 C.2   266  LYS266      0.2616
    132  O        -33.7650   -4.0830   31.4300 O.2   266  LYS266     -0.2715
    133  CB       -33.0900   -5.2340   33.9480 C.3   266  LYS266      0.0311
    134  CG       -31.8270   -5.8580   34.5180 C.3   266  LYS266      0.0038
    135  CD       -31.9430   -7.3680   34.6130 C.3   266  LYS266      0.0206
    136  CE       -30.6510   -7.9840   35.1260 C.3   266  LYS266      0.1093
    137  NZ       -30.7300   -9.4700   35.1780 N.3   266  LYS266     -0.1314
    138  N        -34.4470   -2.2230   32.4920 N.am  267  PHE267     -0.1960
    139  CA       -35.2150   -1.7290   31.3570 C.3   267  PHE267      0.1771
    140  C        -34.6050   -0.4440   30.8100 C.2   267  PHE267      0.2620
    141  O        -34.3600    0.5040   31.5560 O.2   267  PHE267     -0.2715
    142  CB       -36.6740   -1.4890   31.7520 C.3   267  PHE267      0.0574
    143  CG       -37.4180   -2.7410   32.1060 C.ar  267  PHE267     -0.0200
    144  CD1      -37.8090   -3.6320   31.1210 C.ar  267  PHE267     -0.0042
    145  CD2      -37.7310   -3.0260   33.4230 C.ar  267  PHE267     -0.0042
    146  CE1      -38.4960   -4.7860   31.4440 C.ar  267  PHE267     -0.0003
    147  CE2      -38.4180   -4.1790   33.7540 C.ar  267  PHE267     -0.0003
    148  CZ       -38.8020   -5.0610   32.7620 C.ar  267  PHE267     -0.0000
    149  N        -34.3530   -0.4240   29.5060 N.am  268  SER268     -0.1950
    150  CA       -33.7780    0.7460   28.8540 C.3   268  SER268      0.1924
    151  C        -34.7570    1.3450   27.8600 C.2   268  SER268      0.2314
    152  O        -35.7720    0.7350   27.5320 O.2   268  SER268     -0.2863
    153  CB       -32.4730    0.3820   28.1430 C.3   268  SER268      0.2116
    154  OG       -31.9200    1.5070   27.4800 O.3   268  SER268     -0.2180
    155  N        -34.1890    1.6020   24.8810 N.3   270  TYR270     -0.1227
    156  CA       -34.0420    0.8550   23.6410 C.3   270  TYR270      0.1736
    157  C        -35.1400   -0.1960   23.4820 C.2   270  TYR270      0.2595
    158  O        -35.5220   -0.5270   22.3650 O.2   270  TYR270     -0.2718
    159  CB       -32.6650    0.1940   23.5510 C.3   270  TYR270      0.0548
    160  CG       -32.4420   -0.4900   22.2190 C.ar  270  TYR270     -0.0200
    161  CD1      -32.1030    0.2440   21.0900 C.ar  270  TYR270     -0.0009
    162  CD2      -32.5770   -1.8670   22.0870 C.ar  270  TYR270     -0.0009
    163  CE1      -31.9070   -0.3710   19.8690 C.ar  270  TYR270      0.0417
    164  CE2      -32.3790   -2.4920   20.8680 C.ar  270  TYR270      0.0417
    165  CZ       -32.0450   -1.7390   19.7630 C.ar  270  TYR270      0.1957
    166  OH       -31.8470   -2.3560   18.5470 O.3   270  TYR270     -0.2866
    167  N        -35.6370   -0.7250   24.5950 N.am  271  HIS271     -0.1975
    168  CA       -36.7650   -1.6520   24.5620 C.3   271  HIS271      0.1656
    169  C        -38.0070   -0.9360   24.0430 C.2   271  HIS271      0.2291
    170  O        -38.7990   -1.4890   23.2690 O.2   271  HIS271     -0.2864
    171  CB       -37.0260   -2.2250   25.9510 C.3   271  HIS271      0.0771
    172  CG       -35.8570   -2.9580   26.5290 C.ar  271  HIS271      0.0820
    173  ND1      -35.4020   -2.7400   27.8110 N.ar  271  HIS271     -0.2267
    174  CD2      -35.0580   -3.9160   26.0040 C.ar  271  HIS271      0.1154
    175  CE1      -34.3670   -3.5250   28.0480 C.ar  271  HIS271      0.1986
    176  NE2      -34.1390   -4.2510   26.9690 N.ar  271  HIS271     -0.2212
    177  N        -35.0940   -8.2230   18.8730 N.3   316  ASN316     -0.1240
    178  CA       -34.2890   -7.1120   18.3880 C.3   316  ASN316      0.1653
    179  C        -34.7590   -6.7920   16.9730 C.2   316  ASN316      0.2266
    180  O        -34.9200   -7.6930   16.1500 O.2   316  ASN316     -0.2867
    181  CB       -32.7980   -7.4670   18.4180 C.3   316  ASN316      0.1155
    182  CG       -31.9110   -6.3290   17.9520 C.2   316  ASN316      0.2627
    183  OD1      -31.6670   -6.1670   16.7580 O.2   316  ASN316     -0.2716
    184  ND2      -31.4120   -5.5440   18.8980 N.am  316  ASN316     -0.0877
    185  N        -32.4480  -12.6290   18.4280 N.3   322  PHE322     -0.1241
    186  CA       -32.0310  -12.0640   19.7100 C.3   322  PHE322      0.1605
    187  C        -33.2170  -11.4740   20.4700 C.2   322  PHE322      0.2264
    188  O        -33.8230  -10.4970   20.0330 O.2   322  PHE322     -0.2867
    189  CB       -30.9480  -11.0020   19.5020 C.3   322  PHE322      0.0534
    190  CG       -30.4510  -10.3830   20.7780 C.ar  322  PHE322     -0.0203
    191  CD1      -29.8780  -11.1670   21.7660 C.ar  322  PHE322     -0.0042
    192  CD2      -30.5320   -9.0150   20.9800 C.ar  322  PHE322     -0.0042
    193  CE1      -29.4150  -10.6020   22.9390 C.ar  322  PHE322     -0.0003
    194  CE2      -30.0670   -8.4420   22.1500 C.ar  322  PHE322     -0.0003
    195  CZ       -29.5080   -9.2370   23.1310 C.ar  322  PHE322     -0.0000
    196  N        -34.8570   -9.5630   23.6420 N.3   324  LEU324     -0.1245
    197  CA       -34.4810   -8.5780   24.6500 C.3   324  LEU324      0.1561
    198  C        -35.1550   -8.8450   25.9930 C.2   324  LEU324      0.2260
    199  O        -34.6560   -8.4280   27.0390 O.2   324  LEU324     -0.2867
    200  CB       -34.8260   -7.1680   24.1680 C.3   324  LEU324      0.0270
    201  CG       -34.1270   -6.6930   22.8930 C.3   324  LEU324      0.0019
    202  CD1      -34.8610   -5.5050   22.3000 C.3   324  LEU324      0.0001
    203  CD2      -32.6810   -6.3320   23.1790 C.3   324  LEU324      0.0001
@<TRIPOS>BOND
     1   105   103    1
     2   104   103    1
     3   109   108    2
     4   108   107    1
     5   103   102    1
     6   106   107    1
     7   107   110    1
     8   102    99    1
     9   180   179    2
    10    99   100    1
    11    99    98    1
    12   183   182    2
    13   110   111    1
    14   179   178    1
    15   100   101    2
    16    98    89   am
    17   182   181    1
    18   182   184   am
    19   178   181    1
    20   178   177    1
    21   185   186    1
    22    90    89    2
    23   166   165    1
    24    89    88    1
    25    61    62    1
    26   189   186    1
    27   189   190    1
    28   186   187    1
    29   165   163   ar
    30   165   164   ar
    31   163   161   ar
    32   188   187    2
    33    88    87    1
    34    88    91    1
    35    66    65    1
    36    62    65    1
    37    62    63    1
    38   190   192   ar
    39   190   191   ar
    40    92    91    1
    41    92    93    1
    42   164   162   ar
    43    67    65    1
    44   192   194   ar
    45   161   160   ar
    46    57    56    2
    47    63    64    2
    48    93    94    1
    49   191   193   ar
    50     4     3    2
    51    56    55    1
    52   162   160   ar
    53   194   195   ar
    54   160   159    1
    55   202   201    1
    56   158   157    2
    57     3     2    1
    58   201   203    1
    59   201   200    1
    60   193   195   ar
    61    60    58    1
    62    96    95    1
    63    94    95    2
    64    58    55    1
    65    58    59    1
    66   170   169    2
    67    55    54    1
    68   157   156    1
    69   157   167   am
    70   159   156    1
    71     8     6   ar
    72   156   155    1
    73   196   197    1
    74    95    97    1
    75     6     5    1
    76     6     7   ar
    77   169   168    1
    78   200   197    1
    79     2     5    1
    80     2     1    1
    81    68    69    1
    82    76    75    1
    83   168   167    1
    84   168   171    1
    85   197   198    1
    86    71    70    2
    87    74    75    1
    88    74    73    1
    89    72    73    1
    90    72    69    1
    91    49    48    2
    92    69    70    1
    93    70    77   am
    94   171   172    1
    95   198   199    2
    96   174   172   ar
    97   174   176   ar
    98    48    47    1
    99   172   173   ar
   100   176   175   ar
   101    77    78    1
   102    39    38    1
   103    39    40    1
   104    38    35    1
   105    78    79    1
   106    78    81    1
   107   154   153    1
   108   152   151    2
   109    37    36    2
   110    79    80    2
   111    47    46    1
   112    47    50    1
   113   173   175   ar
   114   151   150    1
   115    50    51    1
   116    36    35    1
   117    36    41   am
   118   153   150    1
   119    42    45    1
   120    42    41    1
   121    42    43    1
   122    35    34    1
   123    40    34    1
   124    81    82    1
   125   150   149    1
   126    43    44    2
   127    51    52   ar
   128    51    53   ar
   129    34    30   am
   130   149   140   am
   131    82    84   ar
   132    82    83   ar
   133    84    86   ar
   134    83    85   ar
   135    30    31    2
   136    30    29    1
   137    27    26    2
   138   140   139    1
   139   140   141    2
   140   144   146   ar
   141   144   143   ar
   142    33    32    1
   143   139   142    1
   144   139   138    1
   145    86    85   ar
   146    29    32    1
   147    29    28    1
   148   132   131    2
   149   146   148   ar
   150   142   143    1
   151    26    28   am
   152    26    25    1
   153   143   145   ar
   154   131   138   am
   155   131   130    1
   156   148   147   ar
   157    25    24    1
   158   118   119    1
   159   118   117    1
   160   145   147   ar
   161   130   133    1
   162   130   129    1
   163   119   120    1
   164   133   134    1
   165    24    22   am
   166   124   123    2
   167   117   116    1
   168   134   135    1
   169   135   136    1
   170   129   123   am
   171    22    23    2
   172    22    21    1
   173   136   137    1
   174   123   122    1
   175   116   113    1
   176   112   113    1
   177    21    20    1
   178    20    11   am
   179     9    10    1
   180   122   121    1
   181   122   125    1
   182   113   114    1
   183    13    10    1
   184    13    14    1
   185    11    10    1
   186    11    12    2
   187    14    15    1
   188   125   126    1
   189   114   115    2
   190    18    17    1
   191   127   126   ar
   192   126   128   ar
   193    17    19    1
   194    17    16    2
   195    15    16    1
