@<TRIPOS>MOLECULE
tmp/5vdqA00.pdb
 238 227 0 0 0
SMALL
GASTEIGER

@<TRIPOS>ATOM
      1  N        -32.3270  -20.5310  -21.7780 N.3    57  GLU57      -0.1231
      2  CA       -31.8670  -19.4190  -22.6040 C.3    57  GLU57       0.1699
      3  C        -32.4880  -19.4640  -23.9990 C.2    57  GLU57       0.2592
      4  O        -32.8660  -18.4300  -24.5500 O.2    57  GLU57      -0.2718
      5  CB       -30.3380  -19.4260  -22.7110 C.3    57  GLU57       0.0402
      6  CG       -29.6050  -19.3350  -21.3780 C.3    57  GLU57       0.1161
      7  CD       -29.6890  -17.9570  -20.7440 C.2    57  GLU57       0.3649
      8  OE1      -30.0140  -16.9860  -21.4590 O.co2  57  GLU57      -0.2457
      9  OE2      -29.4290  -17.8450  -19.5280 O.co2  57  GLU57      -0.2457
     10  N        -32.5900  -20.6620  -24.5640 N.am   58  HIS58      -0.1976
     11  CA       -33.1260  -20.8230  -25.9120 C.3    58  HIS58       0.1656
     12  C        -34.1720  -21.9310  -25.9710 C.2    58  HIS58       0.2291
     13  O        -33.9000  -23.0750  -25.6070 O.2    58  HIS58      -0.2864
     14  CB       -31.9960  -21.1130  -26.9020 C.3    58  HIS58       0.0771
     15  CG       -30.8610  -20.1430  -26.8190 C.ar   58  HIS58       0.0820
     16  ND1      -29.8600  -20.2470  -25.8740 N.ar   58  HIS58      -0.2267
     17  CD2      -30.5670  -19.0440  -27.5530 C.ar   58  HIS58       0.1154
     18  CE1      -29.0010  -19.2590  -26.0340 C.ar   58  HIS58       0.1986
     19  NE2      -29.4060  -18.5130  -27.0480 N.ar   58  HIS58      -0.2212
     20  N        -25.4080  -20.0940  -23.9150 N.3    65  ASP65      -0.1239
     21  CA       -24.9030  -18.7940  -23.4980 C.3    65  ASP65       0.1674
     22  C        -24.1340  -18.9030  -22.1840 C.2    65  ASP65       0.2266
     23  O        -24.7270  -19.0020  -21.1080 O.2    65  ASP65      -0.2867
     24  CB       -26.0580  -17.7980  -23.3620 C.3    65  ASP65       0.1410
     25  CG       -25.5850  -16.3900  -23.0760 C.2    65  ASP65       0.3668
     26  OD1      -25.4120  -16.0490  -21.8860 O.co2  65  ASP65      -0.2456
     27  OD2      -25.3820  -15.6220  -24.0400 O.co2  65  ASP65      -0.2456
     28  N        -19.0740  -10.0330  -34.9900 N.3   140  ARG140     -0.1231
     29  CA       -20.3520   -9.3330  -35.0450 C.3   140  ARG140      0.1694
     30  C        -20.1730   -7.8480  -34.7500 C.2   140  ARG140      0.2592
     31  O        -19.2240   -7.4490  -34.0760 O.2   140  ARG140     -0.2718
     32  CB       -21.3470   -9.9500  -34.0610 C.3   140  ARG140      0.0321
     33  CG       -21.9260  -11.2590  -34.6070 C.3   140  ARG140      0.0489
     34  CD       -22.9530  -11.8040  -33.6120 C.3   140  ARG140      0.2205
     35  NE       -23.7040  -12.9410  -34.2090 N.pl3 140  ARG140     -0.0865
     36  CZ       -23.2710  -14.1860  -34.0570 C.cat 140  ARG140      0.5346
     37  NH1      -22.1590  -14.5160  -33.4360 N.pl3 140  ARG140      0.1354
     38  NH2      -23.9750  -15.1730  -34.6290 N.pl3 140  ARG140      0.1354
     39  N        -21.0950   -7.0350  -35.2540 N.am  141  GLY141     -0.1957
     40  CA       -21.0230   -5.5980  -35.0700 C.3   141  GLY141      0.1869
     41  C        -21.5100   -5.1270  -33.7150 C.2   141  GLY141      0.2309
     42  O        -22.7030   -5.1970  -33.4160 O.2   141  GLY141     -0.2863
     43  N        -21.0160   -6.4090  -30.8340 N.3   143  SER143     -0.1203
     44  CA       -21.3390   -7.4880  -29.9070 C.3   143  SER143      0.2005
     45  C        -20.1190   -7.8890  -29.0820 C.2   143  SER143      0.2461
     46  O        -19.0330   -8.0880  -29.6270 O.2   143  SER143     -0.2732
     47  CB       -21.8860   -8.7000  -30.6640 C.3   143  SER143      0.2103
     48  OG       -22.1870   -9.7630  -29.7760 O.3   143  SER143     -0.2182
     49  N        -20.2990   -8.0050  -27.7570 N.am  144  PRO144     -0.2717
     50  CA       -19.2290   -8.3870  -26.8300 C.3   144  PRO144      0.1535
     51  C        -18.9930   -9.8940  -26.7920 C.2   144  PRO144      0.2598
     52  O        -18.0370  -10.3570  -26.1690 O.2   144  PRO144     -0.2715
     53  CB       -19.7500   -7.8890  -25.4840 C.3   144  PRO144      0.0310
     54  CG       -21.2230   -8.0060  -25.6080 C.3   144  PRO144      0.0237
     55  CD       -21.5550   -7.7040  -27.0480 C.3   144  PRO144      0.0939
     56  N        -19.8640  -10.6450  -27.4570 N.am  145  ALA145     -0.1978
     57  CA       -19.8040  -12.1010  -27.4270 C.3   145  ALA145      0.1597
     58  C        -18.8750  -12.6760  -28.4960 C.2   145  ALA145      0.2287
     59  O        -18.7700  -12.1500  -29.6040 O.2   145  ALA145     -0.2864
     60  CB       -21.2030  -12.6840  -27.5810 C.3   145  ALA145      0.0319
     61  N        -22.2050  -18.8140  -27.2690 N.3   157  ASP157     -0.1239
     62  CA       -21.7390  -17.4370  -27.1410 C.3   157  ASP157      0.1674
     63  C        -20.9550  -17.2460  -25.8460 C.2   157  ASP157      0.2266
     64  O        -21.4780  -17.4550  -24.7550 O.2   157  ASP157     -0.2867
     65  CB       -22.9160  -16.4640  -27.1990 C.3   157  ASP157      0.1410
     66  CG       -23.6660  -16.5360  -28.5150 C.2   157  ASP157      0.3668
     67  OD1      -24.5760  -17.3850  -28.6420 O.co2 157  ASP157     -0.2456
     68  OD2      -23.3490  -15.7380  -29.4210 O.co2 157  ASP157     -0.2456
     69  N        -19.0450  -14.6550  -23.4760 N.3   159  THR159     -0.1218
     70  CA       -18.8770  -13.2370  -23.1870 C.3   159  THR159      0.1862
     71  C        -18.0110  -13.0100  -21.9550 C.2   159  THR159      0.2287
     72  O        -18.3140  -13.5090  -20.8730 O.2   159  THR159     -0.2866
     73  CB       -20.2290  -12.5450  -22.9740 C.3   159  THR159      0.1770
     74  OG1      -21.0330  -12.6870  -24.1530 O.3   159  THR159     -0.2211
     75  CG2      -20.0250  -11.0700  -22.6840 C.3   159  THR159      0.0375
     76  N        -19.5410   -5.9280  -19.3800 N.3   198  VAL198     -0.1245
     77  CA       -19.2220   -6.5770  -20.6470 C.3   198  VAL198      0.1561
     78  C        -18.6890   -5.5650  -21.6600 C.2   198  VAL198      0.2260
     79  O        -19.1180   -4.4090  -21.6770 O.2   198  VAL198     -0.2867
     80  CB       -20.4460   -7.3190  -21.1990 C.3   198  VAL198      0.0252
     81  CG1      -20.7880   -8.4860  -20.2980 C.3   198  VAL198      0.0019
     82  CG2      -21.6260   -6.3730  -21.3120 C.3   198  VAL198      0.0019
     83  N        -18.9500   -3.7120  -24.2330 N.3   200  LYS200     -0.1245
     84  CA       -19.9270   -3.1630  -25.1540 C.3   200  LYS200      0.1561
     85  C        -19.7130   -1.6560  -25.2700 C.2   200  LYS200      0.2260
     86  O        -19.7790   -0.9360  -24.2760 O.2   200  LYS200     -0.2867
     87  CB       -21.3440   -3.4910  -24.6730 C.3   200  LYS200      0.0271
     88  CG       -22.4580   -2.7980  -25.4340 C.3   200  LYS200      0.0035
     89  CD       -22.6680   -3.4100  -26.7990 C.3   200  LYS200      0.0206
     90  CE       -23.7590   -2.6740  -27.5570 C.3   200  LYS200      0.1093
     91  NZ       -23.9770   -3.2310  -28.9190 N.3   200  LYS200     -0.1314
     92  N        -20.2870   -2.1090  -20.3730 N.3   214  ARG214     -0.1231
     93  CA       -21.6920   -1.9820  -20.0150 C.3   214  ARG214      0.1694
     94  C        -22.0120   -2.8250  -18.7810 C.2   214  ARG214      0.2592
     95  O        -21.3750   -3.8500  -18.5400 O.2   214  ARG214     -0.2718
     96  CB       -22.5930   -2.3860  -21.1850 C.3   214  ARG214      0.0321
     97  CG       -24.0600   -2.0540  -20.9560 C.3   214  ARG214      0.0489
     98  CD       -24.9530   -3.2680  -21.1170 C.3   214  ARG214      0.2205
     99  NE       -24.9720   -3.7590  -22.4890 N.pl3 214  ARG214     -0.0865
    100  CZ       -24.9370   -5.0430  -22.8230 C.cat 214  ARG214      0.5346
    101  NH1      -24.8700   -5.9790  -21.8820 N.pl3 214  ARG214      0.1354
    102  NH2      -24.9630   -5.3910  -24.1030 N.pl3 214  ARG214      0.1354
    103  N        -22.9800   -2.3670  -17.9910 N.am  215  LEU215     -0.1966
    104  CA       -23.4350   -3.1050  -16.8180 C.3   215  LEU215      0.1728
    105  C        -24.1860   -4.3730  -17.2080 C.2   215  LEU215      0.2617
    106  O        -24.9630   -4.3870  -18.1620 O.2   215  LEU215     -0.2715
    107  CB       -24.3310   -2.2280  -15.9450 C.3   215  LEU215      0.0311
    108  CG       -23.6420   -1.1210  -15.1570 C.3   215  LEU215      0.0022
    109  CD1      -24.6590   -0.3740  -14.3170 C.3   215  LEU215      0.0001
    110  CD2      -22.5650   -1.7250  -14.2840 C.3   215  LEU215      0.0001
    111  N        -23.9500   -5.4380  -16.4560 N.am  216  SER216     -0.1936
    112  CA       -24.6460   -6.6930  -16.6770 C.3   216  SER216      0.2055
    113  C        -25.0640   -7.2910  -15.3370 C.2   216  SER216      0.2643
    114  O        -24.2700   -7.3330  -14.3800 O.2   216  SER216     -0.2714
    115  CB       -23.7690   -7.6700  -17.4640 C.3   216  SER216      0.2130
    116  OG       -24.4670   -8.8690  -17.7570 O.3   216  SER216     -0.2179
    117  N        -26.3210   -7.7270  -15.2810 N.am  217  PHE217     -0.1959
    118  CA       -26.9100   -8.3180  -14.0840 C.3   217  PHE217      0.1771
    119  C        -27.5780   -9.6590  -14.3980 C.2   217  PHE217      0.2620
    120  O        -28.5920  -10.0030  -13.7950 O.2   217  PHE217     -0.2715
    121  CB       -27.9500   -7.3770  -13.4650 C.3   217  PHE217      0.0574
    122  CG       -27.4120   -6.0260  -13.0840 C.ar  217  PHE217     -0.0200
    123  CD1      -26.8230   -5.8250  -11.8480 C.ar  217  PHE217     -0.0042
    124  CD2      -27.5140   -4.9550  -13.9530 C.ar  217  PHE217     -0.0042
    125  CE1      -26.3360   -4.5860  -11.4910 C.ar  217  PHE217     -0.0003
    126  CE2      -27.0280   -3.7120  -13.5990 C.ar  217  PHE217     -0.0003
    127  CZ       -26.4400   -3.5280  -12.3680 C.ar  217  PHE217     -0.0000
    128  N        -26.9960  -10.4130  -15.3270 N.am  218  SER218     -0.1950
    129  CA       -27.5730  -11.6760  -15.7860 C.3   218  SER218      0.1924
    130  C        -27.8030  -12.6580  -14.6420 C.2   218  SER218      0.2314
    131  O        -28.7840  -13.4040  -14.6390 O.2   218  SER218     -0.2863
    132  CB       -26.6720  -12.3170  -16.8450 C.3   218  SER218      0.2116
    133  OG       -26.5470  -11.4780  -17.9790 O.3   218  SER218     -0.2180
    134  N        -30.8740  -11.6730  -12.8040 N.3   221  GLU221     -0.1245
    135  CA       -32.0170  -12.0450  -13.6250 C.3   221  GLU221      0.1567
    136  C        -32.3390  -13.5220  -13.4630 C.2   221  GLU221      0.2260
    137  O        -33.5050  -13.9030  -13.3130 O.2   221  GLU221     -0.2867
    138  CB       -31.7480  -11.7290  -15.0920 C.3   221  GLU221      0.0388
    139  CG       -31.4260  -10.2750  -15.3490 C.3   221  GLU221      0.1160
    140  CD       -31.0970  -10.0080  -16.7980 C.2   221  GLU221      0.3649
    141  OE1      -31.3250  -10.9090  -17.6340 O.co2 221  GLU221     -0.2457
    142  OE2      -30.5920   -8.9050  -17.0960 O.co2 221  GLU221     -0.2457
    143  N        -40.8040  -15.1260  -25.6840 N.3   252  LYS252     -0.1245
    144  CA       -39.5210  -15.3650  -26.3330 C.3   252  LYS252      0.1561
    145  C        -39.6990  -16.1270  -27.6360 C.2   252  LYS252      0.2260
    146  O        -39.1160  -15.7650  -28.6520 O.2   252  LYS252     -0.2867
    147  CB       -38.5850  -16.1400  -25.4070 C.3   252  LYS252      0.0271
    148  CG       -38.1040  -15.3540  -24.2030 C.3   252  LYS252      0.0035
    149  CD       -37.2280  -16.2150  -23.3130 C.3   252  LYS252      0.0206
    150  CE       -35.8940  -16.5040  -23.9810 C.3   252  LYS252      0.1093
    151  NZ       -35.0300  -17.3710  -23.1350 N.3   252  LYS252     -0.1314
    152  N        -34.0420   -7.4240  -36.7220 N.3   269  ASP269     -0.1225
    153  CA       -32.7010   -7.8340  -36.3260 C.3   269  ASP269      0.1805
    154  C        -32.2520   -7.1530  -35.0410 C.2   269  ASP269      0.2597
    155  O        -31.4880   -7.7250  -34.2650 O.2   269  ASP269     -0.2718
    156  CB       -31.7020   -7.5430  -37.4450 C.3   269  ASP269      0.1424
    157  CG       -31.7170   -8.6030  -38.5270 C.2   269  ASP269      0.3668
    158  OD1      -32.6420   -8.5910  -39.3650 O.co2 269  ASP269     -0.2456
    159  OD2      -30.8010   -9.4510  -38.5400 O.co2 269  ASP269     -0.2456
    160  N        -32.7400   -5.9410  -34.8070 N.am  270  LYS270     -0.1979
    161  CA       -32.3070   -5.1640  -33.6490 C.3   270  LYS270      0.1596
    162  C        -33.0310   -5.5810  -32.3740 C.2   270  LYS270      0.2287
    163  O        -32.5880   -5.2690  -31.2700 O.2   270  LYS270     -0.2864
    164  CB       -32.5130   -3.6710  -33.9010 C.3   270  LYS270      0.0298
    165  CG       -31.5370   -3.0770  -34.9030 C.3   270  LYS270      0.0038
    166  CD       -31.5980   -1.5600  -34.9170 C.3   270  LYS270      0.0206
    167  CE       -30.5870   -0.9820  -35.8930 C.3   270  LYS270      0.1093
    168  NZ       -30.5730    0.5070  -35.8670 N.3   270  LYS270     -0.1314
    169  N        -34.2460   -8.1690  -29.5260 N.3   272  SER272     -0.1202
    170  CA       -33.6580   -9.3380  -28.9030 C.3   272  SER272      0.2020
    171  C        -34.5260   -9.8480  -27.7660 C.2   272  SER272      0.2619
    172  O        -35.4700   -9.1800  -27.3380 O.2   272  SER272     -0.2717
    173  CB       -32.2580   -9.0140  -28.3890 C.3   272  SER272      0.2103
    174  OG       -32.3160   -8.1200  -27.2920 O.3   272  SER272     -0.2182
    175  N        -34.1930  -11.0350  -27.2750 N.am  273  SER273     -0.1937
    176  CA       -34.9630  -11.6560  -26.2110 C.3   273  SER273      0.2055
    177  C        -34.8720  -10.8490  -24.9220 C.2   273  SER273      0.2643
    178  O        -35.6840  -11.0260  -24.0200 O.2   273  SER273     -0.2714
    179  CB       -34.4800  -13.0830  -25.9660 C.3   273  SER273      0.2130
    180  OG       -33.1240  -13.0850  -25.5610 O.3   273  SER273     -0.2179
    181  N        -33.8840   -9.9650  -24.8310 N.am  274  TYR274     -0.1959
    182  CA       -33.7160   -9.1710  -23.6230 C.3   274  TYR274      0.1771
    183  C        -34.8070   -8.1150  -23.4990 C.2   274  TYR274      0.2619
    184  O        -35.2170   -7.7730  -22.3940 O.2   274  TYR274     -0.2715
    185  CB       -32.3390   -8.5140  -23.5830 C.3   274  TYR274      0.0574
    186  CG       -32.0490   -7.8360  -22.2640 C.ar  274  TYR274     -0.0198
    187  CD1      -31.6830   -8.5770  -21.1460 C.ar  274  TYR274     -0.0009
    188  CD2      -32.1320   -6.4550  -22.1350 C.ar  274  TYR274     -0.0009
    189  CE1      -31.4190   -7.9640  -19.9370 C.ar  274  TYR274      0.0417
    190  CE2      -31.8640   -5.8310  -20.9280 C.ar  274  TYR274      0.0417
    191  CZ       -31.5080   -6.5910  -19.8340 C.ar  274  TYR274      0.1957
    192  OH       -31.2430   -5.9750  -18.6320 O.3   274  TYR274     -0.2866
    193  N        -35.2840   -7.6080  -24.6310 N.am  275  HIS275     -0.1973
    194  CA       -36.3930   -6.6560  -24.6320 C.3   275  HIS275      0.1656
    195  C        -37.6380   -7.3290  -24.0730 C.2   275  HIS275      0.2291
    196  O        -38.3620   -6.7680  -23.2360 O.2   275  HIS275     -0.2864
    197  CB       -36.6430   -6.1310  -26.0480 C.3   275  HIS275      0.0771
    198  CG       -35.4470   -5.4680  -26.6610 C.ar  275  HIS275      0.0820
    199  ND1      -35.1350   -5.5760  -27.9990 N.ar  275  HIS275     -0.2267
    200  CD2      -34.4830   -4.6910  -26.1130 C.ar  275  HIS275      0.1154
    201  CE1      -34.0300   -4.8960  -28.2480 C.ar  275  HIS275      0.1986
    202  NE2      -33.6150   -4.3480  -27.1210 N.ar  275  HIS275     -0.2212
    203  N        -37.6270  -10.0850  -22.1260 N.3   277  LYS277     -0.1245
    204  CA       -37.3440  -10.4060  -20.7260 C.3   277  LYS277      0.1561
    205  C        -37.6000   -9.2020  -19.8140 C.2   277  LYS277      0.2260
    206  O        -38.2040   -9.3240  -18.7410 O.2   277  LYS277     -0.2867
    207  CB       -35.8920  -10.8840  -20.5950 C.3   277  LYS277      0.0271
    208  CG       -35.5370  -11.5590  -19.2790 C.3   277  LYS277      0.0035
    209  CD       -34.0560  -11.9460  -19.2470 C.3   277  LYS277      0.0206
    210  CE       -33.8030  -13.1670  -18.3670 C.3   277  LYS277      0.1093
    211  NZ       -32.3720  -13.5960  -18.3750 N.3   277  LYS277     -0.1314
    212  N        -34.5960   -0.1180  -18.8870 N.3   320  ASN320     -0.1240
    213  CA       -33.8190   -1.2320  -18.3560 C.3   320  ASN320      0.1653
    214  C        -34.2750   -1.5070  -16.9250 C.2   320  ASN320      0.2266
    215  O        -34.3910   -0.5870  -16.1160 O.2   320  ASN320     -0.2867
    216  CB       -32.3200   -0.9220  -18.4140 C.3   320  ASN320      0.1155
    217  CG       -31.4590   -2.0860  -17.9600 C.2   320  ASN320      0.2627
    218  OD1      -31.2880   -2.3190  -16.7640 O.2   320  ASN320     -0.2716
    219  ND2      -30.9000   -2.8140  -18.9170 N.am  320  ASN320     -0.0877
    220  N        -32.1940    4.1470  -18.5500 N.3   326  PHE326     -0.1241
    221  CA       -31.6770    3.5890  -19.7890 C.3   326  PHE326      0.1605
    222  C        -32.8190    2.9880  -20.6020 C.2   326  PHE326      0.2264
    223  O        -33.3490    1.9320  -20.2610 O.2   326  PHE326     -0.2867
    224  CB       -30.6080    2.5360  -19.4950 C.3   326  PHE326      0.0534
    225  CG       -29.9410    1.9870  -20.7220 C.ar  326  PHE326     -0.0203
    226  CD1      -29.4120    2.8370  -21.6780 C.ar  326  PHE326     -0.0042
    227  CD2      -29.8370    0.6180  -20.9150 C.ar  326  PHE326     -0.0042
    228  CE1      -28.7960    2.3330  -22.8070 C.ar  326  PHE326     -0.0003
    229  CE2      -29.2210    0.1070  -22.0400 C.ar  326  PHE326     -0.0003
    230  CZ       -28.7000    0.9650  -22.9880 C.ar  326  PHE326     -0.0000
    231  N        -34.3610    1.0950  -23.6590 N.3   328  LEU328     -0.1245
    232  CA       -33.9610    0.1260  -24.6700 C.3   328  LEU328      0.1561
    233  C        -34.6150    0.4090  -26.0190 C.2   328  LEU328      0.2260
    234  O        -34.0750    0.0420  -27.0620 O.2   328  LEU328     -0.2867
    235  CB       -34.2930   -1.3020  -24.2210 C.3   328  LEU328      0.0270
    236  CG       -33.6880   -1.7770  -22.8960 C.3   328  LEU328      0.0019
    237  CD1      -34.0690   -3.2230  -22.6340 C.3   328  LEU328      0.0001
    238  CD2      -32.1800   -1.6010  -22.8730 C.3   328  LEU328      0.0001
@<TRIPOS>BOND
     1   158   157   ar
     2   159   157   ar
     3   157   156    1
     4   156   153    1
     5   152   153    1
     6   153   154    1
     7   167   168    1
     8   167   166    1
     9    39    40    1
    10    39    30   am
    11    40    41    1
    12    29    28    1
    13    29    30    1
    14    29    32    1
    15   154   160   am
    16   154   155    2
    17   166   165    1
    18   165   164    1
    19   160   161    1
    20    30    31    2
    21    38    36    1
    22    33    32    1
    23    33    34    1
    24    35    36    2
    25    35    34    1
    26    36    37    1
    27   164   161    1
    28    41    42    2
    29   161   162    1
    30   162   163    2
    31    43    44    1
    32    47    44    1
    33    47    48    1
    34    44    45    1
    35    46    45    2
    36    59    58    2
    37   169   170    1
    38    68    66   ar
    39    45    49   am
    40    91    90    1
    41   170   173    1
    42   170   171    1
    43   146   145    2
    44    67    66   ar
    45    66    65    1
    46    58    57    1
    47   173   174    1
    48   201   199   ar
    49   201   202   ar
    50   199   198   ar
    51   171   172    2
    52   171   175   am
    53    49    55    1
    54    49    50    1
    55   145   144    1
    56    60    57    1
    57    90    89    1
    58    17    19   ar
    59    17    15   ar
    60    56    57    1
    61    56    51   am
    62   175   176    1
    63    61    62    1
    64    65    62    1
    65    62    63    1
    66   202   200   ar
    67   234   233    2
    68    55    54    1
    69    19    18   ar
    70    14    15    1
    71    14    11    1
    72    50    51    1
    73    50    53    1
    74    15    16   ar
    75    89    88    1
    76    51    52    2
    77   198   200   ar
    78   198   197    1
    79   144   143    1
    80   144   147    1
    81   176   179    1
    82   176   177    1
    83   197   194    1
    84    18    16   ar
    85   233   232    1
    86    12    11    1
    87    12    13    2
    88   179   180    1
    89    11    10    1
    90    63    64    2
    91    54    53    1
    92    88    87    1
    93   147   148    1
    94    85    84    1
    95    85    86    2
    96    84    87    1
    97    84    83    1
    98   177   181   am
    99   177   178    2
   100   181   182    1
   101   232   235    1
   102   232   231    1
   103   194   193    1
   104   194   195    1
   105   193   183   am
   106    10     3   am
   107     4     3    2
   108   235   236    1
   109   148   149    1
   110    74    73    1
   111   102   100    1
   112   195   196    2
   113    27    25   ar
   114     3     2    1
   115   150   149    1
   116   150   151    1
   117    20    21    1
   118   182   185    1
   119   182   183    1
   120   185   186    1
   121   183   184    2
   122    21    24    1
   123    21    22    1
   124    69    70    1
   125    24    25    1
   126    70    73    1
   127    70    71    1
   128    25    26   ar
   129   230   228   ar
   130   230   229   ar
   131    73    75    1
   132   236   238    1
   133   236   237    1
   134   100    99    2
   135   100   101    1
   136   228   226   ar
   137     5     2    1
   138     5     6    1
   139     2     1    1
   140    99    98    1
   141   186   188   ar
   142   186   187   ar
   143    22    23    2
   144   188   190   ar
   145   203   204    1
   146   229   227   ar
   147    71    72    2
   148   226   225   ar
   149    79    78    2
   150    78    77    1
   151     8     7   ar
   152     6     7    1
   153    82    80    1
   154    80    77    1
   155    80    81    1
   156    96    97    1
   157    96    93    1
   158   187   189   ar
   159    98    97    1
   160   190   191   ar
   161   227   225   ar
   162     7     9   ar
   163   204   207    1
   164   204   205    1
   165   225   224    1
   166    77    76    1
   167   222   223    2
   168   222   221    1
   169   207   208    1
   170    92    93    1
   171    93    94    1
   172   189   191   ar
   173   191   192    1
   174   205   206    2
   175   221   224    1
   176   221   220    1
   177   208   209    1
   178   209   210    1
   179   219   217   am
   180   212   213    1
   181    94    95    2
   182    94   103   am
   183   216   213    1
   184   216   217    1
   185   211   210    1
   186   213   214    1
   187   106   105    2
   188   103   104    1
   189   133   132    1
   190   217   218    2
   191   116   115    1
   192   141   140   ar
   193   115   112    1
   194   105   104    1
   195   105   111   am
   196   142   140   ar
   197   214   215    2
   198   132   129    1
   199   104   107    1
   200   140   139    1
   201   112   111    1
   202   112   113    1
   203   107   108    1
   204   129   128    1
   205   129   130    1
   206   139   138    1
   207   113   117   am
   208   113   114    2
   209   128   119   am
   210   117   118    1
   211   108   109    1
   212   108   110    1
   213   138   135    1
   214   130   131    2
   215   119   118    1
   216   119   120    2
   217   118   121    1
   218   124   126   ar
   219   124   122   ar
   220   135   136    1
   221   135   134    1
   222   126   127   ar
   223   121   122    1
   224   136   137    2
   225   122   123   ar
   226   127   125   ar
   227   123   125   ar
