@<TRIPOS>MOLECULE
tmp/5vdsB00.pdb
 207 199 0 0 0
SMALL
GASTEIGER

@<TRIPOS>ATOM
      1  N        -26.3400    5.5840  -25.8120 N.3    68  ASP68      -0.1239
      2  CA       -25.6940    6.8270  -25.4100 C.3    68  ASP68       0.1674
      3  C        -25.0640    6.6780  -24.0300 C.2    68  ASP68       0.2266
      4  O        -25.7640    6.4790  -23.0370 O.2    68  ASP68      -0.2867
      5  CB       -26.6950    7.9840  -25.4110 C.3    68  ASP68       0.1410
      6  CG       -27.1470    8.3650  -26.8070 C.2    68  ASP68       0.3668
      7  OD1      -28.0870    7.7280  -27.3270 O.co2  68  ASP68      -0.2456
      8  OD2      -26.5650    9.3080  -27.3830 O.co2  68  ASP68      -0.2456
      9  N        -22.1170    8.3260  -21.1540 N.3    70  MET70      -0.1245
     10  CA       -21.5390    9.6000  -20.7500 C.3    70  MET70       0.1570
     11  C        -20.3670    9.4000  -19.7950 C.2    70  MET70       0.2261
     12  O        -20.4940    8.7130  -18.7830 O.2    70  MET70      -0.2867
     13  CB       -22.6130   10.4770  -20.1010 C.3    70  MET70       0.0387
     14  CG       -22.1890   11.9070  -19.8280 C.3    70  MET70       0.0595
     15  SD       -23.5760   12.9130  -19.2620 S.3    70  MET70      -0.1393
     16  CE       -24.7090   12.7320  -20.6360 C.3    70  MET70       0.0692
     17  N        -25.1970   28.1570  -20.6070 N.3    89  TYR89      -0.1241
     18  CA       -23.8500   28.0050  -21.1450 C.3    89  TYR89       0.1605
     19  C        -22.8500   28.8450  -20.3610 C.2    89  TYR89       0.2264
     20  O        -23.1110   30.0050  -20.0440 O.2    89  TYR89      -0.2867
     21  CB       -23.8240   28.3720  -22.6300 C.3    89  TYR89       0.0534
     22  CG       -24.7430   27.5100  -23.4640 C.ar   89  TYR89      -0.0201
     23  CD1      -24.2950   26.3150  -24.0120 C.ar   89  TYR89      -0.0009
     24  CD2      -26.0630   27.8790  -23.6900 C.ar   89  TYR89      -0.0009
     25  CE1      -25.1300   25.5180  -24.7670 C.ar   89  TYR89       0.0417
     26  CE2      -26.9060   27.0860  -24.4450 C.ar   89  TYR89       0.0417
     27  CZ       -26.4330   25.9070  -24.9810 C.ar   89  TYR89       0.1957
     28  OH       -27.2670   25.1130  -25.7330 O.3    89  TYR89      -0.2866
     29  N        -19.3850   17.3320  -30.6820 N.3   135  PRO135     -0.2102
     30  CA       -19.5950   17.2210  -29.2350 C.3   135  PRO135      0.1504
     31  C        -19.5120   15.7810  -28.7350 C.2   135  PRO135      0.2575
     32  O        -19.0290   15.5440  -27.6280 O.2   135  PRO135     -0.2718
     33  CB       -21.0070   17.7820  -29.0440 C.3   135  PRO135      0.0282
     34  CG       -21.1980   18.7090  -30.1920 C.3   135  PRO135      0.0208
     35  CD       -20.4690   18.0800  -31.3430 C.3   135  PRO135      0.0893
     36  N        -19.9820   14.8340  -29.5420 N.am  136  ALA136     -0.1980
     37  CA       -19.9580   13.4270  -29.1600 C.3   136  ALA136      0.1597
     38  C        -18.9080   12.6410  -29.9410 C.2   136  ALA136      0.2287
     39  O        -18.3670   13.1200  -30.9380 O.2   136  ALA136     -0.2864
     40  CB       -21.3330   12.8040  -29.3550 C.3   136  ALA136      0.0319
     41  N        -22.8810    6.6050  -28.7600 N.3   148  ASP148     -0.1239
     42  CA       -22.4950    8.0070  -28.6630 C.3   148  ASP148      0.1674
     43  C        -21.9010    8.3040  -27.2890 C.2   148  ASP148      0.2266
     44  O        -22.5770    8.1740  -26.2670 O.2   148  ASP148     -0.2867
     45  CB       -23.6930    8.9200  -28.9310 C.3   148  ASP148      0.1410
     46  CG       -24.0990    8.9340  -30.3910 C.2   148  ASP148      0.3668
     47  OD1      -23.2570    8.5900  -31.2460 O.co2 148  ASP148     -0.2456
     48  OD2      -25.2600    9.2920  -30.6840 O.co2 148  ASP148     -0.2456
     49  N        -20.2180   10.9580  -24.6240 N.3   150  THR150     -0.1218
     50  CA       -20.1700   12.3760  -24.2920 C.3   150  THR150      0.1862
     51  C        -19.2680   12.6260  -23.0880 C.2   150  THR150      0.2287
     52  O        -19.3950   11.9640  -22.0590 O.2   150  THR150     -0.2866
     53  CB       -21.5780   12.9360  -23.9990 C.3   150  THR150      0.1770
     54  OG1      -22.3840   12.8570  -25.1810 O.3   150  THR150     -0.2211
     55  CG2      -21.4970   14.3820  -23.5400 C.3   150  THR150      0.0375
     56  N        -21.2640   19.8650  -20.3010 N.3   189  VAL189     -0.1231
     57  CA       -20.9200   19.2300  -21.5690 C.3   189  VAL189      0.1678
     58  C        -20.5050   20.2790  -22.5980 C.2   189  VAL189      0.2434
     59  O        -21.0490   21.3800  -22.6200 O.2   189  VAL189     -0.2733
     60  CB       -22.0880   18.3710  -22.0950 C.3   189  VAL189      0.0265
     61  CG1      -22.3340   17.1910  -21.1690 C.3   189  VAL189      0.0020
     62  CG2      -23.3480   19.2080  -22.2350 C.3   189  VAL189      0.0020
     63  N        -19.5290   19.9420  -23.4540 N.am  190  PRO190     -0.2718
     64  CA       -19.0930   20.8780  -24.4960 C.3   190  PRO190      0.1535
     65  C        -20.1750   21.0950  -25.5510 C.2   190  PRO190      0.2598
     66  O        -20.5060   20.1710  -26.2950 O.2   190  PRO190     -0.2715
     67  CB       -17.8620   20.1910  -25.0940 C.3   190  PRO190      0.0310
     68  CG       -18.0580   18.7440  -24.8030 C.3   190  PRO190      0.0237
     69  CD       -18.7580   18.6880  -23.4790 C.3   190  PRO190      0.0939
     70  N        -20.7190   22.3050  -25.6060 N.am  191  LYS191     -0.1978
     71  CA       -21.7880   22.6140  -26.5470 C.3   191  LYS191      0.1596
     72  C        -21.8370   24.1050  -26.8620 C.2   191  LYS191      0.2287
     73  O        -21.7550   24.9420  -25.9630 O.2   191  LYS191     -0.2864
     74  CB       -23.1370   22.1480  -25.9890 C.3   191  LYS191      0.0298
     75  CG       -24.2750   22.1650  -26.9980 C.3   191  LYS191      0.0038
     76  CD       -24.0140   21.2010  -28.1440 C.3   191  LYS191      0.0206
     77  CE       -25.0750   21.3260  -29.2260 C.3   191  LYS191      0.1093
     78  NZ       -24.8280   20.3930  -30.3610 N.3   191  LYS191     -0.1314
     79  N        -22.3500   23.6010  -21.3300 N.3   198  ARG198     -0.1231
     80  CA       -23.7430   23.6450  -20.9080 C.3   198  ARG198      0.1694
     81  C        -23.9710   22.7790  -19.6750 C.2   198  ARG198      0.2592
     82  O        -23.4030   21.6930  -19.5570 O.2   198  ARG198     -0.2718
     83  CB       -24.6630   23.1940  -22.0450 C.3   198  ARG198      0.0321
     84  CG       -26.1460   23.3780  -21.7560 C.3   198  ARG198      0.0489
     85  CD       -26.9880   23.0050  -22.9620 C.3   198  ARG198      0.2205
     86  NE       -26.9040   21.5810  -23.2670 N.pl3 198  ARG198     -0.0865
     87  CZ       -27.2570   21.0450  -24.4300 C.cat 198  ARG198      0.5346
     88  NH1      -27.7090   21.8180  -25.4090 N.pl3 198  ARG198      0.1354
     89  NH2      -27.1470   19.7360  -24.6200 N.pl3 198  ARG198      0.1354
     90  N        -24.8010   23.2710  -18.7600 N.am  199  LEU199     -0.1966
     91  CA       -25.1360   22.5320  -17.5500 C.3   199  LEU199      0.1728
     92  C        -25.8530   21.2310  -17.8890 C.2   199  LEU199      0.2617
     93  O        -26.6030   21.1560  -18.8630 O.2   199  LEU199     -0.2715
     94  CB       -26.0030   23.3840  -16.6190 C.3   199  LEU199      0.0311
     95  CG       -25.3590   24.6410  -16.0330 C.3   199  LEU199      0.0022
     96  CD1      -26.3900   25.4830  -15.2980 C.3   199  LEU199      0.0001
     97  CD2      -24.2240   24.2630  -15.1010 C.3   199  LEU199      0.0001
     98  N        -25.6120   20.2100  -17.0750 N.am  200  SER200     -0.1936
     99  CA       -26.2220   18.9040  -17.2690 C.3   200  SER200      0.2055
    100  C        -26.5140   18.2550  -15.9200 C.2   200  SER200      0.2643
    101  O        -25.6670   18.2600  -15.0160 O.2   200  SER200     -0.2714
    102  CB       -25.3160   18.0050  -18.1120 C.3   200  SER200      0.2130
    103  OG       -25.9570   16.7800  -18.4210 O.3   200  SER200     -0.2179
    104  N        -27.7190   17.7070  -15.7960 N.am  201  PHE201     -0.1959
    105  CA       -28.1680   17.0670  -14.5640 C.3   201  PHE201      0.1771
    106  C        -28.7980   15.7100  -14.8600 C.2   201  PHE201      0.2620
    107  O        -29.8420   15.3690  -14.3040 O.2   201  PHE201     -0.2715
    108  CB       -29.1780   17.9540  -13.8320 C.3   201  PHE201      0.0574
    109  CG       -28.7080   19.3640  -13.6150 C.ar  201  PHE201     -0.0200
    110  CD1      -27.9690   19.6980  -12.4930 C.ar  201  PHE201     -0.0042
    111  CD2      -29.0160   20.3580  -14.5300 C.ar  201  PHE201     -0.0042
    112  CE1      -27.5420   20.9950  -12.2900 C.ar  201  PHE201     -0.0003
    113  CE2      -28.5900   21.6570  -14.3340 C.ar  201  PHE201     -0.0003
    114  CZ       -27.8520   21.9760  -13.2120 C.ar  201  PHE201     -0.0000
    115  N        -28.1620   14.9430  -15.7390 N.am  202  SER202     -0.1950
    116  CA       -28.6860   13.6480  -16.1650 C.3   202  SER202      0.1924
    117  C        -28.8780   12.6860  -14.9940 C.2   202  SER202      0.2314
    118  O        -29.8420   11.9180  -14.9600 O.2   202  SER202     -0.2863
    119  CB       -27.7600   13.0240  -17.2100 C.3   202  SER202      0.2116
    120  OG       -27.6370   13.8640  -18.3440 O.3   202  SER202     -0.2180
    121  N        -32.0310   13.5090  -13.2410 N.3   205  GLU205     -0.1245
    122  CA       -33.1580   13.0360  -14.0370 C.3   205  GLU205      0.1567
    123  C        -33.3770   11.5430  -13.8260 C.2   205  GLU205      0.2260
    124  O        -34.5090   11.0920  -13.6440 O.2   205  GLU205     -0.2867
    125  CB       -32.9320   13.3430  -15.5180 C.3   205  GLU205      0.0388
    126  CG       -32.8150   14.8310  -15.8150 C.3   205  GLU205      0.1160
    127  CD       -32.1900   15.1190  -17.1660 C.2   205  GLU205      0.3649
    128  OE1      -31.7850   14.1600  -17.8580 O.co2 205  GLU205     -0.2457
    129  OE2      -32.1040   16.3090  -17.5330 O.co2 205  GLU205     -0.2457
    130  N        -35.0970   18.2190  -35.3600 N.3   254  LYS254     -0.1245
    131  CA       -34.5910   18.8550  -34.1450 C.3   254  LYS254      0.1561
    132  C        -35.3740   18.4530  -32.8930 C.2   254  LYS254      0.2260
    133  O        -34.9890   18.8040  -31.7780 O.2   254  LYS254     -0.2867
    134  CB       -34.5970   20.3770  -34.2960 C.3   254  LYS254      0.0271
    135  CG       -33.6460   20.8880  -35.3660 C.3   254  LYS254      0.0035
    136  CD       -33.6500   22.4050  -35.4360 C.3   254  LYS254      0.0206
    137  CE       -32.6780   22.9070  -36.4910 C.3   254  LYS254      0.1093
    138  NZ       -32.6820   24.3940  -36.5890 N.3   254  LYS254     -0.1314
    139  N        -36.5310   15.7180  -30.1610 N.3   256  SER256     -0.1202
    140  CA       -35.9590   14.4980  -29.6040 C.3   256  SER256      0.2020
    141  C        -36.5560   14.1630  -28.2410 C.2   256  SER256      0.2619
    142  O        -37.3810   14.9080  -27.7110 O.2   256  SER256     -0.2717
    143  CB       -34.4380   14.6230  -29.4960 C.3   256  SER256      0.2103
    144  OG       -34.0710   15.6030  -28.5420 O.3   256  SER256     -0.2182
    145  N        -36.1200   13.0390  -27.6800 N.am  257  SER257     -0.1937
    146  CA       -36.7140   12.4810  -26.4690 C.3   257  SER257      0.2055
    147  C        -36.5780   13.3710  -25.2340 C.2   257  SER257      0.2643
    148  O        -37.3980   13.2880  -24.3190 O.2   257  SER257     -0.2714
    149  CB       -36.1010   11.1090  -26.1740 C.3   257  SER257      0.2130
    150  OG       -34.6950   11.1990  -26.0160 O.3   257  SER257     -0.2179
    151  N        -35.5550   14.2180  -25.2010 N.am  258  TYR258     -0.1959
    152  CA       -35.3290   15.0540  -24.0260 C.3   258  TYR258      0.1771
    153  C        -36.4260   16.1030  -23.8720 C.2   258  TYR258      0.2619
    154  O        -36.7740   16.4870  -22.7560 O.2   258  TYR258     -0.2715
    155  CB       -33.9610   15.7340  -24.0850 C.3   258  TYR258      0.0574
    156  CG       -33.6240   16.4720  -22.8090 C.ar  258  TYR258     -0.0198
    157  CD1      -33.0770   15.8020  -21.7240 C.ar  258  TYR258     -0.0009
    158  CD2      -33.8720   17.8320  -22.6830 C.ar  258  TYR258     -0.0009
    159  CE1      -32.7770   16.4700  -20.5520 C.ar  258  TYR258      0.0417
    160  CE2      -33.5740   18.5070  -21.5160 C.ar  258  TYR258      0.0417
    161  CZ       -33.0270   17.8220  -20.4530 C.ar  258  TYR258      0.1957
    162  OH       -32.7300   18.4910  -19.2880 O.3   258  TYR258     -0.2866
    163  N        -36.9560   16.5710  -24.9970 N.am  259  HIS259     -0.1973
    164  CA       -38.0830   17.4980  -24.9910 C.3   259  HIS259      0.1656
    165  C        -39.2890   16.8380  -24.3330 C.2   259  HIS259      0.2291
    166  O        -39.9360   17.4130  -23.4490 O.2   259  HIS259     -0.2864
    167  CB       -38.4220   17.9320  -26.4160 C.3   259  HIS259      0.0771
    168  CG       -37.3080   18.6530  -27.1090 C.ar  259  HIS259      0.0820
    169  ND1      -36.9460   18.3870  -28.4120 N.ar  259  HIS259     -0.2267
    170  CD2      -36.4800   19.6350  -26.6820 C.ar  259  HIS259      0.1154
    171  CE1      -35.9400   19.1710  -28.7560 C.ar  259  HIS259      0.1986
    172  NE2      -35.6390   19.9390  -27.7250 N.ar  259  HIS259     -0.2212
    173  N        -36.3440   24.5520  -19.5770 N.3   304  ASN304     -0.1240
    174  CA       -35.5020   23.4950  -19.0360 C.3   304  ASN304      0.1653
    175  C        -35.9100   23.2660  -17.5870 C.2   304  ASN304      0.2266
    176  O        -36.0810   24.2210  -16.8260 O.2   304  ASN304     -0.2867
    177  CB       -34.0210   23.8640  -19.1390 C.3   304  ASN304      0.1155
    178  CG       -33.1080   22.7550  -18.6580 C.2   304  ASN304      0.2627
    179  OD1      -32.9730   22.5250  -17.4560 O.2   304  ASN304     -0.2716
    180  ND2      -32.4690   22.0660  -19.5950 N.am  304  ASN304     -0.0877
    181  N        -34.0780   29.0310  -19.5340 N.3   310  PHE310     -0.1241
    182  CA       -33.4910   28.4340  -20.7300 C.3   310  PHE310      0.1605
    183  C        -34.5670   27.6830  -21.5150 C.2   310  PHE310      0.2264
    184  O        -34.9940   26.5990  -21.1200 O.2   310  PHE310     -0.2867
    185  CB       -32.3350   27.5030  -20.3490 C.3   310  PHE310      0.0534
    186  CG       -31.7520   26.7420  -21.5070 C.ar  310  PHE310     -0.0203
    187  CD1      -31.4910   27.3730  -22.7120 C.ar  310  PHE310     -0.0042
    188  CD2      -31.4480   25.3960  -21.3810 C.ar  310  PHE310     -0.0042
    189  CE1      -30.9530   26.6710  -23.7750 C.ar  310  PHE310     -0.0003
    190  CE2      -30.9060   24.6900  -22.4380 C.ar  310  PHE310     -0.0003
    191  CZ       -30.6590   25.3290  -23.6380 C.ar  310  PHE310     -0.0000
    192  N        -36.0890   25.5090  -24.3810 N.3   312  LEU312     -0.1245
    193  CA       -35.7160   24.4690  -25.3340 C.3   312  LEU312      0.1561
    194  C        -36.4630   24.6200  -26.6570 C.2   312  LEU312      0.2260
    195  O        -36.0410   24.0810  -27.6790 O.2   312  LEU312     -0.2867
    196  CB       -35.9850   23.0840  -24.7420 C.3   312  LEU312      0.0270
    197  CG       -35.3490   22.7980  -23.3810 C.3   312  LEU312      0.0019
    198  CD1      -35.6160   21.3650  -22.9500 C.3   312  LEU312      0.0001
    199  CD2      -33.8600   23.0850  -23.4140 C.3   312  LEU312      0.0001
    200  N        -33.7170   28.1690  -31.6230 N.3   317  LEU317     -0.1245
    201  CA       -33.3360   26.7610  -31.6600 C.3   317  LEU317      0.1561
    202  C        -34.1570   25.9830  -32.6840 C.2   317  LEU317      0.2260
    203  O        -33.6060   25.2740  -33.5270 O.2   317  LEU317     -0.2867
    204  CB       -33.4940   26.1260  -30.2770 C.3   317  LEU317      0.0270
    205  CG       -32.6160   26.6950  -29.1610 C.3   317  LEU317      0.0019
    206  CD1      -32.7850   25.8860  -27.8840 C.3   317  LEU317      0.0001
    207  CD2      -31.1550   26.7430  -29.5870 C.3   317  LEU317      0.0001
@<TRIPOS>BOND
     1   138   137    1
     2   137   136    1
     3   136   135    1
     4   135   134    1
     5   130   131    1
     6   134   131    1
     7   131   132    1
     8   203   202    2
     9   132   133    2
    10   202   201    1
    11   201   200    1
    12   201   204    1
    13    35    29    1
    14    35    34    1
    15    47    46   ar
    16    39    38    2
    17    48    46   ar
    18    29    30    1
    19    46    45    1
    20    78    77    1
    21   204   205    1
    22    34    33    1
    23   139   140    1
    24    38    37    1
    25   140   143    1
    26   140   141    1
    27   207   205    1
    28    36    37    1
    29    36    31   am
    30   143   144    1
    31    40    37    1
    32    30    33    1
    33    30    31    1
    34    77    76    1
    35   205   206    1
    36    45    42    1
    37    41    42    1
    38   171   169   ar
    39   171   172   ar
    40    31    32    2
    41    42    43    1
    42   169   168   ar
    43   141   142    2
    44   141   145   am
    45    76    75    1
    46   172   170   ar
    47   145   146    1
    48   195   194    2
    49     8     6   ar
    50     7     6   ar
    51    43    44    2
    52   168   170   ar
    53   168   167    1
    54    75    74    1
    55    72    71    1
    56    72    73    2
    57     6     5    1
    58   194   193    1
    59    71    74    1
    60    71    70    1
    61   146   149    1
    62   146   147    1
    63   167   164    1
    64    66    65    2
    65   149   150    1
    66     1     2    1
    67    28    27    1
    68    70    65   am
    69    65    64    1
    70     5     2    1
    71     2     3    1
    72    88    87    1
    73   193   196    1
    74   193   192    1
    75   147   151   am
    76   147   148    2
    77   151   152    1
    78    54    53    1
    79    67    68    1
    80    67    64    1
    81   163   164    1
    82   163   153   am
    83   164   165    1
    84    27    25   ar
    85    27    26   ar
    86    68    69    1
    87    25    23   ar
    88   196   197    1
    89    49    50    1
    90    89    87    1
    91    64    63    1
    92    26    24   ar
    93    87    86    2
    94   165   166    2
    95    50    53    1
    96    50    51    1
    97   155   152    1
    98   155   156    1
    99     3     4    2
   100   152   153    1
   101    23    22   ar
   102    53    55    1
   103   153   154    2
   104   189   191   ar
   105   189   187   ar
   106    24    22   ar
   107   191   190   ar
   108    69    63    1
   109    22    21    1
   110    63    58   am
   111   199   197    1
   112   197   198    1
   113    86    85    1
   114    51    52    2
   115    85    84    1
   116   156   158   ar
   117   156   157   ar
   118   187   186   ar
   119   158   160   ar
   120    21    18    1
   121    59    58    2
   122    58    57    1
   123   190   188   ar
   124    62    60    1
   125    60    57    1
   126    60    61    1
   127    83    84    1
   128    83    80    1
   129   157   159   ar
   130    57    56    1
   131   160   161   ar
   132   183   184    2
   133   183   182    1
   134   186   188   ar
   135   186   185    1
   136    79    80    1
   137     9    10    1
   138    18    17    1
   139    18    19    1
   140    80    81    1
   141    10    13    1
   142    10    11    1
   143   182   185    1
   144   182   181    1
   145    16    15    1
   146   159   161   ar
   147   161   162    1
   148    19    20    2
   149    13    14    1
   150    14    15    1
   151    11    12    2
   152    81    82    2
   153    81    90   am
   154   180   178   am
   155   173   174    1
   156   177   174    1
   157   177   178    1
   158   174   175    1
   159    93    92    2
   160    90    91    1
   161   178   179    2
   162   103   102    1
   163   120   119    1
   164   102    99    1
   165    92    91    1
   166    92    98   am
   167   128   127   ar
   168   175   176    2
   169    91    94    1
   170   129   127   ar
   171    99    98    1
   172    99   100    1
   173   119   116    1
   174   127   126    1
   175    94    95    1
   176   116   115    1
   177   116   117    1
   178    95    96    1
   179    95    97    1
   180   100   104   am
   181   100   101    2
   182   126   125    1
   183   104   105    1
   184   115   106   am
   185   125   122    1
   186   117   118    2
   187   106   105    1
   188   106   107    2
   189   105   108    1
   190   111   113   ar
   191   111   109   ar
   192   113   114   ar
   193   122   123    1
   194   122   121    1
   195   108   109    1
   196   123   124    2
   197   109   110   ar
   198   114   112   ar
   199   110   112   ar
