@<TRIPOS>MOLECULE
tmp/5vdtA00.pdb
 231 220 0 0 0
SMALL
GASTEIGER

@<TRIPOS>ATOM
      1  N        -24.8830    5.6440  -14.8810 N.3    52  THR52      -0.1218
      2  CA       -26.0910    6.2920  -15.3750 C.3    52  THR52       0.1862
      3  C        -27.0640    5.2160  -15.8470 C.2    52  THR52       0.2287
      4  O        -28.0780    5.5020  -16.4850 O.2    52  THR52      -0.2866
      5  CB       -25.7890    7.2730  -16.5270 C.3    52  THR52       0.1770
      6  OG1      -24.5100    7.8830  -16.3150 O.3    52  THR52      -0.2211
      7  CG2      -26.8480    8.3650  -16.5950 C.3    52  THR52       0.0375
      8  N        -25.2750    4.2330  -24.4150 N.3    66  ASP66      -0.1225
      9  CA       -24.7720    5.5280  -23.9760 C.3    66  ASP66       0.1805
     10  C        -24.0670    5.4020  -22.6330 C.2    66  ASP66       0.2598
     11  O        -24.7080    5.2700  -21.5910 O.2    66  ASP66      -0.2718
     12  CB       -25.9120    6.5440  -23.8760 C.3    66  ASP66       0.1424
     13  CG       -25.4450    7.8960  -23.3730 C.2    66  ASP66       0.3668
     14  OD1      -25.4460    8.1080  -22.1420 O.co2  66  ASP66      -0.2456
     15  OD2      -25.0740    8.7470  -24.2080 O.co2  66  ASP66      -0.2456
     16  N        -22.7400    5.4410  -22.6650 N.am   67  VAL67      -0.1966
     17  CA       -21.9480    5.3570  -21.4500 C.3    67  VAL67       0.1727
     18  C        -21.2350    6.6810  -21.2160 C.2    67  VAL67       0.2616
     19  O        -20.9910    7.4430  -22.1520 O.2    67  VAL67      -0.2715
     20  CB       -20.9480    4.1930  -21.5110 C.3    67  VAL67       0.0290
     21  CG1      -21.6850    2.8790  -21.7250 C.3    67  VAL67       0.0023
     22  CG2      -19.9280    4.4260  -22.6090 C.3    67  VAL67       0.0023
     23  N        -20.9020    6.9500  -19.9610 N.am   68  MET68      -0.1977
     24  CA       -20.2940    8.2190  -19.5950 C.3    68  MET68       0.1605
     25  C        -19.0170    7.9940  -18.7960 C.2    68  MET68       0.2287
     26  O        -19.0240    7.2880  -17.7900 O.2    68  MET68      -0.2864
     27  CB       -21.2870    9.0610  -18.7940 C.3    68  MET68       0.0413
     28  CG       -21.0700   10.5570  -18.8760 C.3    68  MET68       0.0598
     29  SD       -22.4870   11.4410  -18.1960 S.3    68  MET68      -0.1393
     30  CE       -21.9500   13.1390  -18.3740 C.3    68  MET68       0.0692
     31  N        -19.2470   14.0970  -35.3280 N.3   141  ARG141     -0.1245
     32  CA       -20.3790   14.9990  -35.5020 C.3   141  ARG141      0.1563
     33  C        -20.0040   16.4230  -35.1110 C.2   141  ARG141      0.2260
     34  O        -19.1250   16.6360  -34.2740 O.2   141  ARG141     -0.2867
     35  CB       -21.5820   14.5260  -34.6810 C.3   141  ARG141      0.0307
     36  CG       -22.1830   13.2270  -35.1630 C.3   141  ARG141      0.0489
     37  CD       -23.4200   12.8720  -34.3680 C.3   141  ARG141      0.2205
     38  NE       -23.0600   12.3090  -33.0660 N.pl3 141  ARG141     -0.0865
     39  CZ       -23.9370   11.9690  -32.1320 C.cat 141  ARG141      0.5346
     40  NH1      -25.2320   12.1880  -32.3530 N.pl3 141  ARG141      0.1354
     41  NH2      -23.5190   11.4360  -30.9810 N.pl3 141  ARG141      0.1354
     42  N        -19.7200   19.6130  -33.2960 N.3   143  GLY143     -0.1210
     43  CA       -19.9310   20.1560  -31.9660 C.3   143  GLY143      0.1956
     44  C        -20.4340   19.1630  -30.9370 C.2   143  GLY143      0.2613
     45  O        -20.9490   19.5530  -29.8900 O.2   143  GLY143     -0.2717
     46  N        -20.2840   17.8760  -31.2290 N.am  144  SER144     -0.1938
     47  CA       -20.7410   16.8350  -30.3180 C.3   144  SER144      0.2040
     48  C        -19.6170   16.3720  -29.4020 C.2   144  SER144      0.2485
     49  O        -18.5330   16.0210  -29.8680 O.2   144  SER144     -0.2729
     50  CB       -21.3060   15.6470  -31.0980 C.3   144  SER144      0.2129
     51  OG       -21.6350   14.5770  -30.2260 O.3   144  SER144     -0.2179
     52  N        -19.8730   16.3760  -28.0870 N.am  145  PRO145     -0.2715
     53  CA       -18.8860   15.9500  -27.0910 C.3   145  PRO145      0.1536
     54  C        -18.7420   14.4330  -27.0310 C.2   145  PRO145      0.2598
     55  O        -17.7990   13.9220  -26.4270 O.2   145  PRO145     -0.2715
     56  CB       -19.4600   16.4920  -25.7830 C.3   145  PRO145      0.0310
     57  CG       -20.9340   16.4800  -26.0040 C.3   145  PRO145      0.0237
     58  CD       -21.1340   16.8110  -27.4610 C.3   145  PRO145      0.0939
     59  N        -19.6760   13.7250  -27.6550 N.am  146  ALA146     -0.1978
     60  CA       -19.6710   12.2690  -27.6250 C.3   146  ALA146      0.1597
     61  C        -18.6970   11.6690  -28.6350 C.2   146  ALA146      0.2287
     62  O        -18.4330   12.2450  -29.6900 O.2   146  ALA146     -0.2864
     63  CB       -21.0730   11.7360  -27.8760 C.3   146  ALA146      0.0319
     64  N        -22.2790    5.5350  -27.4560 N.3   158  ASP158     -0.1239
     65  CA       -21.8310    6.9130  -27.3030 C.3   158  ASP158      0.1674
     66  C        -21.0430    7.0560  -26.0060 C.2   158  ASP158      0.2266
     67  O        -21.5480    6.7480  -24.9260 O.2   158  ASP158     -0.2867
     68  CB       -23.0180    7.8780  -27.3190 C.3   158  ASP158      0.1410
     69  CG       -23.8340    7.7810  -28.5960 C.2   158  ASP158      0.3668
     70  OD1      -24.7800    6.9670  -28.6390 O.co2 158  ASP158     -0.2456
     71  OD2      -23.5260    8.5200  -29.5550 O.co2 158  ASP158     -0.2456
     72  N        -19.1440    9.6620  -23.5880 N.3   160  THR160     -0.1218
     73  CA       -18.9850   11.0780  -23.2860 C.3   160  THR160      0.1862
     74  C        -18.0510   11.2890  -22.1020 C.2   160  THR160      0.2287
     75  O        -18.2640   10.7380  -21.0220 O.2   160  THR160     -0.2866
     76  CB       -20.3410   11.7470  -22.9890 C.3   160  THR160      0.1770
     77  OG1      -21.1970   11.6190  -24.1320 O.3   160  THR160     -0.2211
     78  CG2      -20.1510   13.2210  -22.6680 C.3   160  THR160      0.0375
     79  N        -19.3280   18.4010  -19.4020 N.3   199  VAL199     -0.1245
     80  CA       -19.0200   17.7790  -20.6830 C.3   199  VAL199      0.1561
     81  C        -18.3970   18.8020  -21.6320 C.2   199  VAL199      0.2260
     82  O        -18.7570   19.9770  -21.6070 O.2   199  VAL199     -0.2867
     83  CB       -20.2770   17.1320  -21.2980 C.3   199  VAL199      0.0252
     84  CG1      -20.7900   16.0260  -20.3900 C.3   199  VAL199      0.0019
     85  CG2      -21.3590   18.1740  -21.5370 C.3   199  VAL199      0.0019
     86  N        -18.5570   20.6900  -24.2090 N.3   201  LYS201     -0.1245
     87  CA       -19.4950   21.2430  -25.1750 C.3   201  LYS201      0.1561
     88  C        -19.3160   22.7520  -25.2880 C.2   201  LYS201      0.2260
     89  O        -19.3930   23.4680  -24.2910 O.2   201  LYS201     -0.2867
     90  CB       -20.9350   20.9040  -24.7770 C.3   201  LYS201      0.0271
     91  CG       -22.0020   21.5600  -25.6390 C.3   201  LYS201      0.0035
     92  CD       -22.0620   20.9320  -27.0210 C.3   201  LYS201      0.0206
     93  CE       -23.1440   21.5790  -27.8710 C.3   201  LYS201      0.1093
     94  NZ       -23.2190   20.9790  -29.2310 N.3   201  LYS201     -0.1314
     95  N        -20.2230   22.1830  -20.4590 N.3   215  ARG215     -0.1231
     96  CA       -21.6280   22.2930  -20.0890 C.3   215  ARG215      0.1694
     97  C        -21.9450   21.4180  -18.8820 C.2   215  ARG215      0.2592
     98  O        -21.4310   20.3050  -18.7550 O.2   215  ARG215     -0.2718
     99  CB       -22.5290   21.9230  -21.2710 C.3   215  ARG215      0.0321
    100  CG       -24.0160   22.1300  -21.0030 C.3   215  ARG215      0.0489
    101  CD       -24.8530   21.8500  -22.2390 C.3   215  ARG215      0.2205
    102  NE       -24.7490   20.4650  -22.6880 N.pl3 215  ARG215     -0.0865
    103  CZ       -25.1420   20.0400  -23.8850 C.cat 215  ARG215      0.5346
    104  NH1      -25.6550   20.8970  -24.7570 N.pl3 215  ARG215      0.1354
    105  NH2      -25.0140   18.7630  -24.2150 N.pl3 215  ARG215      0.1354
    106  N        -22.7870   21.9400  -17.9950 N.am  216  LEU216     -0.1966
    107  CA       -23.2140   21.2060  -16.8110 C.3   216  LEU216      0.1728
    108  C        -23.9550   19.9310  -17.1920 C.2   216  LEU216      0.2617
    109  O        -24.6720   19.8860  -18.1930 O.2   216  LEU216     -0.2715
    110  CB       -24.1010   22.0840  -15.9270 C.3   216  LEU216      0.0311
    111  CG       -23.4150   23.2910  -15.2850 C.3   216  LEU216      0.0022
    112  CD1      -24.3950   24.0850  -14.4350 C.3   216  LEU216      0.0001
    113  CD2      -22.2230   22.8440  -14.4550 C.3   216  LEU216      0.0001
    114  N        -23.7650   18.8920  -16.3880 N.am  217  SER217     -0.1936
    115  CA       -24.4140   17.6130  -16.6150 C.3   217  SER217      0.2055
    116  C        -24.8090   16.9710  -15.2890 C.2   217  SER217      0.2643
    117  O        -23.9970   16.8890  -14.3490 O.2   217  SER217     -0.2714
    118  CB       -23.5020   16.6770  -17.4090 C.3   217  SER217      0.2130
    119  OG       -24.1710   15.4710  -17.7290 O.3   217  SER217     -0.2179
    120  N        -26.0630   16.5250  -15.2400 N.am  218  PHE218     -0.1959
    121  CA       -26.6510   15.8930  -14.0660 C.3   218  PHE218      0.1771
    122  C        -27.3420   14.5830  -14.4420 C.2   218  PHE218      0.2620
    123  O        -28.4000   14.2600  -13.9030 O.2   218  PHE218     -0.2715
    124  CB       -27.6640   16.8290  -13.4040 C.3   218  PHE218      0.0574
    125  CG       -27.0950   18.1560  -12.9980 C.ar  218  PHE218     -0.0200
    126  CD1      -26.4920   18.3180  -11.7630 C.ar  218  PHE218     -0.0042
    127  CD2      -27.1770   19.2470  -13.8470 C.ar  218  PHE218     -0.0042
    128  CE1      -25.9710   19.5400  -11.3860 C.ar  218  PHE218     -0.0003
    129  CE2      -26.6580   20.4720  -13.4750 C.ar  218  PHE218     -0.0003
    130  CZ       -26.0540   20.6180  -12.2430 C.ar  218  PHE218     -0.0000
    131  N        -26.7380   13.8360  -15.3610 N.am  219  SER219     -0.1950
    132  CA       -27.3240   12.5960  -15.8720 C.3   219  SER219      0.1924
    133  C        -27.5680   11.5670  -14.7690 C.2   219  SER219      0.2314
    134  O        -28.5640   10.8340  -14.7910 O.2   219  SER219     -0.2863
    135  CB       -26.4200   11.9950  -16.9500 C.3   219  SER219      0.2116
    136  OG       -26.1930   12.9180  -18.0010 O.3   219  SER219     -0.2180
    137  N        -30.6130   12.3610  -12.9610 N.3   222  GLU222     -0.1245
    138  CA       -31.7440   11.9810  -13.7980 C.3   222  GLU222      0.1567
    139  C        -32.0410   10.4940  -13.6370 C.2   222  GLU222      0.2260
    140  O        -33.2060   10.0850  -13.5590 O.2   222  GLU222     -0.2867
    141  CB       -31.4680   12.3190  -15.2640 C.3   222  GLU222      0.0388
    142  CG       -31.2580   13.8030  -15.5240 C.3   222  GLU222      0.1160
    143  CD       -30.7000   14.0870  -16.9080 C.2   222  GLU222      0.3649
    144  OE1      -30.8060   13.2070  -17.7900 O.co2 222  GLU222     -0.2457
    145  OE2      -30.1560   15.1920  -17.1140 O.co2 222  GLU222     -0.2457
    146  N        -33.5910   16.3690  -36.5310 N.3   270  ASP270     -0.1225
    147  CA       -32.2560   15.9390  -36.1220 C.3   270  ASP270      0.1805
    148  C        -31.8110   16.5190  -34.7770 C.2   270  ASP270      0.2597
    149  O        -31.0950   15.8600  -34.0220 O.2   270  ASP270     -0.2718
    150  CB       -31.2360   16.3020  -37.2020 C.3   270  ASP270      0.1424
    151  CG       -31.2470   15.3260  -38.3620 C.2   270  ASP270      0.3668
    152  OD1      -32.1950   15.3740  -39.1740 O.co2 270  ASP270     -0.2456
    153  OD2      -30.3070   14.5100  -38.4640 O.co2 270  ASP270     -0.2456
    154  N        -32.2320   17.7430  -34.4720 N.am  271  LYS271     -0.1979
    155  CA       -31.8020   18.3990  -33.2390 C.3   271  LYS271      0.1596
    156  C        -32.6280   17.9580  -32.0300 C.2   271  LYS271      0.2287
    157  O        -32.2280   18.1730  -30.8860 O.2   271  LYS271     -0.2864
    158  CB       -31.8680   19.9200  -33.3890 C.3   271  LYS271      0.0298
    159  CG       -30.8490   20.4890  -34.3630 C.3   271  LYS271      0.0038
    160  CD       -30.8450   22.0090  -34.3320 C.3   271  LYS271      0.0206
    161  CE       -29.8670   22.5810  -35.3430 C.3   271  LYS271      0.1093
    162  NZ       -29.8400   24.0700  -35.3020 N.3   271  LYS271     -0.1314
    163  N        -34.0960   15.3470  -29.3700 N.3   273  SER273     -0.1202
    164  CA       -33.5830   14.1310  -28.7540 C.3   273  SER273      0.2020
    165  C        -34.4650   13.6820  -27.5970 C.2   273  SER273      0.2619
    166  O        -35.3540   14.4120  -27.1560 O.2   273  SER273     -0.2717
    167  CB       -32.1540   14.3420  -28.2570 C.3   273  SER273      0.2103
    168  OG       -32.1310   15.2330  -27.1560 O.3   273  SER273     -0.2182
    169  N        -34.1990   12.4800  -27.0960 N.am  274  SER274     -0.1937
    170  CA       -34.9770   11.9210  -25.9990 C.3   274  SER274      0.2055
    171  C        -34.7780   12.7140  -24.7070 C.2   274  SER274      0.2643
    172  O        -35.5560   12.5780  -23.7650 O.2   274  SER274     -0.2714
    173  CB       -34.6100   10.4510  -25.7810 C.3   274  SER274      0.2130
    174  OG       -33.2420   10.3120  -25.4380 O.3   274  SER274     -0.2179
    175  N        -33.7360   13.5400  -24.6650 N.am  275  TYR275     -0.1959
    176  CA       -33.4670   14.3730  -23.4970 C.3   275  TYR275      0.1771
    177  C        -34.5020   15.4870  -23.3450 C.2   275  TYR275      0.2619
    178  O        -34.8750   15.8480  -22.2290 O.2   275  TYR275     -0.2715
    179  CB       -32.0650   14.9790  -23.5700 C.3   275  TYR275      0.0574
    180  CG       -31.6980   15.7730  -22.3380 C.ar  275  TYR275     -0.0198
    181  CD1      -31.2810   15.1350  -21.1790 C.ar  275  TYR275     -0.0009
    182  CD2      -31.7780   17.1600  -22.3290 C.ar  275  TYR275     -0.0009
    183  CE1      -30.9490   15.8510  -20.0480 C.ar  275  TYR275      0.0417
    184  CE2      -31.4470   17.8870  -21.2000 C.ar  275  TYR275      0.0417
    185  CZ       -31.0330   17.2260  -20.0630 C.ar  275  TYR275      0.1957
    186  OH       -30.7010   17.9390  -18.9330 O.3   275  TYR275     -0.2866
    187  N        -34.9440   16.0430  -24.4700 N.am  276  HIS276     -0.1973
    188  CA       -35.9880   17.0620  -24.4580 C.3   276  HIS276      0.1656
    189  C        -37.2700   16.4650  -23.8890 C.2   276  HIS276      0.2291
    190  O        -37.9120   17.0420  -23.0050 O.2   276  HIS276     -0.2864
    191  CB       -36.2350   17.6080  -25.8670 C.3   276  HIS276      0.0771
    192  CG       -35.0250   18.2190  -26.5030 C.ar  276  HIS276      0.0820
    193  ND1      -34.7200   18.0550  -27.8370 N.ar  276  HIS276     -0.2267
    194  CD2      -34.0450   19.0010  -25.9880 C.ar  276  HIS276      0.1154
    195  CE1      -33.6040   18.7030  -28.1160 C.ar  276  HIS276      0.1986
    196  NE2      -33.1740   19.2870  -27.0120 N.ar  276  HIS276     -0.2212
    197  N        -34.3490   23.7840  -18.8920 N.3   321  ASN321     -0.1240
    198  CA       -33.5610   22.6990  -18.3280 C.3   321  ASN321      0.1653
    199  C        -34.0320   22.4610  -16.8970 C.2   321  ASN321      0.2266
    200  O        -34.1810   23.4050  -16.1200 O.2   321  ASN321     -0.2867
    201  CB       -32.0670   23.0300  -18.3680 C.3   321  ASN321      0.1155
    202  CG       -31.2020   21.9050  -17.8350 C.2   321  ASN321      0.2627
    203  OD1      -31.0950   21.7070  -16.6270 O.2   321  ASN321     -0.2716
    204  ND2      -30.5760   21.1620  -18.7400 N.am  321  ASN321     -0.0877
    205  N        -31.9640   28.1030  -18.5540 N.3   327  PHE327     -0.1241
    206  CA       -31.3840   27.5210  -19.7580 C.3   327  PHE327      0.1605
    207  C        -32.4870   26.9150  -20.6180 C.2   327  PHE327      0.2264
    208  O        -33.0850   25.9030  -20.2520 O.2   327  PHE327     -0.2867
    209  CB       -30.3350   26.4690  -19.3920 C.3   327  PHE327      0.0534
    210  CG       -29.6540   25.8470  -20.5770 C.ar  327  PHE327     -0.0203
    211  CD1      -29.2110   26.6280  -21.6300 C.ar  327  PHE327     -0.0042
    212  CD2      -29.4440   24.4800  -20.6310 C.ar  327  PHE327     -0.0042
    213  CE1      -28.5820   26.0550  -22.7190 C.ar  327  PHE327     -0.0003
    214  CE2      -28.8130   23.9010  -21.7140 C.ar  327  PHE327     -0.0003
    215  CZ       -28.3830   24.6890  -22.7600 C.ar  327  PHE327     -0.0000
    216  N        -33.8700   24.9500  -23.6760 N.3   329  LEU329     -0.1245
    217  CA       -33.4820   23.9290  -24.6380 C.3   329  LEU329      0.1561
    218  C        -34.1720   24.1320  -25.9840 C.2   329  LEU329      0.2260
    219  O        -33.7230   23.6070  -27.0010 O.2   329  LEU329     -0.2867
    220  CB       -33.8020   22.5360  -24.0910 C.3   329  LEU329      0.0270
    221  CG       -33.1810   22.1920  -22.7350 C.3   329  LEU329      0.0019
    222  CD1      -33.6710   20.8410  -22.2370 C.3   329  LEU329      0.0001
    223  CD2      -31.6650   22.2120  -22.8300 C.3   329  LEU329      0.0001
    224  N        -31.0400   27.6790  -30.6420 N.3   334  LEU334     -0.1245
    225  CA       -30.6820   26.2670  -30.7110 C.3   334  LEU334      0.1561
    226  C        -31.4570   25.5490  -31.8090 C.2   334  LEU334      0.2260
    227  O        -30.8710   24.9120  -32.6820 O.2   334  LEU334     -0.2867
    228  CB       -30.9280   25.5860  -29.3640 C.3   334  LEU334      0.0270
    229  CG       -30.0540   26.0680  -28.2060 C.3   334  LEU334      0.0019
    230  CD1      -30.3980   25.3180  -26.9280 C.3   334  LEU334      0.0001
    231  CD2      -28.5800   25.9120  -28.5490 C.3   334  LEU334      0.0001
@<TRIPOS>BOND
     1   152   151   ar
     2   153   151   ar
     3   151   150    1
     4   150   147    1
     5   146   147    1
     6   147   148    1
     7    32    31    1
     8    32    33    1
     9    32    35    1
    10   161   162    1
    11   161   160    1
    12    36    35    1
    13    36    37    1
    14    33    34    2
    15   148   154   am
    16   148   149    2
    17   154   155    1
    18    37    38    1
    19   159   160    1
    20   159   158    1
    21   158   155    1
    22    42    43    1
    23   155   156    1
    24    38    39    2
    25   227   226    2
    26    40    39    1
    27    39    41    1
    28   156   157    2
    29    43    44    1
    30   226   225    1
    31    46    44   am
    32    46    47    1
    33    50    47    1
    34    50    51    1
    35    44    45    2
    36   225   224    1
    37   225   228    1
    38    47    48    1
    39    49    48    2
    40    62    61    2
    41    71    69   ar
    42    48    52   am
    43   163   164    1
    44   228   229    1
    45    94    93    1
    46   164   167    1
    47   164   165    1
    48    70    69   ar
    49    61    60    1
    50    69    68    1
    51   231   229    1
    52   167   168    1
    53   229   230    1
    54   195   193   ar
    55   195   196   ar
    56    52    58    1
    57    52    53    1
    58    63    60    1
    59    93    92    1
    60   193   192   ar
    61    59    60    1
    62    59    54   am
    63   165   166    2
    64   165   169   am
    65    58    57    1
    66    64    65    1
    67    68    65    1
    68    65    66    1
    69   169   170    1
    70    53    54    1
    71    53    56    1
    72    54    55    2
    73    92    91    1
    74   196   194   ar
    75   219   218    2
    76   192   194   ar
    77   192   191    1
    78    66    67    2
    79    57    56    1
    80   170   173    1
    81   170   171    1
    82   218   217    1
    83   191   188    1
    84   173   174    1
    85    91    90    1
    86    88    87    1
    87    88    89    2
    88    87    90    1
    89    87    86    1
    90   104   103    1
    91   171   175   am
    92   171   172    2
    93   175   176    1
    94   217   220    1
    95   217   216    1
    96   187   188    1
    97   187   177   am
    98   188   189    1
    99     8     9    1
   100   105   103    1
   101    15    13   ar
   102    77    76    1
   103   220   221    1
   104     9    12    1
   105     9    10    1
   106   189   190    2
   107   103   102    2
   108    12    13    1
   109    72    73    1
   110   179   176    1
   111   179   180    1
   112   176   177    1
   113    13    14   ar
   114   177   178    2
   115    73    76    1
   116    73    74    1
   117    76    78    1
   118   223   221    1
   119   215   213   ar
   120   215   214   ar
   121   221   222    1
   122   213   211   ar
   123   102   101    1
   124    16    10   am
   125    16    17    1
   126    10    11    2
   127    22    20    1
   128   180   182   ar
   129   180   181   ar
   130   182   184   ar
   131   101   100    1
   132    19    18    2
   133    74    75    2
   134    21    20    1
   135   214   212   ar
   136    81    82    2
   137    81    80    1
   138   211   210   ar
   139    85    83    1
   140    20    17    1
   141    17    18    1
   142    83    80    1
   143    83    84    1
   144    99   100    1
   145    99    96    1
   146    18    23   am
   147   184   185   ar
   148   181   183   ar
   149    80    79    1
   150   212   210   ar
   151   207   208    2
   152   207   206    1
   153   210   209    1
   154    95    96    1
   155    96    97    1
   156   185   183   ar
   157   185   186    1
   158    23    24    1
   159   206   209    1
   160   206   205    1
   161    24    25    1
   162    24    27    1
   163   197   198    1
   164    97    98    2
   165    97   106   am
   166    28    27    1
   167    28    29    1
   168    25    26    2
   169   204   202   am
   170    30    29    1
   171   201   198    1
   172   201   202    1
   173   198   199    1
   174   109   108    2
   175   136   135    1
   176   106   107    1
   177   202   203    2
   178   144   143   ar
   179   119   118    1
   180   118   115    1
   181   108   107    1
   182   108   114   am
   183   145   143   ar
   184   135   132    1
   185   143   142    1
   186   199   200    2
   187   107   110    1
   188   115   114    1
   189   115   116    1
   190     7     5    1
   191     5     6    1
   192     5     2    1
   193     4     3    2
   194   110   111    1
   195   132   131    1
   196   132   133    1
   197     3     2    1
   198   142   141    1
   199     2     1    1
   200   131   122   am
   201   116   120   am
   202   116   117    2
   203   111   113    1
   204   111   112    1
   205   141   138    1
   206   120   121    1
   207   134   133    2
   208   122   121    1
   209   122   123    2
   210   121   124    1
   211   127   129   ar
   212   127   125   ar
   213   138   139    1
   214   138   137    1
   215   139   140    2
   216   129   130   ar
   217   124   125    1
   218   125   126   ar
   219   130   128   ar
   220   126   128   ar
