@<TRIPOS>MOLECULE
tmp/5vduB00.pdb
 131 124 0 0 0
SMALL
GASTEIGER

@<TRIPOS>ATOM
      1  N        -24.4070  -10.8030   17.7510 N.3    88  ALA88      -0.1245
      2  CA       -24.2950   -9.3530   17.8220 C.3    88  ALA88       0.1562
      3  C        -22.8810   -8.9440   18.2190 C.2    88  ALA88       0.2260
      4  O        -22.4510   -7.8270   17.9410 O.2    88  ALA88      -0.2867
      5  CB       -25.3110   -8.7870   18.8040 C.3    88  ALA88       0.0290
      6  N        -19.0290   -1.1120   18.1270 N.3   201  VAL201     -0.1245
      7  CA       -18.6420   -0.4380   19.3590 C.3   201  VAL201      0.1561
      8  C        -18.0680   -1.4580   20.3360 C.2   201  VAL201      0.2260
      9  O        -18.5150   -2.6010   20.3750 O.2   201  VAL201     -0.2867
     10  CB       -19.8320    0.3240   19.9790 C.3   201  VAL201      0.0252
     11  CG1      -20.3080    1.4190   19.0360 C.3   201  VAL201      0.0019
     12  CG2      -20.9710   -0.6300   20.3070 C.3   201  VAL201      0.0019
     13  N        -19.5590   -5.1230   19.4620 N.3   217  ARG217     -0.1231
     14  CA       -20.9680   -5.3060   19.1330 C.3   217  ARG217      0.1694
     15  C        -21.3850   -4.4310   17.9540 C.2   217  ARG217      0.2592
     16  O        -20.9230   -3.2970   17.8170 O.2   217  ARG217     -0.2718
     17  CB       -21.8480   -5.0000   20.3470 C.3   217  ARG217      0.0321
     18  CG       -23.3230   -5.3110   20.1380 C.3   217  ARG217      0.0489
     19  CD       -24.1390   -5.0100   21.3800 C.3   217  ARG217      0.2205
     20  NE       -24.0990   -3.5940   21.7290 N.pl3 217  ARG217     -0.0865
     21  CZ       -24.4870   -3.1040   22.9010 C.cat 217  ARG217      0.5346
     22  NH1      -24.9500   -3.9190   23.8400 N.pl3 217  ARG217      0.1354
     23  NH2      -24.4160   -1.8010   23.1350 N.pl3 217  ARG217      0.1354
     24  N        -22.2600   -4.9700   17.1090 N.am  218  LEU218     -0.1966
     25  CA       -22.7490   -4.2560   15.9330 C.3   218  LEU218      0.1728
     26  C        -23.5310   -3.0010   16.3080 C.2   218  LEU218      0.2617
     27  O        -24.2420   -2.9730   17.3120 O.2   218  LEU218     -0.2715
     28  CB       -23.6250   -5.1750   15.0780 C.3   218  LEU218      0.0311
     29  CG       -22.9170   -6.3390   14.3840 C.3   218  LEU218      0.0022
     30  CD1      -23.9270   -7.2550   13.7100 C.3   218  LEU218      0.0001
     31  CD2      -21.8990   -5.8220   13.3790 C.3   218  LEU218      0.0001
     32  N        -23.3860   -1.9650   15.4900 N.am  219  SER219     -0.1936
     33  CA       -24.0970   -0.7110   15.6900 C.3   219  SER219      0.2055
     34  C        -24.6190   -0.1630   14.3640 C.2   219  SER219      0.2643
     35  O        -23.8880   -0.1080   13.3580 O.2   219  SER219     -0.2714
     36  CB       -23.1930    0.3190   16.3710 C.3   219  SER219      0.2130
     37  OG       -23.8590    1.5620   16.5150 O.3   219  SER219     -0.2179
     38  N        -25.8880    0.2410   14.3880 N.am  220  PHE220     -0.1959
     39  CA       -26.5850    0.7800   13.2260 C.3   220  PHE220      0.1771
     40  C        -27.3570    2.0460   13.5880 C.2   220  PHE220      0.2620
     41  O        -28.4480    2.2820   13.0690 O.2   220  PHE220     -0.2715
     42  CB       -27.5550   -0.2540   12.6490 C.3   220  PHE220      0.0574
     43  CG       -26.9110   -1.5570   12.2770 C.ar  220  PHE220     -0.0200
     44  CD1      -26.2780   -1.7070   11.0540 C.ar  220  PHE220     -0.0042
     45  CD2      -26.9440   -2.6330   13.1460 C.ar  220  PHE220     -0.0042
     46  CE1      -25.6880   -2.9070   10.7060 C.ar  220  PHE220     -0.0003
     47  CE2      -26.3540   -3.8350   12.8040 C.ar  220  PHE220     -0.0003
     48  CZ       -25.7250   -3.9710   11.5820 C.ar  220  PHE220     -0.0000
     49  N        -26.7950    2.8500   14.4860 N.am  221  SER221     -0.1950
     50  CA       -27.4730    4.0450   14.9840 C.3   221  SER221      0.1924
     51  C        -27.7210    5.0600   13.8690 C.2   221  SER221      0.2314
     52  O        -28.6710    5.8420   13.9270 O.2   221  SER221     -0.2863
     53  CB       -26.6640    4.6900   16.1090 C.3   221  SER221      0.2116
     54  OG       -25.4270    5.1830   15.6280 O.3   221  SER221     -0.2180
     55  N        -30.8080    4.0450   12.1580 N.3   224  GLU224     -0.1245
     56  CA       -31.8950    4.4250   13.0510 C.3   224  GLU224      0.1567
     57  C        -32.2220    5.9060   12.8760 C.2   224  GLU224      0.2260
     58  O        -33.3920    6.3030   12.8560 O.2   224  GLU224     -0.2867
     59  CB       -31.5160    4.1210   14.5020 C.3   224  GLU224      0.0388
     60  CG       -31.2830    2.6420   14.7730 C.3   224  GLU224      0.1160
     61  CD       -30.5690    2.3900   16.0870 C.2   224  GLU224      0.3649
     62  OE1      -30.2920    3.3670   16.8140 O.co2 224  GLU224     -0.2457
     63  OE2      -30.2790    1.2140   16.3900 O.co2 224  GLU224     -0.2457
     64  N        -33.1670    0.2800   29.1580 N.3   275  SER275     -0.1202
     65  CA       -32.6890    1.5180   28.5560 C.3   275  SER275      0.2020
     66  C        -33.6640    2.0490   27.5130 C.2   275  SER275      0.2619
     67  O        -34.6260    1.3750   27.1460 O.2   275  SER275     -0.2717
     68  CB       -31.3150    1.3060   27.9190 C.3   275  SER275      0.2103
     69  OG       -31.4340    0.6250   26.6820 O.3   275  SER275     -0.2182
     70  N        -33.3960    3.2600   27.0350 N.am  276  SER276     -0.1937
     71  CA       -34.2060    3.8830   25.9950 C.3   276  SER276      0.2055
     72  C        -34.1860    3.0690   24.7030 C.2   276  SER276      0.2643
     73  O        -35.1560    3.0740   23.9450 O.2   276  SER276     -0.2714
     74  CB       -33.7200    5.3080   25.7220 C.3   276  SER276      0.2130
     75  OG       -32.3510    5.3190   25.3550 O.3   276  SER276     -0.2179
     76  N        -33.0740    2.3840   24.4490 N.am  277  TYR277     -0.1973
     77  CA       -32.9180    1.5940   23.2300 C.3   277  TYR277      0.1639
     78  C        -33.9380    0.4580   23.1260 C.2   277  TYR277      0.2290
     79  O        -34.3520    0.0940   22.0240 O.2   277  TYR277     -0.2864
     80  CB       -31.5030    1.0230   23.1400 C.3   277  TYR277      0.0560
     81  CG       -31.2000    0.3900   21.8010 C.ar  277  TYR277     -0.0198
     82  CD1      -30.8830    1.1740   20.6990 C.ar  277  TYR277     -0.0009
     83  CD2      -31.2360   -0.9890   21.6350 C.ar  277  TYR277     -0.0009
     84  CE1      -30.6080    0.6030   19.4700 C.ar  277  TYR277      0.0417
     85  CE2      -30.9620   -1.5690   20.4080 C.ar  277  TYR277      0.0417
     86  CZ       -30.6490   -0.7680   19.3300 C.ar  277  TYR277      0.1957
     87  OH       -30.3750   -1.3400   18.1080 O.3   277  TYR277     -0.2866
     88  N        -36.9850    2.1240   21.9060 N.3   280  LYS280     -0.1245
     89  CA       -36.8230    2.4950   20.5040 C.3   280  LYS280      0.1561
     90  C        -37.0020    1.2840   19.5920 C.2   280  LYS280      0.2260
     91  O        -37.6450    1.3720   18.5430 O.2   280  LYS280     -0.2867
     92  CB       -35.4510    3.1360   20.2720 C.3   280  LYS280      0.0271
     93  CG       -35.2380    3.6300   18.8490 C.3   280  LYS280      0.0035
     94  CD       -34.1230    4.6640   18.7580 C.3   280  LYS280      0.0206
     95  CE       -32.7490    4.0260   18.8830 C.3   280  LYS280      0.1093
     96  NZ       -31.6600    5.0030   18.5950 N.3   280  LYS280     -0.1314
     97  N        -33.7680   -7.5760   18.3730 N.3   323  ASN323     -0.1240
     98  CA       -33.0490   -6.4430   17.8080 C.3   323  ASN323      0.1653
     99  C        -33.5840   -6.2060   16.4010 C.2   323  ASN323      0.2266
    100  O        -33.7810   -7.1530   15.6400 O.2   323  ASN323     -0.2867
    101  CB       -31.5410   -6.7050   17.7920 C.3   323  ASN323      0.1155
    102  CG       -30.7520   -5.5530   17.2020 C.2   323  ASN323      0.2627
    103  OD1      -30.6940   -5.3840   15.9850 O.2   323  ASN323     -0.2716
    104  ND2      -30.1350   -4.7550   18.0660 N.am  323  ASN323     -0.0877
    105  N        -30.7800   -7.3440   14.1520 N.3   326  ILE326     -0.1245
    106  CA       -30.3220   -8.7020   14.4210 C.3   326  ILE326      0.1561
    107  C        -31.4400   -9.4890   15.0960 C.2   326  ILE326      0.2260
    108  O        -31.5220   -9.5270   16.3220 O.2   326  ILE326     -0.2867
    109  CB       -29.0510   -8.6990   15.2850 C.3   326  ILE326      0.0252
    110  CG1      -28.0720   -7.6360   14.7860 C.3   326  ILE326      0.0019
    111  CG2      -28.3920  -10.0710   15.2650 C.3   326  ILE326      0.0019
    112  CD1      -26.9910   -7.2860   15.7820 C.3   326  ILE326      0.0001
    113  N        -31.0300  -11.9340   17.9440 N.3   329  PHE329     -0.1241
    114  CA       -30.4910  -11.3040   19.1430 C.3   329  PHE329      0.1605
    115  C        -31.6310  -10.7510   19.9940 C.2   329  PHE329      0.2264
    116  O        -32.2820   -9.7760   19.6190 O.2   329  PHE329     -0.2867
    117  CB       -29.5000  -10.1990   18.7610 C.3   329  PHE329      0.0534
    118  CG       -28.9230   -9.4560   19.9320 C.ar  329  PHE329     -0.0203
    119  CD1      -28.4910  -10.1320   21.0610 C.ar  329  PHE329     -0.0042
    120  CD2      -28.7810   -8.0790   19.8870 C.ar  329  PHE329     -0.0042
    121  CE1      -27.9520   -9.4430   22.1340 C.ar  329  PHE329     -0.0003
    122  CE2      -28.2380   -7.3860   20.9530 C.ar  329  PHE329     -0.0003
    123  CZ       -27.8250   -8.0680   22.0780 C.ar  329  PHE329     -0.0000
    124  N        -33.0390   -8.8880   23.1230 N.3   331  LEU331     -0.1245
    125  CA       -32.6970   -7.9080   24.1470 C.3   331  LEU331      0.1561
    126  C        -33.3460   -8.2290   25.4900 C.2   331  LEU331      0.2260
    127  O        -32.8610   -7.8040   26.5380 O.2   331  LEU331     -0.2867
    128  CB       -33.1140   -6.5070   23.6960 C.3   331  LEU331      0.0270
    129  CG       -32.4660   -5.9720   22.4180 C.3   331  LEU331      0.0019
    130  CD1      -32.9950   -4.5860   22.0920 C.3   331  LEU331      0.0001
    131  CD2      -30.9560   -5.9460   22.5640 C.3   331  LEU331      0.0001
@<TRIPOS>BOND
     1    46    44   ar
     2    46    48   ar
     3    44    43   ar
     4    48    47   ar
     5    55    56    1
     6    43    42    1
     7    43    45   ar
     8    42    39    1
     9    47    45   ar
    10    58    57    2
    11    57    56    1
    12    56    59    1
    13    41    40    2
    14    39    40    1
    15    39    38    1
    16    35    34    2
    17    31    29    1
    18    40    49   am
    19    30    29    1
    20    51    52    2
    21    51    50    1
    22   105   106    1
    23    34    38   am
    24    34    33    1
    25    29    28    1
    26   106   107    1
    27   106   109    1
    28    49    50    1
    29    59    60    1
    30    60    61    1
    31   110   109    1
    32   110   112    1
    33    50    53    1
    34    28    25    1
    35   107   108    2
    36   111   109    1
    37    32    33    1
    38    32    26   am
    39    54    53    1
    40   100    99    2
    41    33    36    1
    42    25    26    1
    43    25    24    1
    44   103   102    2
    45    61    63   ar
    46    61    62   ar
    47    26    27    2
    48    36    37    1
    49    99    98    1
    50    24    15   am
    51   102   101    1
    52   102   104   am
    53     1     2    1
    54   101    98    1
    55    98    97    1
    56    16    15    2
    57     2     3    1
    58     2     5    1
    59     4     3    2
    60   113   114    1
    61    15    14    1
    62    87    86    1
    63     6     7    1
    64    91    90    2
    65    96    95    1
    66    94    93    1
    67    94    95    1
    68   117   114    1
    69   117   118    1
    70    93    92    1
    71    11    10    1
    72    14    13    1
    73    14    17    1
    74   114   115    1
    75    86    84   ar
    76    86    85   ar
    77     7    10    1
    78     7     8    1
    79    84    82   ar
    80    90    89    1
    81   116   115    2
    82   120   118   ar
    83   120   122   ar
    84   118   119   ar
    85    10    12    1
    86    18    17    1
    87    18    19    1
    88    92    89    1
    89     8     9    2
    90    85    83   ar
    91    89    88    1
    92    82    81   ar
    93   122   123   ar
    94   119   121   ar
    95    19    20    1
    96    83    81   ar
    97    20    21    2
    98    81    80    1
    99    79    78    2
   100   123   121   ar
   101   130   129    1
   102   129   131    1
   103   129   128    1
   104    21    23    1
   105    21    22    1
   106   124   125    1
   107    78    77    1
   108    80    77    1
   109    77    76    1
   110   128   125    1
   111    73    72    2
   112   125   126    1
   113    76    72   am
   114    72    71    1
   115    75    74    1
   116   126   127    2
   117    74    71    1
   118    71    70    1
   119    69    68    1
   120    70    66   am
   121    67    66    2
   122    66    65    1
   123    68    65    1
   124    65    64    1
