@<TRIPOS>MOLECULE
tmp/5vdvB00.pdb
 107 103 0 0 0
SMALL
GASTEIGER

@<TRIPOS>ATOM
      1  N        -20.4050   -3.2130   19.4000 N.3   192  VAL192     -0.1245
      2  CA       -20.1400   -2.5890   20.6870 C.3   192  VAL192      0.1561
      3  C        -19.7770   -3.6560   21.7090 C.2   192  VAL192      0.2260
      4  O        -20.4010   -4.7160   21.7520 O.2   192  VAL192     -0.2867
      5  CB       -21.3440   -1.7630   21.1690 C.3   192  VAL192      0.0252
      6  CG1      -21.6170   -0.6130   20.2120 C.3   192  VAL192      0.0019
      7  CG2      -22.5700   -2.6500   21.3140 C.3   192  VAL192      0.0019
      8  N        -21.3660   -7.0810   20.7800 N.3   205  ARG205     -0.1231
      9  CA       -22.7590   -7.1680   20.3500 C.3   205  ARG205      0.1694
     10  C        -23.0180   -6.2860   19.1350 C.2   205  ARG205      0.2592
     11  O        -22.4800   -5.1840   19.0300 O.2   205  ARG205     -0.2718
     12  CB       -23.7090   -6.7790   21.4860 C.3   205  ARG205      0.0321
     13  CG       -25.1680   -7.1120   21.1980 C.3   205  ARG205      0.0489
     14  CD       -26.0680   -6.8120   22.3870 C.3   205  ARG205      0.2205
     15  NE       -26.0880   -5.3900   22.7190 N.pl3 205  ARG205     -0.0865
     16  CZ       -26.4030   -4.9060   23.9160 C.cat 205  ARG205      0.5346
     17  NH1      -26.7210   -5.7310   24.9050 N.pl3 205  ARG205      0.1354
     18  NH2      -26.3970   -3.5960   24.1270 N.pl3 205  ARG205      0.1354
     19  N        -23.8470   -6.7750   18.2190 N.am  206  LEU206     -0.1966
     20  CA       -24.2040   -6.0100   17.0320 C.3   206  LEU206      0.1728
     21  C        -24.9020   -4.7090   17.4130 C.2   206  LEU206      0.2617
     22  O        -25.6160   -4.6420   18.4140 O.2   206  LEU206     -0.2715
     23  CB       -25.0990   -6.8360   16.1060 C.3   206  LEU206      0.0311
     24  CG       -24.4330   -8.0220   15.4060 C.3   206  LEU206      0.0022
     25  CD1      -25.4490   -8.8040   14.5870 C.3   206  LEU206      0.0001
     26  CD2      -23.2800   -7.5540   14.5320 C.3   206  LEU206      0.0001
     27  N        -24.6880   -3.6760   16.6070 N.am  207  SER207     -0.1936
     28  CA       -25.3060   -2.3770   16.8380 C.3   207  SER207      0.2055
     29  C        -25.7870   -1.7840   15.5190 C.2   207  SER207      0.2643
     30  O        -25.0240   -1.6870   14.5580 O.2   207  SER207     -0.2714
     31  CB       -24.3250   -1.4260   17.5260 C.3   207  SER207      0.2130
     32  OG       -24.9730   -0.2370   17.9420 O.3   207  SER207     -0.2179
     33  N        -27.0550   -1.3890   15.4790 N.am  208  PHE208     -0.1973
     34  CA       -27.6390   -0.8170   14.2720 C.3   208  PHE208      0.1639
     35  C        -28.2940    0.5250   14.5760 C.2   208  PHE208      0.2290
     36  O        -29.2460    0.9290   13.9070 O.2   208  PHE208     -0.2864
     37  CB       -28.6610   -1.7790   13.6640 C.3   208  PHE208      0.0560
     38  CG       -28.1040   -3.1400   13.3550 C.ar  208  PHE208     -0.0200
     39  CD1      -27.3520   -3.3540   12.2110 C.ar  208  PHE208     -0.0042
     40  CD2      -28.3350   -4.2060   14.2080 C.ar  208  PHE208     -0.0042
     41  CE1      -26.8400   -4.6050   11.9240 C.ar  208  PHE208     -0.0003
     42  CE2      -27.8260   -5.4600   13.9270 C.ar  208  PHE208     -0.0003
     43  CZ       -27.0770   -5.6600   12.7840 C.ar  208  PHE208     -0.0000
     44  N        -33.6910   -3.3610   35.3250 N.3   261  LYS261     -0.1245
     45  CA       -33.2750   -4.1000   34.1360 C.3   261  LYS261      0.1561
     46  C        -33.8760   -3.5410   32.8460 C.2   261  LYS261      0.2260
     47  O        -33.3340   -3.7560   31.7620 O.2   261  LYS261     -0.2867
     48  CB       -33.6440   -5.5780   34.2800 C.3   261  LYS261      0.0271
     49  CG       -32.7550   -6.3430   35.2690 C.3   261  LYS261      0.0035
     50  CD       -33.5270   -7.5420   35.7760 C.3   261  LYS261      0.0206
     51  CE       -32.4280   -8.2250   36.5410 C.3   261  LYS261      0.1093
     52  NZ       -33.0020   -9.5590   36.7840 N.3   261  LYS261     -0.1314
     53  N        -34.9500   -0.8690   29.9330 N.3   263  SER263     -0.1217
     54  CA       -34.2410    0.2250   29.2770 C.3   263  SER263      0.1889
     55  C        -35.0910    0.8570   28.1780 C.2   263  SER263      0.2288
     56  O        -36.0770    0.2730   27.7280 O.2   263  SER263     -0.2866
     57  CB       -32.9140   -0.2690   28.6950 C.3   263  SER263      0.2089
     58  OG       -32.2710    0.7510   27.9500 O.3   263  SER263     -0.2183
     59  N        -34.3710    1.1900   25.1800 N.3   265  TYR265     -0.1227
     60  CA       -34.2510    0.4050   23.9570 C.3   265  TYR265      0.1736
     61  C        -35.3860   -0.6060   23.8360 C.2   265  TYR265      0.2595
     62  O        -35.8960   -0.8520   22.7430 O.2   265  TYR265     -0.2718
     63  CB       -32.9020   -0.3150   23.9060 C.3   265  TYR265      0.0548
     64  CG       -32.6280   -0.9640   22.5700 C.ar  265  TYR265     -0.0200
     65  CD1      -32.2230   -0.2050   21.4790 C.ar  265  TYR265     -0.0009
     66  CD2      -32.7860   -2.3320   22.3950 C.ar  265  TYR265     -0.0009
     67  CE1      -31.9760   -0.7920   20.2530 C.ar  265  TYR265      0.0417
     68  CE2      -32.5410   -2.9280   21.1710 C.ar  265  TYR265      0.0417
     69  CZ       -32.1360   -2.1530   20.1040 C.ar  265  TYR265      0.1957
     70  OH       -31.8910   -2.7390   18.8830 O.3   265  TYR265     -0.2866
     71  N        -35.7720   -1.1960   24.9630 N.am  266  HIS266     -0.1975
     72  CA       -36.8850   -2.1380   24.9910 C.3   266  HIS266      0.1656
     73  C        -38.1540   -1.4890   24.4490 C.2   266  HIS266      0.2291
     74  O        -38.9280   -2.1180   23.7270 O.2   266  HIS266     -0.2864
     75  CB       -37.1200   -2.6540   26.4120 C.3   266  HIS266      0.0771
     76  CG       -35.9920   -3.4770   26.9510 C.ar  266  HIS266      0.0820
     77  ND1      -35.3950   -3.2170   28.1660 N.ar  266  HIS266     -0.2267
     78  CD2      -35.3540   -4.5570   26.4420 C.ar  266  HIS266      0.1154
     79  CE1      -34.4370   -4.1000   28.3820 C.ar  266  HIS266      0.1986
     80  NE2      -34.3910   -4.9250   27.3510 N.ar  266  HIS266     -0.2212
     81  N        -35.3090   -8.7020   19.1150 N.3   311  ASN311     -0.1240
     82  CA       -34.5100   -7.6000   18.6010 C.3   311  ASN311      0.1653
     83  C        -34.9800   -7.3100   17.1800 C.2   311  ASN311      0.2266
     84  O        -35.1060   -8.2250   16.3650 O.2   311  ASN311     -0.2867
     85  CB       -33.0180   -7.9400   18.6310 C.3   311  ASN311      0.1155
     86  CG       -32.1540   -6.8230   18.0800 C.2   311  ASN311      0.2627
     87  OD1      -32.0250   -6.6620   16.8670 O.2   311  ASN311     -0.2716
     88  ND2      -31.5550   -6.0440   18.9730 N.am  311  ASN311     -0.0877
     89  N        -33.0720  -13.0930   18.8630 N.3   317  PHE317     -0.1241
     90  CA       -32.6080  -12.5160   20.1190 C.3   317  PHE317      0.1605
     91  C        -33.7850  -11.9460   20.9080 C.2   317  PHE317      0.2264
     92  O        -34.3680  -10.9340   20.5200 O.2   317  PHE317     -0.2867
     93  CB       -31.5650  -11.4270   19.8560 C.3   317  PHE317      0.0534
     94  CG       -30.9600  -10.8520   21.1030 C.ar  317  PHE317     -0.0203
     95  CD1      -30.8220  -11.6260   22.2430 C.ar  317  PHE317     -0.0042
     96  CD2      -30.5310   -9.5350   21.1380 C.ar  317  PHE317     -0.0042
     97  CE1      -30.2660  -11.0990   23.3930 C.ar  317  PHE317     -0.0003
     98  CE2      -29.9750   -9.0020   22.2850 C.ar  317  PHE317     -0.0003
     99  CZ       -29.8420   -9.7850   23.4140 C.ar  317  PHE317     -0.0000
    100  N        -35.0270   -9.9760   23.8250 N.3   319  LEU319     -0.1245
    101  CA       -34.6430   -9.0050   24.8430 C.3   319  LEU319      0.1561
    102  C        -35.3380   -9.2670   26.1790 C.2   319  LEU319      0.2260
    103  O        -34.8430   -8.8600   27.2310 O.2   319  LEU319     -0.2867
    104  CB       -34.9540   -7.5840   24.3670 C.3   319  LEU319      0.0270
    105  CG       -34.4220   -7.1840   22.9880 C.3   319  LEU319      0.0019
    106  CD1      -35.0120   -5.8520   22.5560 C.3   319  LEU319      0.0001
    107  CD2      -32.9030   -7.1220   22.9860 C.3   319  LEU319      0.0001
@<TRIPOS>BOND
     1    41    39   ar
     2    41    43   ar
     3    39    38   ar
     4    43    42   ar
     5    38    37    1
     6    38    40   ar
     7    37    34    1
     8    36    35    2
     9    42    40   ar
    10    34    35    1
    11    34    33    1
    12    26    24    1
    13    30    29    2
    14    25    24    1
    15    24    23    1
    16    33    29   am
    17    29    28    1
    18    23    20    1
    19    84    83    2
    20    27    28    1
    21    27    21   am
    22    28    31    1
    23    87    86    2
    24    20    21    1
    25    20    19    1
    26    83    82    1
    27    21    22    2
    28    31    32    1
    29    86    85    1
    30    86    88   am
    31    19    10   am
    32    82    85    1
    33    82    81    1
    34    89    90    1
    35    70    69    1
    36    11    10    2
    37    10     9    1
    38     1     2    1
    39    93    90    1
    40    93    94    1
    41    69    67   ar
    42    69    68   ar
    43    90    91    1
    44     6     5    1
    45    67    65   ar
    46     9     8    1
    47     9    12    1
    48    92    91    2
    49     2     5    1
    50     2     3    1
    51    94    96   ar
    52    94    95   ar
    53    96    98   ar
    54     5     7    1
    55    68    66   ar
    56    13    12    1
    57    13    14    1
    58    65    64   ar
    59     3     4    2
    60    95    97   ar
    61    98    99   ar
    62    14    15    1
    63    66    64   ar
    64   106   105    1
    65    64    63    1
    66    15    16    2
    67    62    61    2
    68   107   105    1
    69   105   104    1
    70    97    99   ar
    71    74    73    2
    72   100   101    1
    73    61    60    1
    74    61    71   am
    75    63    60    1
    76    16    18    1
    77    16    17    1
    78    60    59    1
    79   104   101    1
    80    73    72    1
    81   101   102    1
    82    71    72    1
    83    72    75    1
    84   102   103    2
    85    75    76    1
    86    78    76   ar
    87    78    80   ar
    88    76    77   ar
    89    80    79   ar
    90    56    55    2
    91    58    57    1
    92    77    79   ar
    93    55    54    1
    94    57    54    1
    95    54    53    1
    96    47    46    2
    97    46    45    1
    98    45    48    1
    99    45    44    1
   100    48    49    1
   101    49    50    1
   102    50    51    1
   103    51    52    1
