@<TRIPOS>MOLECULE
tmp/5vdwA00.pdb
 143 135 0 0 0
SMALL
GASTEIGER

@<TRIPOS>ATOM
      1  N        -22.0680    7.4830  -21.2990 N.3    69  MET69      -0.1245
      2  CA       -21.3920    8.6830  -20.8220 C.3    69  MET69       0.1570
      3  C        -20.1840    8.3490  -19.9550 C.2    69  MET69       0.2261
      4  O        -20.2840    7.5890  -18.9870 O.2    69  MET69      -0.2867
      5  CB       -22.3730    9.5570  -20.0370 C.3    69  MET69       0.0387
      6  CG       -23.0240   10.6720  -20.8410 C.3    69  MET69       0.0595
      7  SD       -24.0040   11.7790  -19.8070 S.3    69  MET69      -0.1393
      8  CE       -25.0650   12.5320  -21.0430 C.3    69  MET69       0.0692
      9  N        -27.4150   27.8670  -19.4220 N.3    87  ALA87      -0.1245
     10  CA       -27.0920   26.4520  -19.5530 C.3    87  ALA87       0.1562
     11  C        -25.6490   26.2380  -19.9950 C.2    87  ALA87       0.2260
     12  O        -25.0550   25.2000  -19.7080 O.2    87  ALA87      -0.2867
     13  CB       -28.0460   25.7860  -20.5290 C.3    87  ALA87       0.0290
     14  N        -21.3580   18.7130  -20.2180 N.3   200  VAL200     -0.1245
     15  CA       -20.9870   18.1030  -21.4880 C.3   200  VAL200      0.1561
     16  C        -20.5380   19.1840  -22.4670 C.2   200  VAL200      0.2260
     17  O        -21.0700   20.2910  -22.4580 O.2   200  VAL200     -0.2867
     18  CB       -22.1480   17.2670  -22.0690 C.3   200  VAL200      0.0252
     19  CG1      -22.4660   16.0950  -21.1540 C.3   200  VAL200      0.0019
     20  CG2      -23.3850   18.1300  -22.2800 C.3   200  VAL200      0.0019
     21  N        -22.2570   22.7310  -21.5050 N.3   216  ARG216     -0.1231
     22  CA       -23.6620   22.7620  -21.1160 C.3   216  ARG216      0.1694
     23  C        -23.9250   21.8740  -19.9010 C.2   216  ARG216      0.2592
     24  O        -23.3310   20.8030  -19.7630 O.2   216  ARG216     -0.2718
     25  CB       -24.5540   22.3350  -22.2850 C.3   216  ARG216      0.0321
     26  CG       -26.0350   22.5970  -22.0550 C.3   216  ARG216      0.0489
     27  CD       -26.8590   22.3140  -23.3010 C.3   216  ARG216      0.2205
     28  NE       -26.8620   20.8960  -23.6480 N.pl3 216  ARG216     -0.0865
     29  CZ       -27.3670   20.4040  -24.7740 C.cat 216  ARG216      0.5346
     30  NH1      -27.9120   21.2170  -25.6690 N.pl3 216  ARG216      0.1354
     31  NH2      -27.3290   19.0990  -25.0070 N.pl3 216  ARG216      0.1354
     32  N        -24.8190   22.3300  -19.0270 N.am  217  LEU217     -0.1966
     33  CA       -25.1890   21.5800  -17.8300 C.3   217  LEU217      0.1728
     34  C        -25.8780   20.2610  -18.1650 C.2   217  LEU217      0.2617
     35  O        -26.5900   20.1520  -19.1630 O.2   217  LEU217     -0.2715
     36  CB       -26.0980   22.4200  -16.9290 C.3   217  LEU217      0.0311
     37  CG       -25.4400   23.5550  -16.1440 C.3   217  LEU217      0.0022
     38  CD1      -26.4900   24.3920  -15.4340 C.3   217  LEU217      0.0001
     39  CD2      -24.4410   22.9900  -15.1490 C.3   217  LEU217      0.0001
     40  N        -25.6580   19.2630  -17.3160 N.am  218  SER218     -0.1936
     41  CA       -26.2850   17.9590  -17.4680 C.3   218  SER218      0.2055
     42  C        -26.6360   17.3610  -16.1070 C.2   218  SER218      0.2643
     43  O        -25.8220   17.3820  -15.1690 O.2   218  SER218     -0.2714
     44  CB       -25.3720   17.0100  -18.2480 C.3   218  SER218      0.2130
     45  OG       -26.0520   15.8120  -18.5820 O.3   218  SER218     -0.2179
     46  N        -27.8520   16.8230  -16.0250 N.am  219  PHE219     -0.1959
     47  CA       -28.3940   16.2390  -14.8010 C.3   219  PHE219      0.1771
     48  C        -29.0300   14.8760  -15.0680 C.2   219  PHE219      0.2620
     49  O        -30.0500   14.5370  -14.4660 O.2   219  PHE219     -0.2715
     50  CB       -29.4380   17.1690  -14.1760 C.3   219  PHE219      0.0574
     51  CG       -28.9050   18.5180  -13.7970 C.ar  219  PHE219     -0.0200
     52  CD1      -28.2790   18.7120  -12.5770 C.ar  219  PHE219     -0.0042
     53  CD2      -29.0420   19.5970  -14.6540 C.ar  219  PHE219     -0.0042
     54  CE1      -27.7900   19.9540  -12.2240 C.ar  219  PHE219     -0.0003
     55  CE2      -28.5560   20.8430  -14.3080 C.ar  219  PHE219     -0.0003
     56  CZ       -27.9300   21.0220  -13.0910 C.ar  219  PHE219     -0.0000
     57  N        -28.4370   14.1070  -15.9790 N.am  220  SER220     -0.1950
     58  CA       -28.9880   12.8130  -16.3840 C.3   220  SER220      0.1924
     59  C        -29.1320   11.8370  -15.2170 C.2   220  SER220      0.2314
     60  O        -30.0280   10.9900  -15.2150 O.2   220  SER220     -0.2863
     61  CB       -28.1180   12.1820  -17.4750 C.3   220  SER220      0.2116
     62  OG       -26.8520   11.8020  -16.9660 O.3   220  SER220     -0.2180
     63  N        -32.2440   12.6720  -13.4020 N.3   223  GLU223     -0.1245
     64  CA       -33.3430   12.1720  -14.2180 C.3   223  GLU223      0.1567
     65  C        -33.5370   10.6750  -13.9860 C.2   223  GLU223      0.2260
     66  O        -34.6680   10.1950  -13.8400 O.2   223  GLU223     -0.2867
     67  CB       -33.0790   12.4560  -15.6980 C.3   223  GLU223      0.0388
     68  CG       -33.1530   13.9300  -16.0610 C.3   223  GLU223      0.1160
     69  CD       -32.4190   14.2570  -17.3490 C.2   223  GLU223      0.3649
     70  OE1      -31.9080   13.3230  -18.0010 O.co2 223  GLU223     -0.2457
     71  OE2      -32.3530   15.4520  -17.7090 O.co2 223  GLU223     -0.2457
     72  N        -35.3120   17.8050  -35.7050 N.3   272  LYS272     -0.1245
     73  CA       -34.8510   18.5550  -34.5390 C.3   272  LYS272      0.1561
     74  C        -35.4400   18.0440  -33.2240 C.2   272  LYS272      0.2260
     75  O        -34.9350   18.3620  -32.1480 O.2   272  LYS272     -0.2867
     76  CB       -35.1820   20.0400  -34.7040 C.3   272  LYS272      0.0271
     77  CG       -34.5220   20.6090  -35.9670 C.3   272  LYS272      0.0035
     78  CD       -34.7870   22.0990  -36.0380 C.3   272  LYS272      0.0206
     79  CE       -34.3070   22.6970  -37.3540 C.3   272  LYS272      0.1093
     80  NZ       -34.8630   24.0960  -37.4210 N.3   272  LYS272     -0.1314
     81  N        -36.3810   15.3280  -30.2870 N.3   274  SER274     -0.1217
     82  CA       -35.7510   14.1710  -29.6620 C.3   274  SER274      0.1889
     83  C        -36.5880   13.6720  -28.4870 C.2   274  SER274      0.2288
     84  O        -37.6150   14.2620  -28.1530 O.2   274  SER274     -0.2866
     85  CB       -34.3360   14.5140  -29.1930 C.3   274  SER274      0.2089
     86  OG       -34.3490   15.0160  -27.8700 O.3   274  SER274     -0.2183
     87  N        -35.7330   13.6620  -25.4340 N.3   276  TYR276     -0.1227
     88  CA       -35.5040   14.4970  -24.2610 C.3   276  TYR276      0.1736
     89  C        -36.6120   15.5340  -24.0990 C.2   276  TYR276      0.2595
     90  O        -36.9560   15.9180  -22.9810 O.2   276  TYR276     -0.2718
     91  CB       -34.1420   15.1870  -24.3490 C.3   276  TYR276      0.0548
     92  CG       -33.7700   15.9590  -23.1040 C.ar  276  TYR276     -0.0200
     93  CD1      -33.3810   15.3000  -21.9460 C.ar  276  TYR276     -0.0009
     94  CD2      -33.8050   17.3470  -23.0870 C.ar  276  TYR276     -0.0009
     95  CE1      -33.0400   16.0000  -20.8040 C.ar  276  TYR276      0.0417
     96  CE2      -33.4660   18.0560  -21.9490 C.ar  276  TYR276      0.0417
     97  CZ       -33.0840   17.3760  -20.8110 C.ar  276  TYR276      0.1957
     98  OH       -32.7430   18.0740  -19.6750 O.3   276  TYR276     -0.2866
     99  N        -37.1630   15.9870  -25.2210 N.am  277  HIS277     -0.1975
    100  CA       -38.2990   16.9010  -25.2030 C.3   277  HIS277      0.1656
    101  C        -39.4960   16.2180  -24.5490 C.2   277  HIS277      0.2291
    102  O        -40.1470   16.7760  -23.6590 O.2   277  HIS277     -0.2864
    103  CB       -38.6500   17.3490  -26.6220 C.3   277  HIS277      0.0771
    104  CG       -37.5530   18.1020  -27.3080 C.ar  277  HIS277      0.0820
    105  ND1      -37.1890   17.8600  -28.6150 N.ar  277  HIS277     -0.2267
    106  CD2      -36.7440   19.0950  -26.8710 C.ar  277  HIS277      0.1154
    107  CE1      -36.2000   18.6680  -28.9520 C.ar  277  HIS277      0.1986
    108  NE2      -35.9120   19.4290  -27.9120 N.ar  277  HIS277     -0.2212
    109  N        -36.5890   23.7220  -19.5680 N.3   322  ASN322     -0.1240
    110  CA       -35.7390   22.6530  -19.0620 C.3   322  ASN322      0.1653
    111  C        -36.1080   22.4180  -17.6040 C.2   322  ASN322      0.2266
    112  O        -36.1740   23.3630  -16.8160 O.2   322  ASN322     -0.2867
    113  CB       -34.2570   23.0100  -19.2090 C.3   322  ASN322      0.1155
    114  CG       -33.3370   21.9330  -18.6650 C.2   322  ASN322      0.2627
    115  OD1      -33.1970   21.7710  -17.4530 O.2   322  ASN322     -0.2716
    116  ND2      -32.7000   21.1910  -19.5640 N.am  322  ASN322     -0.0877
    117  N        -33.3150   23.8440  -15.5420 N.3   325  ILE325     -0.1245
    118  CA       -32.9940   25.2300  -15.8580 C.3   325  ILE325      0.1561
    119  C        -34.2160   25.9030  -16.4750 C.2   325  ILE325      0.2260
    120  O        -34.3620   25.9250  -17.6970 O.2   325  ILE325     -0.2867
    121  CB       -31.7820   25.3220  -16.7990 C.3   325  ILE325      0.0252
    122  CG1      -30.7060   24.3180  -16.3820 C.3   325  ILE325      0.0019
    123  CG2      -31.2190   26.7340  -16.8050 C.3   325  ILE325      0.0019
    124  CD1      -29.6550   24.0760  -17.4420 C.3   325  ILE325      0.0001
    125  N        -34.2900   28.2990  -19.5120 N.3   328  PHE328     -0.1241
    126  CA       -33.8340   27.7570  -20.7870 C.3   328  PHE328      0.1605
    127  C        -34.9910   27.1060  -21.5400 C.2   328  PHE328      0.2264
    128  O        -35.5770   26.1290  -21.0720 O.2   328  PHE328     -0.2867
    129  CB       -32.7030   26.7500  -20.5790 C.3   328  PHE328      0.0534
    130  CG       -31.9610   26.4080  -21.8390 C.ar  328  PHE328     -0.0203
    131  CD1      -30.8780   27.1680  -22.2490 C.ar  328  PHE328     -0.0042
    132  CD2      -32.3520   25.3320  -22.6190 C.ar  328  PHE328     -0.0042
    133  CE1      -30.1930   26.8580  -23.4110 C.ar  328  PHE328     -0.0003
    134  CE2      -31.6730   25.0180  -23.7810 C.ar  328  PHE328     -0.0003
    135  CZ       -30.5920   25.7810  -24.1780 C.ar  328  PHE328     -0.0000
    136  N        -36.3630   24.9150  -24.4100 N.3   330  LEU330     -0.1245
    137  CA       -36.0310   23.8620  -25.3670 C.3   330  LEU330      0.1561
    138  C        -36.7530   24.0500  -26.6990 C.2   330  LEU330      0.2260
    139  O        -36.3220   23.5270  -27.7270 O.2   330  LEU330     -0.2867
    140  CB       -36.3730   22.4870  -24.7890 C.3   330  LEU330      0.0270
    141  CG       -35.6410   22.0440  -23.5210 C.3   330  LEU330      0.0019
    142  CD1      -36.1570   20.6920  -23.0520 C.3   330  LEU330      0.0001
    143  CD2      -34.1410   21.9910  -23.7590 C.3   330  LEU330      0.0001
@<TRIPOS>BOND
     1    80    79    1
     2    79    78    1
     3    78    77    1
     4    77    76    1
     5    72    73    1
     6    76    73    1
     7    73    74    1
     8    74    75    2
     9    81    82    1
    10    82    85    1
    11    82    83    1
    12    85    86    1
    13   107   105   ar
    14   107   108   ar
    15   105   104   ar
    16    83    84    2
    17   108   106   ar
    18   139   138    2
    19   104   106   ar
    20   104   103    1
    21   138   137    1
    22   103   100    1
    23    30    29    1
    24    87    88    1
    25   137   140    1
    26   137   136    1
    27    99   100    1
    28    99    89   am
    29   100   101    1
    30    31    29    1
    31   140   141    1
    32    29    28    2
    33   101   102    2
    34    91    88    1
    35    91    92    1
    36    88    89    1
    37   135   134   ar
    38   135   133   ar
    39    89    90    2
    40   134   132   ar
    41   143   141    1
    42    28    27    1
    43   141   142    1
    44   133   131   ar
    45    27    26    1
    46    92    94   ar
    47    92    93   ar
    48    94    96   ar
    49   132   130   ar
    50    16    17    2
    51    16    15    1
    52    25    26    1
    53    25    22    1
    54    20    18    1
    55   131   130   ar
    56    18    15    1
    57    18    19    1
    58    96    97   ar
    59    93    95   ar
    60   130   129    1
    61   127   128    2
    62   127   126    1
    63    21    22    1
    64    15    14    1
    65     1     2    1
    66    22    23    1
    67     8     7    1
    68     6     5    1
    69     6     7    1
    70     2     5    1
    71     2     3    1
    72    97    95   ar
    73    97    98    1
    74   126   129    1
    75   126   125    1
    76    13    10    1
    77    11    12    2
    78    11    10    1
    79     3     4    2
    80    23    24    2
    81    23    32   am
    82   109   110    1
    83   116   114   am
    84    10     9    1
    85   113   110    1
    86   113   114    1
    87    35    34    2
    88   110   111    1
    89    32    33    1
    90   114   115    2
    91    45    44    1
    92    44    41    1
    93    34    33    1
    94    34    40   am
    95    70    69   ar
    96    33    36    1
    97    71    69   ar
    98   120   119    2
    99   111   112    2
   100    61    62    1
   101    61    58    1
   102    41    40    1
   103    41    42    1
   104   124   122    1
   105    69    68    1
   106    36    37    1
   107   123   121    1
   108   121   122    1
   109   121   118    1
   110   119   118    1
   111    58    57    1
   112    58    59    1
   113    37    38    1
   114    37    39    1
   115    42    46   am
   116    42    43    2
   117    68    67    1
   118    46    47    1
   119    57    48   am
   120   118   117    1
   121    67    64    1
   122    59    60    2
   123    48    47    1
   124    48    49    2
   125    47    50    1
   126    53    55   ar
   127    53    51   ar
   128    55    56   ar
   129    64    65    1
   130    64    63    1
   131    50    51    1
   132    65    66    2
   133    51    52   ar
   134    56    54   ar
   135    52    54   ar
