@<TRIPOS>MOLECULE
tmp/5ve2D00.pdb
 138 133 0 0 0
SMALL
GASTEIGER

@<TRIPOS>ATOM
      1  N         18.6950   -8.6020   -9.6300 N.3    60  ALA60      -0.1231
      2  CA        19.3980   -8.5750   -8.3490 C.3    60  ALA60       0.1694
      3  C         19.5000   -7.1700   -7.7350 C.2    60  ALA60       0.2593
      4  O         20.0980   -7.0230   -6.6910 O.2    60  ALA60      -0.2718
      5  CB        20.7740   -9.1970   -8.4890 C.3    60  ALA60       0.0304
      6  N         18.9170   -6.1580   -8.3630 N.am   61  GLY61      -0.1942
      7  CA        18.8970   -4.7950   -7.8130 C.3    61  GLY61       0.2014
      8  C         19.8280   -3.8800   -8.5630 C.2    61  GLY61       0.2638
      9  O         20.1830   -4.1530   -9.7060 O.2    61  GLY61      -0.2714
     10  N         20.2160   -2.7840   -7.9260 N.am   62  ASN62      -0.1972
     11  CA        21.2020   -1.8520   -8.5110 C.3    62  ASN62       0.1688
     12  C         22.5710   -2.4810   -8.6950 C.2    62  ASN62       0.2292
     13  O         23.1030   -3.1110   -7.7850 O.2    62  ASN62      -0.2864
     14  CB        21.3500   -0.6010   -7.6510 C.3    62  ASN62       0.1181
     15  CG        20.2740    0.4120   -7.9460 C.2    62  ASN62       0.2629
     16  OD1       20.3270    1.0930   -8.9490 O.2    62  ASN62      -0.2716
     17  ND2       19.3180    0.5450   -7.0510 N.am   62  ASN62      -0.0877
     18  N         26.3380    2.0900   -9.4060 N.3    67  PHE67      -0.1241
     19  CA        25.7120    2.8020   -8.2650 C.3    67  PHE67       0.1605
     20  C         26.5760    3.9280   -7.7160 C.2    67  PHE67       0.2264
     21  O         26.0780    5.0240   -7.4940 O.2    67  PHE67      -0.2867
     22  CB        25.4210    1.8230   -7.1040 C.3    67  PHE67       0.0534
     23  CG        24.2780    2.2280   -6.1960 C.ar   67  PHE67      -0.0203
     24  CD1       23.0330    2.5910   -6.7040 C.ar   67  PHE67      -0.0042
     25  CD2       24.4380    2.1600   -4.8230 C.ar   67  PHE67      -0.0042
     26  CE1       21.9920    2.9220   -5.8690 C.ar   67  PHE67      -0.0003
     27  CE2       23.3880    2.4810   -3.9830 C.ar   67  PHE67      -0.0003
     28  CZ        22.1570    2.8710   -4.5040 C.ar   67  PHE67      -0.0000
     29  N         14.3500  -14.2090   -8.4300 N.3   100  PRO100     -0.2116
     30  CA        14.5590  -13.1800   -7.4330 C.3   100  PRO100      0.1372
     31  C         14.4130  -11.7650   -7.9510 C.2   100  PRO100      0.2244
     32  O         14.9760  -11.4220   -8.9890 O.2   100  PRO100     -0.2868
     33  CB        15.9970  -13.4520   -6.9640 C.3   100  PRO100      0.0268
     34  CG        16.1800  -14.9370   -7.1050 C.3   100  PRO100      0.0207
     35  CD        15.2720  -15.3540   -8.2380 C.3   100  PRO100      0.0892
     36  N         14.9470   -8.1820   -6.3490 N.3   102  ILE102     -0.1231
     37  CA        15.6070   -7.6180   -5.1850 C.3   102  ILE102      0.1692
     38  C         15.6850   -6.0940   -5.3160 C.2   102  ILE102      0.2593
     39  O         16.0790   -5.5520   -6.3730 O.2   102  ILE102     -0.2718
     40  CB        17.0260   -8.1760   -5.0420 C.3   102  ILE102      0.0266
     41  CG1       17.0460   -9.7190   -5.1100 C.3   102  ILE102      0.0019
     42  CG2       17.6790   -7.6880   -3.7440 C.3   102  ILE102      0.0020
     43  CD1       16.3130  -10.4430   -3.9990 C.3   102  ILE102      0.0001
     44  N         15.3270   -5.4000   -4.2330 N.am  103  GLY103     -0.1942
     45  CA        15.4890   -3.9490   -4.1450 C.3   103  GLY103      0.2014
     46  C         14.5950   -3.2320   -5.1440 C.2   103  GLY103      0.2638
     47  O         13.3500   -3.2800   -5.0620 O.2   103  GLY103     -0.2714
     48  N         15.2120   -2.5990   -6.1280 N.am  104  VAL104     -0.1977
     49  CA        14.4200   -1.9370   -7.1720 C.3   104  VAL104      0.1596
     50  C         13.6790   -2.9720   -8.0370 C.2   104  VAL104      0.2287
     51  O         12.6730   -2.6520   -8.6580 O.2   104  VAL104     -0.2864
     52  CB        15.2700   -0.9410   -7.9760 C.3   104  VAL104      0.0276
     53  CG1       16.3280   -1.6740   -8.8210 C.3   104  VAL104      0.0022
     54  CG2       14.3770   -0.0400   -8.8180 C.3   104  VAL104      0.0022
     55  N         11.2870  -14.8850   -6.0430 N.3   120  ARG120     -0.1245
     56  CA        11.5370  -14.5000   -4.6610 C.3   120  ARG120      0.1563
     57  C         11.5070  -12.9740   -4.6380 C.2   120  ARG120      0.2260
     58  O         11.6400  -12.3430   -5.6760 O.2   120  ARG120     -0.2867
     59  CB        12.8850  -15.0270   -4.1820 C.3   120  ARG120      0.0307
     60  CG        13.0640  -16.5540   -4.2220 C.3   120  ARG120      0.0489
     61  CD        12.2430  -17.2130   -3.1160 C.3   120  ARG120      0.2205
     62  NE        12.4030  -18.6720   -3.0090 N.pl3 120  ARG120     -0.0865
     63  CZ        11.7920  -19.5840   -3.7890 C.cat 120  ARG120      0.5346
     64  NH1       10.9560  -19.2360   -4.7840 N.pl3 120  ARG120      0.1354
     65  NH2       12.0470  -20.8710   -3.6050 N.pl3 120  ARG120      0.1354
     66  N         12.4860   -9.3410   -2.2390 N.3   122  ARG122     -0.1245
     67  CA        13.1790   -8.7440   -1.1090 C.3   122  ARG122      0.1563
     68  C         13.4440   -7.2650   -1.3410 C.2   122  ARG122      0.2260
     69  O         13.7460   -6.8540   -2.4680 O.2   122  ARG122     -0.2867
     70  CB        14.4870   -9.4770   -0.8530 C.3   122  ARG122      0.0307
     71  CG        15.0010   -9.2940    0.5650 C.3   122  ARG122      0.0489
     72  CD        16.4410   -9.7420    0.7210 C.3   122  ARG122      0.2205
     73  NE        16.7690   -9.9390    2.1310 N.pl3 122  ARG122     -0.0865
     74  CZ        17.9820  -10.1810    2.6330 C.cat 122  ARG122      0.5346
     75  NH1       19.0380  -10.2320    1.8530 N.pl3 122  ARG122      0.1354
     76  NH2       18.1360  -10.3640    3.9410 N.pl3 122  ARG122      0.1354
     77  N         15.6840   -5.0930    0.9010 N.3   124  PRO124     -0.2102
     78  CA        16.4870   -5.0100    2.1000 C.3   124  PRO124      0.1504
     79  C         17.2220   -3.6850    2.2450 C.2   124  PRO124      0.2575
     80  O         18.4470   -3.6720    2.3900 O.2   124  PRO124     -0.2718
     81  CB        17.4680   -6.1760    1.9230 C.3   124  PRO124      0.0282
     82  CG        17.7740   -6.0880    0.4500 C.3   124  PRO124      0.0208
     83  CD        16.4250   -5.7790   -0.1740 C.3   124  PRO124      0.0893
     84  N         16.4860   -2.5850    2.2690 N.am  125  PHE125     -0.1977
     85  CA        17.1290   -1.2390    2.2810 C.3   125  PHE125      0.1639
     86  C         18.0070   -1.0670    3.5130 C.2   125  PHE125      0.2290
     87  O         19.1190   -0.5570    3.4040 O.2   125  PHE125     -0.2864
     88  CB        16.0740   -0.1240    2.2210 C.3   125  PHE125      0.0560
     89  CG        15.1490   -0.2060    1.0210 C.ar  125  PHE125     -0.0200
     90  CD1       15.6420   -0.0160   -0.2650 C.ar  125  PHE125     -0.0042
     91  CD2       13.7840   -0.4580    1.1800 C.ar  125  PHE125     -0.0042
     92  CE1       14.7960   -0.0830   -1.3700 C.ar  125  PHE125     -0.0003
     93  CE2       12.9300   -0.5270    0.0710 C.ar  125  PHE125     -0.0003
     94  CZ        13.4400   -0.3260   -1.1900 C.ar  125  PHE125     -0.0000
     95  N         19.5220   -3.4590    5.3440 N.3   127  HIS127     -0.1226
     96  CA        20.7690   -4.2650    5.3350 C.3   127  HIS127      0.1752
     97  C         21.9270   -3.5680    4.6180 C.2   127  HIS127      0.2595
     98  O         23.0720   -3.8340    4.9110 O.2   127  HIS127     -0.2718
     99  CB        20.5320   -5.6710    4.7500 C.3   127  HIS127      0.0759
    100  CG        19.6930   -6.5380    5.6320 C.ar  127  HIS127      0.0818
    101  ND1       20.2310   -7.5060    6.4550 N.ar  127  HIS127     -0.2268
    102  CD2       18.3650   -6.5530    5.8520 C.ar  127  HIS127      0.1154
    103  CE1       19.2650   -8.0830    7.1430 C.ar  127  HIS127      0.1986
    104  NE2       18.1230   -7.5200    6.7980 N.ar  127  HIS127     -0.2212
    105  N         21.6200   -2.6600    3.6940 N.am  128  VAL128     -0.1980
    106  CA        22.6570   -1.9060    2.9930 C.3   128  VAL128      0.1595
    107  C         22.8310   -0.4690    3.5310 C.2   128  VAL128      0.2287
    108  O         23.6920    0.2690    3.0870 O.2   128  VAL128     -0.2864
    109  CB        22.4160   -1.9770    1.4510 C.3   128  VAL128      0.0276
    110  CG1       21.1310   -1.2880    1.0110 C.3   128  VAL128      0.0022
    111  CG2       23.6040   -1.4360    0.6790 C.3   128  VAL128      0.0022
    112  N         20.5080    2.0190    3.6000 N.3   130  LEU130     -0.1245
    113  CA        19.7650    2.9880    2.7980 C.3   130  LEU130      0.1561
    114  C         18.3230    3.1140    3.3120 C.2   130  LEU130      0.2260
    115  O         18.0730    2.8120    4.4760 O.2   130  LEU130     -0.2867
    116  CB        19.8720    2.5820    1.3120 C.3   130  LEU130      0.0270
    117  CG        21.2880    2.6460    0.7350 C.3   130  LEU130      0.0019
    118  CD1       21.3000    2.1420   -0.7170 C.3   130  LEU130      0.0001
    119  CD2       21.8450    4.0520    0.7900 C.3   130  LEU130      0.0001
    120  N         12.8640  -12.1740    3.0010 N.3   157  ILE157     -0.1245
    121  CA        12.7630  -12.7160    1.6600 C.3   157  ILE157      0.1561
    122  C         11.4470  -13.5230    1.5600 C.2   157  ILE157      0.2260
    123  O         11.2510  -14.4690    2.3190 O.2   157  ILE157     -0.2867
    124  CB        13.9230  -13.6810    1.3540 C.3   157  ILE157      0.0252
    125  CG1       15.2520  -13.0170    1.6150 C.3   157  ILE157      0.0019
    126  CG2       13.8630  -14.1040   -0.1230 C.3   157  ILE157      0.0019
    127  CD1       16.4410  -13.9740    1.6140 C.3   157  ILE157      0.0001
    128  N         17.6660    9.4040    1.2030 N.3   222  PHE222     -0.1241
    129  CA        18.4440    8.3930    0.4830 C.3   222  PHE222      0.1605
    130  C         19.8310    8.8900    0.1250 C.2   222  PHE222      0.2264
    131  O         20.8340    8.1890    0.3800 O.2   222  PHE222     -0.2867
    132  CB        17.7330    8.0020   -0.8110 C.3   222  PHE222      0.0534
    133  CG        18.2660    6.7590   -1.4680 C.ar  222  PHE222     -0.0203
    134  CD1       17.7440    5.5060   -1.1430 C.ar  222  PHE222     -0.0042
    135  CD2       19.2470    6.8380   -2.4350 C.ar  222  PHE222     -0.0042
    136  CE1       18.2270    4.3620   -1.7540 C.ar  222  PHE222     -0.0003
    137  CE2       19.7390    5.6790   -3.0460 C.ar  222  PHE222     -0.0003
    138  CZ        19.2230    4.4450   -2.7030 C.ar  222  PHE222     -0.0000
@<TRIPOS>BOND
     1     9     8    2
     2     1     2    1
     3    18    19    1
     4    32    31    2
     5    16    15    2
     6    53    52    1
     7    54    52    1
     8    12    11    1
     9    12    13    2
    10    51    50    2
    11     8    10   am
    12     8     7    1
    13    11    10    1
    14    11    14    1
    15     5     2    1
    16    29    35    1
    17    29    30    1
    18     6     7    1
    19     6     3   am
    20     2     3    1
    21    19    20    1
    22    19    22    1
    23    35    34    1
    24    50    49    1
    25    52    49    1
    26    31    30    1
    27    15    14    1
    28    15    17   am
    29     3     4    2
    30    20    21    2
    31    30    33    1
    32    49    48    1
    33    34    33    1
    34    22    23    1
    35    24    23   ar
    36    24    26   ar
    37    39    38    2
    38    36    37    1
    39    23    25   ar
    40    48    46   am
    41    55    56    1
    42    26    28   ar
    43    58    57    2
    44    38    37    1
    45    38    44   am
    46    37    40    1
    47    46    47    2
    48    46    45    1
    49    41    40    1
    50    41    43    1
    51    40    42    1
    52    25    27   ar
    53    64    63    1
    54    56    57    1
    55    56    59    1
    56    28    27   ar
    57    44    45    1
    58    60    59    1
    59    60    61    1
    60    63    65    1
    61    63    62    2
    62    61    62    1
    63   137   138   ar
    64   137   135   ar
    65   138   136   ar
    66    69    68    2
    67   135   133   ar
    68    66    67    1
    69   136   134   ar
    70   133   134   ar
    71   133   132    1
    72    92    94   ar
    73    92    90   ar
    74    68    67    1
    75    94    93   ar
    76    67    70    1
    77    70    71    1
    78   132   129    1
    79   118   117    1
    80    90    89   ar
    81    83    82    1
    82    83    77    1
    83   126   124    1
    84    93    91   ar
    85   130   131    2
    86   130   129    1
    87    82    81    1
    88   129   128    1
    89    71    72    1
    90   111   109    1
    91    72    73    1
    92   117   119    1
    93   117   116    1
    94    77    78    1
    95   110   109    1
    96    89    91   ar
    97    89    88    1
    98   116   113    1
    99   124   125    1
   100   124   121    1
   101   109   106    1
   102   122   121    1
   103   122   123    2
   104   127   125    1
   105   121   120    1
   106    75    74    1
   107    81    78    1
   108    78    79    1
   109    73    74    2
   110    88    85    1
   111    79    84   am
   112    79    80    2
   113    84    85    1
   114    85    86    1
   115    74    76    1
   116   113   114    1
   117   113   112    1
   118   106   107    1
   119   106   105    1
   120   108   107    2
   121   114   115    2
   122    87    86    2
   123   105    97   am
   124    97    98    2
   125    97    96    1
   126    99    96    1
   127    99   100    1
   128    96    95    1
   129   100   102   ar
   130   100   101   ar
   131   102   104   ar
   132   101   103   ar
   133   104   103   ar
