@<TRIPOS>MOLECULE
tmp/5ve2C00.pdb
 147 141 0 0 0
SMALL
GASTEIGER

@<TRIPOS>ATOM
      1  N         57.7440   -3.5620   58.4910 N.3    60  ALA60      -0.1231
      2  CA        58.4480   -3.5450   59.7750 C.3    60  ALA60       0.1694
      3  C         58.5510   -2.1410   60.3970 C.2    60  ALA60       0.2593
      4  O         59.1610   -2.0060   61.4370 O.2    60  ALA60      -0.2718
      5  CB        59.8200   -4.1740   59.6260 C.3    60  ALA60       0.0304
      6  N         57.9690   -1.1280   59.7800 N.am   61  GLY61      -0.1942
      7  CA        57.9630    0.2330   60.3440 C.3    61  GLY61       0.2014
      8  C         58.8940    1.1520   59.5840 C.2    61  GLY61       0.2638
      9  O         59.2390    0.8840   58.4370 O.2    61  GLY61      -0.2714
     10  N         59.2850    2.2460   60.2210 N.am   62  ASN62      -0.1972
     11  CA        60.2680    3.1770   59.6320 C.3    62  ASN62       0.1688
     12  C         61.6350    2.5520   59.4430 C.2    62  ASN62       0.2292
     13  O         62.1690    1.9190   60.3530 O.2    62  ASN62      -0.2864
     14  CB        60.4230    4.4310   60.4960 C.3    62  ASN62       0.1181
     15  CG        59.3450    5.4450   60.2020 C.2    62  ASN62       0.2629
     16  OD1       59.3980    6.1230   59.1940 O.2    62  ASN62      -0.2716
     17  ND2       58.3910    5.5780   61.0980 N.am   62  ASN62      -0.0877
     18  N         65.4100    7.1180   58.7300 N.3    67  PHE67      -0.1241
     19  CA        64.7830    7.8300   59.8700 C.3    67  PHE67       0.1605
     20  C         65.6480    8.9530   60.4210 C.2    67  PHE67       0.2264
     21  O         65.1530   10.0520   60.6420 O.2    67  PHE67      -0.2867
     22  CB        64.4890    6.8510   61.0300 C.3    67  PHE67       0.0534
     23  CG        63.3460    7.2560   61.9390 C.ar   67  PHE67      -0.0203
     24  CD1       62.1020    7.6290   61.4360 C.ar   67  PHE67      -0.0042
     25  CD2       63.5080    7.1660   63.3100 C.ar   67  PHE67      -0.0042
     26  CE1       61.0640    7.9630   62.2690 C.ar   67  PHE67      -0.0003
     27  CE2       62.4570    7.4710   64.1600 C.ar   67  PHE67      -0.0003
     28  CZ        61.2190    7.8850   63.6350 C.ar   67  PHE67      -0.0000
     29  N         53.3840   -9.1750   59.6940 N.3   100  PRO100     -0.2116
     30  CA        53.5950   -8.1450   60.6930 C.3   100  PRO100      0.1372
     31  C         53.4490   -6.7270   60.1750 C.2   100  PRO100      0.2244
     32  O         54.0180   -6.3860   59.1400 O.2   100  PRO100     -0.2868
     33  CB        55.0190   -8.4110   61.1810 C.3   100  PRO100      0.0268
     34  CG        55.1790   -9.9040   61.0700 C.3   100  PRO100      0.0207
     35  CD        54.3020  -10.3190   59.8790 C.3   100  PRO100      0.0892
     36  N         53.9940   -3.1510   61.7880 N.3   102  ILE102     -0.1231
     37  CA        54.6500   -2.5850   62.9530 C.3   102  ILE102      0.1692
     38  C         54.7310   -1.0630   62.8320 C.2   102  ILE102      0.2593
     39  O         55.1290   -0.5180   61.7690 O.2   102  ILE102     -0.2718
     40  CB        56.0810   -3.1420   63.0920 C.3   102  ILE102      0.0266
     41  CG1       56.1020   -4.6830   63.0240 C.3   102  ILE102      0.0019
     42  CG2       56.7360   -2.6590   64.3830 C.3   102  ILE102      0.0020
     43  CD1       55.3700   -5.4110   64.1340 C.3   102  ILE102      0.0001
     44  N         54.3660   -0.3800   63.9150 N.am  103  GLY103     -0.1942
     45  CA        54.5510    1.0760   64.0110 C.3   103  GLY103      0.2014
     46  C         53.6440    1.7980   63.0200 C.2   103  GLY103      0.2638
     47  O         52.3950    1.7500   63.1010 O.2   103  GLY103     -0.2714
     48  N         54.2600    2.4360   62.0430 N.am  104  VAL104     -0.1977
     49  CA        53.4750    3.1030   61.0040 C.3   104  VAL104      0.1596
     50  C         52.7270    2.0690   60.1280 C.2   104  VAL104      0.2287
     51  O         51.7280    2.3930   59.5060 O.2   104  VAL104     -0.2864
     52  CB        54.3330    4.1010   60.2020 C.3   104  VAL104      0.0276
     53  CG1       55.3910    3.3560   59.3500 C.3   104  VAL104      0.0022
     54  CG2       53.4390    5.0030   59.3550 C.3   104  VAL104      0.0022
     55  N         50.3260   -9.8560   62.0830 N.3   120  ARG120     -0.1245
     56  CA        50.5720   -9.4790   63.4620 C.3   120  ARG120      0.1563
     57  C         50.5460   -7.9510   63.4880 C.2   120  ARG120      0.2260
     58  O         50.6790   -7.3140   62.4510 O.2   120  ARG120     -0.2867
     59  CB        51.9210  -10.0090   63.9350 C.3   120  ARG120      0.0307
     60  CG        52.0910  -11.5380   63.9060 C.3   120  ARG120      0.0489
     61  CD        51.2780  -12.1980   65.0020 C.3   120  ARG120      0.2205
     62  NE        51.4310  -13.6580   65.1140 N.pl3 120  ARG120     -0.0865
     63  CZ        50.8110  -14.5700   64.3420 C.cat 120  ARG120      0.5346
     64  NH1       49.9790  -14.2160   63.3360 N.pl3 120  ARG120      0.1354
     65  NH2       50.9940  -15.8640   64.5910 N.pl3 120  ARG120      0.1354
     66  N         51.5430   -4.3300   65.9030 N.3   122  ARG122     -0.1245
     67  CA        52.2320   -3.7380   67.0330 C.3   122  ARG122      0.1563
     68  C         52.4890   -2.2520   66.8090 C.2   122  ARG122      0.2260
     69  O         52.7950   -1.8340   65.6820 O.2   122  ARG122     -0.2867
     70  CB        53.5410   -4.4670   67.2860 C.3   122  ARG122      0.0307
     71  CG        54.0510   -4.2980   68.7030 C.3   122  ARG122      0.0489
     72  CD        55.4960   -4.7470   68.8590 C.3   122  ARG122      0.2205
     73  NE        55.8240   -4.9500   70.2660 N.pl3 122  ARG122     -0.0865
     74  CZ        57.0330   -5.2030   70.7670 C.cat 122  ARG122      0.5346
     75  NH1       58.0870   -5.2900   69.9860 N.pl3 122  ARG122      0.1354
     76  NH2       57.1720   -5.4660   72.0730 N.pl3 122  ARG122      0.1354
     77  N         54.7270   -0.1170   69.0850 N.3   124  PRO124     -0.2102
     78  CA        55.5290   -0.0240   70.2810 C.3   124  PRO124      0.1504
     79  C         56.2760    1.3150   70.4040 C.2   124  PRO124      0.2575
     80  O         57.5020    1.3290   70.5420 O.2   124  PRO124     -0.2718
     81  CB        56.5040   -1.1840   70.1040 C.3   124  PRO124      0.0282
     82  CG        56.8230   -1.0950   68.6180 C.3   124  PRO124      0.0208
     83  CD        55.4710   -0.7820   67.9910 C.3   124  PRO124      0.0893
     84  N         55.5460    2.4180   70.4180 N.am  125  PHE125     -0.1977
     85  CA        56.1790    3.7550   70.4320 C.3   125  PHE125      0.1639
     86  C         57.0610    3.9360   71.6630 C.2   125  PHE125      0.2290
     87  O         58.1820    4.4470   71.5500 O.2   125  PHE125     -0.2864
     88  CB        55.1300    4.8780   70.3740 C.3   125  PHE125      0.0560
     89  CG        54.2010    4.7950   69.1720 C.ar  125  PHE125     -0.0200
     90  CD1       54.6880    4.9870   67.8900 C.ar  125  PHE125     -0.0042
     91  CD2       52.8350    4.5430   69.3380 C.ar  125  PHE125     -0.0042
     92  CE1       53.8390    4.9270   66.7870 C.ar  125  PHE125     -0.0003
     93  CE2       51.9770    4.4760   68.2330 C.ar  125  PHE125     -0.0003
     94  CZ        52.4880    4.6790   66.9670 C.ar  125  PHE125     -0.0000
     95  N         58.5760    1.5500   73.5010 N.3   127  HIS127     -0.1226
     96  CA        59.8210    0.7420   73.4940 C.3   127  HIS127      0.1752
     97  C         60.9790    1.4410   72.7740 C.2   127  HIS127      0.2595
     98  O         62.1260    1.1740   73.0700 O.2   127  HIS127     -0.2718
     99  CB        59.5860   -0.6610   72.9150 C.3   127  HIS127      0.0759
    100  CG        58.7380   -1.5270   73.7910 C.ar  127  HIS127      0.0818
    101  ND1       59.2750   -2.5170   74.5770 N.ar  127  HIS127     -0.2268
    102  CD2       57.4080   -1.5400   74.0280 C.ar  127  HIS127      0.1154
    103  CE1       58.3150   -3.1360   75.2320 C.ar  127  HIS127      0.1986
    104  NE2       57.1710   -2.5780   74.9010 N.ar  127  HIS127     -0.2212
    105  N         60.6760    2.3480   71.8520 N.am  128  VAL128     -0.1980
    106  CA        61.7230    3.1030   71.1540 C.3   128  VAL128      0.1595
    107  C         61.8940    4.5390   71.6920 C.2   128  VAL128      0.2287
    108  O         62.7580    5.2790   71.2510 O.2   128  VAL128     -0.2864
    109  CB        61.4900    3.0310   69.6100 C.3   128  VAL128      0.0276
    110  CG1       60.1930    3.7220   69.1660 C.3   128  VAL128      0.0022
    111  CG2       62.6730    3.5680   68.8440 C.3   128  VAL128      0.0022
    112  N         59.5690    7.0250   71.7490 N.3   130  LEU130     -0.1245
    113  CA        58.8240    7.9940   70.9440 C.3   130  LEU130      0.1561
    114  C         57.3850    8.1160   71.4570 C.2   130  LEU130      0.2260
    115  O         57.1330    7.8150   72.6300 O.2   130  LEU130     -0.2867
    116  CB        58.9280    7.5900   69.4620 C.3   130  LEU130      0.0270
    117  CG        60.3590    7.6520   68.8870 C.3   130  LEU130      0.0019
    118  CD1       60.3750    7.1590   67.4310 C.3   130  LEU130      0.0001
    119  CD2       60.9130    9.0490   68.9400 C.3   130  LEU130      0.0001
    120  N         51.9260    8.4750   66.5090 N.3   133  GLU133     -0.1245
    121  CA        51.8900    9.3400   65.3480 C.3   133  GLU133      0.1567
    122  C         50.6600    9.0320   64.4680 C.2   133  GLU133      0.2260
    123  O         49.8440    8.1310   64.7690 O.2   133  GLU133     -0.2867
    124  CB        53.2560    9.3020   64.5910 C.3   133  GLU133      0.0388
    125  CG        53.8790    7.9350   64.3270 C.3   133  GLU133      0.1160
    126  CD        53.3240    7.2310   63.0960 C.2   133  GLU133      0.3649
    127  OE1       53.8040    7.5090   61.9770 O.co2 133  GLU133     -0.2457
    128  OE2       52.4500    6.3660   63.2500 O.co2 133  GLU133     -0.2457
    129  N         51.9050   -7.1850   71.1340 N.3   157  ILE157     -0.1245
    130  CA        51.8050   -7.7250   69.7920 C.3   157  ILE157      0.1561
    131  C         50.4890   -8.5270   69.6860 C.2   157  ILE157      0.2260
    132  O         50.2890   -9.4730   70.4470 O.2   157  ILE157     -0.2867
    133  CB        52.9630   -8.6930   69.4860 C.3   157  ILE157      0.0252
    134  CG1       54.2970   -8.0230   69.7470 C.3   157  ILE157      0.0019
    135  CG2       52.9020   -9.1170   68.0070 C.3   157  ILE157      0.0019
    136  CD1       55.4820   -8.9840   69.7580 C.3   157  ILE157      0.0001
    137  N         56.7410   14.4100   69.3490 N.3   222  PHE222     -0.1241
    138  CA        57.5150   13.3900   68.6350 C.3   222  PHE222      0.1605
    139  C         58.8990   13.8810   68.2720 C.2   222  PHE222      0.2264
    140  O         59.9010   13.1820   68.5260 O.2   222  PHE222     -0.2867
    141  CB        56.7990   12.9920   67.3450 C.3   222  PHE222      0.0534
    142  CG        57.3300   11.7430   66.6940 C.ar  222  PHE222     -0.0203
    143  CD1       56.8010   10.5020   67.0120 C.ar  222  PHE222     -0.0042
    144  CD2       58.3130   11.8180   65.7210 C.ar  222  PHE222     -0.0042
    145  CE1       57.2730    9.3490   66.3910 C.ar  222  PHE222     -0.0003
    146  CE2       58.7870   10.6640   65.1000 C.ar  222  PHE222     -0.0003
    147  CZ        58.2660    9.4300   65.4410 C.ar  222  PHE222     -0.0000
@<TRIPOS>BOND
     1     9     8    2
     2     1     2    1
     3    18    19    1
     4    32    31    2
     5    16    15    2
     6    53    52    1
     7    54    52    1
     8    12    11    1
     9    12    13    2
    10    51    50    2
    11     8    10   am
    12     8     7    1
    13     5     2    1
    14    11    10    1
    15    11    14    1
    16    29    35    1
    17    29    30    1
    18     2     3    1
    19     6     7    1
    20     6     3   am
    21    19    20    1
    22    19    22    1
    23    35    34    1
    24    50    49    1
    25    31    30    1
    26    15    14    1
    27    15    17   am
    28    52    49    1
    29     3     4    2
    30    20    21    2
    31    30    33    1
    32    49    48    1
    33    22    23    1
    34    34    33    1
    35    24    23   ar
    36    24    26   ar
    37    39    38    2
    38    36    37    1
    39    23    25   ar
    40   127   126   ar
    41    48    46   am
    42    55    56    1
    43    26    28   ar
    44    58    57    2
    45    38    37    1
    46    38    44   am
    47    37    40    1
    48    46    47    2
    49    46    45    1
    50    41    40    1
    51    41    43    1
    52    40    42    1
    53   126   128   ar
    54   126   125    1
    55    25    27   ar
    56    64    63    1
    57    56    57    1
    58    56    59    1
    59    28    27   ar
    60    60    59    1
    61    60    61    1
    62    44    45    1
    63   125   124    1
    64    63    65    1
    65    63    62    2
    66   122   123    2
    67   122   121    1
    68   124   121    1
    69    61    62    1
    70   146   147   ar
    71   146   144   ar
    72   121   120    1
    73   147   145   ar
    74    69    68    2
    75   144   142   ar
    76    66    67    1
    77   145   143   ar
    78   142   143   ar
    79   142   141    1
    80    92    94   ar
    81    92    90   ar
    82    68    67    1
    83    94    93   ar
    84    67    70    1
    85    70    71    1
    86   141   138    1
    87   118   117    1
    88    90    89   ar
    89    83    82    1
    90    83    77    1
    91   135   133    1
    92    93    91   ar
    93   139   140    2
    94   139   138    1
    95    82    81    1
    96   138   137    1
    97    71    72    1
    98   111   109    1
    99    72    73    1
   100   117   119    1
   101   117   116    1
   102    77    78    1
   103   110   109    1
   104    89    91   ar
   105    89    88    1
   106   116   113    1
   107   133   134    1
   108   133   130    1
   109   109   106    1
   110   131   130    1
   111   131   132    2
   112   134   136    1
   113   130   129    1
   114    75    74    1
   115    81    78    1
   116    73    74    2
   117    78    79    1
   118    88    85    1
   119    79    84   am
   120    79    80    2
   121    84    85    1
   122    85    86    1
   123    74    76    1
   124   113   114    1
   125   113   112    1
   126   106   107    1
   127   106   105    1
   128   108   107    2
   129   114   115    2
   130    87    86    2
   131   105    97   am
   132    97    98    2
   133    97    96    1
   134    99    96    1
   135    99   100    1
   136    96    95    1
   137   100   102   ar
   138   100   101   ar
   139   102   104   ar
   140   101   103   ar
   141   104   103   ar
