@<TRIPOS>MOLECULE
tmp/5ve5B00.pdb
 137 132 0 0 0
SMALL
GASTEIGER

@<TRIPOS>ATOM
      1  N         23.7830   13.8060    4.2670 N.3    60  HIS60      -0.1241
      2  CA        22.8060   12.8930    3.6750 C.3    60  HIS60       0.1621
      3  C         22.1360   13.5830    2.4870 C.2    60  HIS60       0.2264
      4  O         22.4200   14.7450    2.1790 O.2    60  HIS60      -0.2867
      5  CB        21.7840   12.4250    4.7170 C.3    60  HIS60       0.0745
      6  CG        20.9000   13.5090    5.2700 C.ar   60  HIS60       0.0817
      7  ND1       21.3510   14.4540    6.1740 N.ar   60  HIS60      -0.2268
      8  CD2       19.5630   13.7090    5.1620 C.ar   60  HIS60       0.1154
      9  CE1       20.3410   15.2210    6.5500 C.ar   60  HIS60       0.1986
     10  NE2       19.2430   14.7880    5.9550 N.ar   60  HIS60      -0.2212
     11  N         15.9770   16.4230    2.3840 N.3    63  ALA63      -0.1231
     12  CA        14.6110   16.5380    1.9090 C.3    63  ALA63       0.1694
     13  C         14.0390   17.9390    2.0550 C.2    63  ALA63       0.2592
     14  O         12.9420   18.2040    1.5490 O.2    63  ALA63      -0.2718
     15  CB        13.7080   15.5500    2.6700 C.3    63  ALA63       0.0304
     16  N         14.7530   18.8420    2.7090 N.am   64  ASP64      -0.1974
     17  CA        14.1900   20.1230    3.0830 C.3    64  ASP64       0.1709
     18  C         14.7830   21.2780    2.3120 C.2    64  ASP64       0.2293
     19  O         14.1780   22.3510    2.2830 O.2    64  ASP64      -0.2864
     20  CB        14.4070   20.3770    4.5860 C.3    64  ASP64       0.1436
     21  CG        15.8680   20.4420    4.9340 C.2    64  ASP64       0.3671
     22  OD1       16.5250   19.3810    4.8970 O.co2  64  ASP64      -0.2456
     23  OD2       16.3770   21.5580    5.1590 O.co2  64  ASP64      -0.2456
     24  N         17.8440    7.9200    9.6080 N.3   116  HIS116     -0.1241
     25  CA        17.0690    8.9820    8.9800 C.3   116  HIS116      0.1621
     26  C         16.9540    8.7590    7.4610 C.2   116  HIS116      0.2264
     27  O         15.8540    8.8340    6.8960 O.2   116  HIS116     -0.2867
     28  CB        17.7100   10.3220    9.3250 C.3   116  HIS116      0.0745
     29  CG        17.0520   11.4980    8.6840 C.ar  116  HIS116      0.0817
     30  ND1       15.7540   11.8730    8.9530 N.ar  116  HIS116     -0.2268
     31  CD2       17.5160   12.3770    7.7640 C.ar  116  HIS116      0.1154
     32  CE1       15.4550   12.9470    8.2440 C.ar  116  HIS116      0.1986
     33  NE2       16.5020   13.2650    7.5020 N.ar  116  HIS116     -0.2212
     34  N         21.1060   14.7290   10.2910 N.3   135  ASP135     -0.1239
     35  CA        19.7810   14.5320   10.8580 C.3   135  ASP135      0.1674
     36  C         19.6500   13.2060   11.6200 C.2   135  ASP135      0.2266
     37  O         18.5360   12.7160   11.8100 O.2   135  ASP135     -0.2867
     38  CB        18.7140   14.6370    9.7630 C.3   135  ASP135      0.1410
     39  CG        18.4420   16.0730    9.3520 C.2   135  ASP135      0.3668
     40  OD1       18.2040   16.3440    8.1440 O.co2 135  ASP135     -0.2456
     41  OD2       18.5010   16.9450   10.2430 O.co2 135  ASP135     -0.2456
     42  N         19.5430   14.8710   16.8510 N.3   138  LEU138     -0.1245
     43  CA        19.3590   16.3030   17.0280 C.3   138  LEU138      0.1561
     44  C         19.4150   16.6830   18.5140 C.2   138  LEU138      0.2260
     45  O         19.4760   15.8370   19.4170 O.2   138  LEU138     -0.2867
     46  CB        18.0500   16.7570   16.3820 C.3   138  LEU138      0.0270
     47  CG        17.8570   16.3350   14.9060 C.3   138  LEU138      0.0019
     48  CD1       16.5050   16.7900   14.3710 C.3   138  LEU138      0.0001
     49  CD2       18.9880   16.8400   14.0130 C.3   138  LEU138      0.0001
     50  N         15.8030   13.6390   17.4670 N.3   142  THR142     -0.1203
     51  CA        16.3330   12.9010   16.3250 C.3   142  THR142      0.1994
     52  C         15.6830   13.3970   15.0390 C.2   142  THR142      0.2618
     53  O         14.6320   14.0520   15.0540 O.2   142  THR142     -0.2717
     54  CB        16.0620   11.3930   16.4030 C.3   142  THR142      0.1784
     55  OG1       14.6550   11.1620   16.2470 O.3   142  THR142     -0.2211
     56  CG2       16.5830   10.7560   17.6810 C.3   142  THR142      0.0376
     57  N         16.2930   13.0190   13.9110 N.am  143  GLY143     -0.1942
     58  CA        15.6290   13.1800   12.6300 C.3   143  GLY143      0.2014
     59  C         14.4380   12.2480   12.5230 C.2   143  GLY143      0.2638
     60  O         14.3480   11.2380   13.2360 O.2   143  GLY143     -0.2714
     61  N         13.4970   12.6000   11.6390 N.am  144  ARG144     -0.1977
     62  CA        12.3210   11.7510   11.4790 C.3   144  ARG144      0.1597
     63  C         12.7150   10.4020   10.8760 C.2   144  ARG144      0.2287
     64  O         13.7930   10.2410   10.2960 O.2   144  ARG144     -0.2864
     65  CB        11.2560   12.4570   10.6550 C.3   144  ARG144      0.0334
     66  CG        11.6760   12.8210    9.2200 C.3   144  ARG144      0.0492
     67  CD        10.7940   13.9460    8.7300 C.3   144  ARG144      0.2205
     68  NE         9.3830   13.5770    8.7820 N.pl3 144  ARG144     -0.0865
     69  CZ         8.3890   14.4530    8.7240 C.cat 144  ARG144      0.5346
     70  NH1        8.6510   15.7520    8.6100 N.pl3 144  ARG144      0.1354
     71  NH2        7.1360   14.0280    8.7980 N.pl3 144  ARG144      0.1354
     72  N         10.3190    8.6770    6.3900 N.3   147  PHE147     -0.1241
     73  CA        10.5910    8.8230    4.9650 C.3   147  PHE147      0.1605
     74  C         11.1940    7.5560    4.4010 C.2   147  PHE147      0.2264
     75  O         11.6970    6.6980    5.1300 O.2   147  PHE147     -0.2867
     76  CB        11.5460    9.9750    4.6550 C.3   147  PHE147      0.0534
     77  CG        10.9450   11.3140    4.8500 C.ar  147  PHE147     -0.0203
     78  CD1       11.7530   12.4300    4.9920 C.ar  147  PHE147     -0.0042
     79  CD2        9.5640   11.4640    4.9000 C.ar  147  PHE147     -0.0042
     80  CE1       11.1890   13.6820    5.1770 C.ar  147  PHE147     -0.0003
     81  CE2        8.9900   12.7100    5.0860 C.ar  147  PHE147     -0.0003
     82  CZ         9.8040   13.8230    5.2230 C.ar  147  PHE147     -0.0000
     83  N         19.9230   20.5470   11.6760 N.3   176  HIS176     -0.1241
     84  CA        18.7530   21.3970   11.8360 C.3   176  HIS176      0.1621
     85  C         18.5220   21.6700   13.3200 C.2   176  HIS176      0.2264
     86  O         18.9710   20.9170   14.1880 O.2   176  HIS176     -0.2867
     87  CB        17.4860   20.7590   11.2460 C.3   176  HIS176      0.0745
     88  CG        17.5550   20.4760    9.7770 C.ar  176  HIS176      0.0817
     89  ND1       17.9720   19.2630    9.2720 N.ar  176  HIS176     -0.2268
     90  CD2       17.2250   21.2370    8.7040 C.ar  176  HIS176      0.1154
     91  CE1       17.9110   19.2930    7.9590 C.ar  176  HIS176      0.1986
     92  NE2       17.4550   20.4770    7.5900 N.ar  176  HIS176     -0.2212
     93  N         14.8580   23.6270   15.2600 N.3   178  TYR178     -0.1241
     94  CA        13.6300   24.3740   15.0390 C.3   178  TYR178      0.1605
     95  C         13.2530   25.2410   16.2340 C.2   178  TYR178      0.2264
     96  O         12.1500   25.8000   16.2600 O.2   178  TYR178     -0.2867
     97  CB        12.4990   23.4040   14.6840 C.3   178  TYR178      0.0534
     98  CG        12.8690   22.4980   13.5330 C.ar  178  TYR178     -0.0201
     99  CD1       13.3860   21.2300   13.7590 C.ar  178  TYR178     -0.0009
    100  CD2       12.7400   22.9310   12.2130 C.ar  178  TYR178     -0.0009
    101  CE1       13.7540   20.4090   12.7050 C.ar  178  TYR178      0.0417
    102  CE2       13.1020   22.1140   11.1430 C.ar  178  TYR178      0.0417
    103  CZ        13.6090   20.8540   11.3920 C.ar  178  TYR178      0.1957
    104  OH        13.9730   20.0350   10.3380 O.3   178  TYR178     -0.2866
    105  N         13.8480   10.7640   23.4690 N.3   195  ARG195     -0.1245
    106  CA        13.4410    9.6880   22.5740 C.3   195  ARG195      0.1563
    107  C         14.2500    8.4180   22.7790 C.2   195  ARG195      0.2260
    108  O         13.6880    7.3200   22.7750 O.2   195  ARG195     -0.2867
    109  CB        13.5710   10.1390   21.1130 C.3   195  ARG195      0.0307
    110  CG        12.8460   11.4410   20.8190 C.3   195  ARG195      0.0489
    111  CD        12.9370   11.8490   19.3400 C.3   195  ARG195      0.2205
    112  NE        12.2290   13.1030   19.0750 N.pl3 195  ARG195     -0.0865
    113  CZ        12.0530   13.6300   17.8640 C.cat 195  ARG195      0.5346
    114  NH1       12.5180   13.0080   16.7900 N.pl3 195  ARG195      0.1354
    115  NH2       11.3910   14.7680   17.7290 N.pl3 195  ARG195      0.1354
    116  N          5.2800   15.2150   12.2740 N.3   214  LEU214     -0.1231
    117  CA         6.0050   16.4510   12.0310 C.3   214  LEU214      0.1678
    118  C          5.6140   17.0420   10.6890 C.2   214  LEU214      0.2434
    119  O          5.3870   16.2950    9.7320 O.2   214  LEU214     -0.2733
    120  CB         7.5190   16.2210   12.0610 C.3   214  LEU214      0.0284
    121  CG         8.0210   15.9380   13.4860 C.3   214  LEU214      0.0019
    122  CD1        9.5130   15.6440   13.5120 C.3   214  LEU214      0.0001
    123  CD2        7.6680   17.0790   14.4470 C.3   214  LEU214      0.0001
    124  N          5.5070   18.3660   10.5860 N.am  215  PRO215     -0.2729
    125  CA         5.1720   18.9670    9.2880 C.3   215  PRO215      0.1401
    126  C          6.2180   18.6140    8.2360 C.2   215  PRO215      0.2269
    127  O          7.4140   18.5130    8.5300 O.2   215  PRO215     -0.2865
    128  CB         5.1350   20.4740    9.5840 C.3   215  PRO215      0.0296
    129  CG         5.8330   20.6510   10.8970 C.3   215  PRO215      0.0237
    130  CD         5.6710   19.3660   11.6550 C.3   215  PRO215      0.0939
    131  N          8.7090   19.0460    5.0880 N.3   217  PRO217     -0.2116
    132  CA         9.5140   20.1660    4.5890 C.3   217  PRO217      0.1372
    133  C          8.8390   20.8120    3.3850 C.2   217  PRO217      0.2244
    134  O          8.2330   20.1370    2.5480 O.2   217  PRO217     -0.2868
    135  CB        10.8430   19.5080    4.2090 C.3   217  PRO217      0.0268
    136  CG        10.4910   18.0620    3.9690 C.3   217  PRO217      0.0207
    137  CD         9.3840   17.7480    4.9260 C.3   217  PRO217      0.0892
@<TRIPOS>BOND
     1    14    13    2
     2    12    13    1
     3    12    11    1
     4    12    15    1
     5    13    16   am
     6     4     3    2
     7    19    18    2
     8    18    17    1
     9     3     2    1
    10   134   133    2
    11    16    17    1
    12    17    20    1
    13   133   132    1
    14     2     1    1
    15     2     5    1
    16   136   135    1
    17   136   137    1
    18   135   132    1
    19    74    73    1
    20    74    75    2
    21    20    21    1
    22   132   131    1
    23    76    77    1
    24    76    73    1
    25     5     6    1
    26    77    79   ar
    27    77    78   ar
    28    22    21   ar
    29    79    81   ar
    30   137   131    1
    31    21    23   ar
    32    73    72    1
    33    78    80   ar
    34    81    82   ar
    35     8     6   ar
    36     8    10   ar
    37    80    82   ar
    38     6     7   ar
    39    10     9   ar
    40     7     9   ar
    41    27    26    2
    42    26    25    1
    43    33    31   ar
    44    33    32   ar
    45    92    91   ar
    46    92    90   ar
    47    31    29   ar
    48    91    89   ar
    49    40    39   ar
    50   126   127    2
    51   126   125    1
    52    32    30   ar
    53    70    69    1
    54    29    30   ar
    55    29    28    1
    56    90    88   ar
    57    69    68    2
    58    69    71    1
    59    67    68    1
    60    67    66    1
    61    25    28    1
    62    25    24    1
    63    66    65    1
    64    89    88   ar
    65   125   128    1
    66   125   124    1
    67    39    38    1
    68    39    41   ar
    69   128   129    1
    70   119   118    2
    71    38    35    1
    72    88    87    1
    73    34    35    1
    74    64    63    2
    75   104   103    1
    76   124   118   am
    77   124   130    1
    78    65    62    1
    79   118   117    1
    80    35    36    1
    81    63    62    1
    82   129   130    1
    83   102   103   ar
    84   102   100   ar
    85    87    84    1
    86   103   101   ar
    87    62    61    1
    88    36    37    2
    89    61    59   am
    90    83    84    1
    91    84    85    1
    92   117   120    1
    93   117   116    1
    94   120   121    1
    95   100    98   ar
    96    59    58    1
    97    59    60    2
    98    58    57    1
    99   101    99   ar
   100    85    86    2
   101   121   122    1
   102   121   123    1
   103    98    99   ar
   104    98    97    1
   105    57    52   am
   106    49    47    1
   107    48    47    1
   108    97    94    1
   109    47    46    1
   110    94    93    1
   111    94    95    1
   112    52    53    2
   113    52    51    1
   114    95    96    2
   115    55    54    1
   116    51    54    1
   117    51    50    1
   118    46    43    1
   119    54    56    1
   120   114   113    1
   121    42    43    1
   122    43    44    1
   123   115   113    1
   124   113   112    2
   125    44    45    2
   126   112   111    1
   127   111   110    1
   128   110   109    1
   129   109   106    1
   130   106   107    1
   131   106   105    1
   132   108   107    2
