@<TRIPOS>MOLECULE
tmp/5ve7A00.pdb
 128 120 0 0 0
SMALL
GASTEIGER

@<TRIPOS>ATOM
      1  N        -26.1770  -16.3390  -11.5200 N.3     9  PRO9       -0.2116
      2  CA       -25.0910  -15.4470  -11.0850 C.3     9  PRO9        0.1372
      3  C        -25.3220  -14.0540  -11.6450 C.2     9  PRO9        0.2244
      4  O        -25.4250  -13.8650  -12.8560 O.2     9  PRO9       -0.2868
      5  CB       -23.8320  -16.0980  -11.6710 C.3     9  PRO9        0.0268
      6  CG       -24.2450  -17.5370  -11.9820 C.3     9  PRO9        0.0207
      7  CD       -25.6840  -17.4300  -12.3800 C.3     9  PRO9        0.0892
      8  N        -23.6150  -11.3380   -9.9640 N.3    11  ALA11      -0.1231
      9  CA       -22.6730  -10.6900   -9.0650 C.3    11  ALA11       0.1694
     10  C        -21.4320  -10.1770   -9.7880 C.2    11  ALA11       0.2593
     11  O        -20.4890   -9.7460   -9.1310 O.2    11  ALA11      -0.2718
     12  CB       -22.2630  -11.6600   -7.9530 C.3    11  ALA11       0.0304
     13  N        -21.3920  -10.2480  -11.1170 N.am   12  GLY12      -0.1942
     14  CA       -20.2610   -9.6990  -11.8410 C.3    12  GLY12       0.2014
     15  C        -20.1590   -8.1950  -11.6690 C.2    12  GLY12       0.2639
     16  O        -21.1290   -7.5030  -11.3520 O.2    12  GLY12      -0.2714
     17  N        -18.9510   -7.6740  -11.8810 N.am   13  LEU13      -0.1963
     18  CA       -18.7460   -6.2410  -11.6790 C.3    13  LEU13       0.1728
     19  C        -19.4430   -5.4070  -12.7490 C.2    13  LEU13       0.2617
     20  O        -19.8070   -4.2630  -12.4860 O.2    13  LEU13      -0.2715
     21  CB       -17.2480   -5.9300  -11.6240 C.3    13  LEU13       0.0311
     22  CG       -16.5070   -6.5990  -10.4530 C.3    13  LEU13       0.0022
     23  CD1      -15.0100   -6.2780  -10.4630 C.3    13  LEU13       0.0001
     24  CD2      -17.1380   -6.1980   -9.1140 C.3    13  LEU13       0.0001
     25  N        -19.6290   -5.9410  -13.9540 N.am   14  GLY14      -0.1940
     26  CA       -20.3080   -5.1880  -14.9950 C.3    14  GLY14       0.2014
     27  C        -19.6180   -3.9070  -15.4230 C.2    14  GLY14       0.2640
     28  O        -20.2970   -2.9510  -15.8150 O.2    14  GLY14      -0.2714
     29  N        -18.2820   -3.8630  -15.3690 N.am   15  THR15      -0.1936
     30  CA       -17.5420   -2.6720  -15.7760 C.3    15  THR15       0.2028
     31  C        -17.7380   -2.3280  -17.2490 C.2    15  THR15       0.2642
     32  O        -17.5640   -1.1660  -17.6300 O.2    15  THR15      -0.2714
     33  CB       -16.0430   -2.8510  -15.5190 C.3    15  THR15       0.1808
     34  OG1      -15.5340   -3.8580  -16.4020 O.3    15  THR15      -0.2208
     35  CG2      -15.7730   -3.2540  -14.0680 C.3    15  THR15       0.0379
     36  N        -18.0770   -3.2980  -18.0920 N.am   16  ARG16      -0.1977
     37  CA       -18.2960   -2.9840  -19.5020 C.3    16  ARG16       0.1597
     38  C        -19.5450   -2.1320  -19.7300 C.2    16  ARG16       0.2287
     39  O        -19.7470   -1.6250  -20.8380 O.2    16  ARG16      -0.2864
     40  CB       -18.3680   -4.2730  -20.3280 C.3    16  ARG16       0.0334
     41  CG       -16.9820   -4.8240  -20.7180 C.3    16  ARG16       0.0492
     42  CD       -17.0630   -6.1580  -21.4880 C.3    16  ARG16       0.2205
     43  NE       -17.5870   -7.2780  -20.6920 N.pl3  16  ARG16      -0.0865
     44  CZ       -18.1290   -8.3780  -21.2090 C.cat  16  ARG16       0.5346
     45  NH1      -18.2470   -8.5110  -22.5240 N.pl3  16  ARG16       0.1354
     46  NH2      -18.5650   -9.3440  -20.4180 N.pl3  16  ARG16       0.1354
     47  N        -25.3680   -5.5500  -14.2770 N.3    26  LYS26      -0.1231
     48  CA       -25.5600   -5.6360  -15.7170 C.3    26  LYS26       0.1693
     49  C        -26.8130   -6.4310  -16.0520 C.2    26  LYS26       0.2591
     50  O        -27.5190   -6.1120  -17.0170 O.2    26  LYS26      -0.2718
     51  CB       -24.3270   -6.2640  -16.3780 C.3    26  LYS26       0.0285
     52  CG       -24.3100   -6.0590  -17.8970 C.3    26  LYS26       0.0035
     53  CD       -23.2170   -6.8730  -18.5920 C.3    26  LYS26       0.0206
     54  CE       -21.8370   -6.3800  -18.1940 C.3    26  LYS26       0.1093
     55  NZ       -20.7590   -7.2020  -18.8220 N.3    26  LYS26      -0.1314
     56  N        -27.1230   -7.4550  -15.2500 N.am   27  GLU27      -0.1979
     57  CA       -28.2790   -8.2960  -15.5500 C.3    27  GLU27       0.1602
     58  C        -29.6020   -7.5620  -15.3570 C.2    27  GLU27       0.2287
     59  O        -30.6460   -8.0630  -15.8040 O.2    27  GLU27      -0.2864
     60  CB       -28.2410   -9.5780  -14.7100 C.3    27  GLU27       0.0415
     61  CG       -27.0920  -10.5450  -15.0820 C.3    27  GLU27       0.1163
     62  CD       -25.7500  -10.2030  -14.4150 C.2    27  GLU27       0.3649
     63  OE1      -24.7550  -10.9220  -14.6800 O.co2  27  GLU27      -0.2457
     64  OE2      -25.6840   -9.2270  -13.6280 O.co2  27  GLU27      -0.2457
     65  N        -22.3500  -13.3290   -3.0100 N.3   104  GLN104     -0.1245
     66  CA       -20.9500  -13.5960   -3.2680 C.3   104  GLN104      0.1566
     67  C        -20.1950  -12.4000   -2.7190 C.2   104  GLN104      0.2260
     68  O        -20.1840  -11.3350   -3.3550 O.2   104  GLN104     -0.2867
     69  CB       -20.6700  -13.7860   -4.7570 C.3   104  GLN104      0.0367
     70  CG       -19.1970  -14.0630   -5.0690 C.3   104  GLN104      0.0905
     71  CD       -18.9630  -14.2640   -6.5450 C.2   104  GLN104      0.2608
     72  OE1      -19.5430  -13.5590   -7.3740 O.2   104  GLN104     -0.2717
     73  NE2      -18.1210  -15.2380   -6.8920 N.am  104  GLN104     -0.0878
     74  N        -16.0280  -10.5400   -5.7900 N.3   107  ALA107     -0.1231
     75  CA       -16.2470  -10.9050   -7.1840 C.3   107  ALA107      0.1694
     76  C        -15.0930  -11.8000   -7.6230 C.2   107  ALA107      0.2592
     77  O        -14.1700  -11.3800   -8.3190 O.2   107  ALA107     -0.2718
     78  CB       -16.3630   -9.6710   -8.0640 C.3   107  ALA107      0.0304
     79  N        -15.1480  -13.0630   -7.1960 N.am  108  LEU108     -0.1966
     80  CA       -14.0740  -14.0110   -7.4670 C.3   108  LEU108      0.1728
     81  C        -14.3370  -14.8710   -8.7010 C.2   108  LEU108      0.2617
     82  O        -13.6250  -15.8570   -8.9230 O.2   108  LEU108     -0.2715
     83  CB       -13.8270  -14.9050   -6.2460 C.3   108  LEU108      0.0311
     84  CG       -13.3010  -14.2080   -4.9820 C.3   108  LEU108      0.0022
     85  CD1      -13.3080  -15.1610   -3.7890 C.3   108  LEU108      0.0001
     86  CD2      -11.9130  -13.6210   -5.1840 C.3   108  LEU108      0.0001
     87  N        -15.3390  -14.5340   -9.4990 N.am  109  GLY109     -0.1940
     88  CA       -15.5600  -15.1820  -10.7750 C.3   109  GLY109      0.2014
     89  C        -16.7860  -16.0840  -10.7640 C.2   109  GLY109      0.2638
     90  O        -17.4350  -16.3080   -9.7410 O.2   109  GLY109     -0.2714
     91  N        -17.0680  -16.6190  -11.9540 N.am  110  LEU110     -0.1977
     92  CA       -18.3220  -17.3270  -12.2030 C.3   110  LEU110      0.1596
     93  C        -18.3760  -18.6540  -11.4610 C.2   110  LEU110      0.2287
     94  O        -19.3920  -18.9880  -10.8370 O.2   110  LEU110     -0.2864
     95  CB       -18.5000  -17.5580  -13.7060 C.3   110  LEU110      0.0297
     96  CG       -19.6480  -18.4850  -14.1000 C.3   110  LEU110      0.0022
     97  CD1      -20.9680  -17.9430  -13.5200 C.3   110  LEU110      0.0001
     98  CD2      -19.7150  -18.6120  -15.6030 C.3   110  LEU110      0.0001
     99  N        -19.0390  -18.0340   -7.9740 N.3   113  ALA113     -0.1245
    100  CA       -20.4240  -17.6340   -7.7660 C.3   113  ALA113      0.1562
    101  C        -21.3280  -18.8550   -7.7100 C.2   113  ALA113      0.2260
    102  O        -22.1970  -18.9540   -6.8380 O.2   113  ALA113     -0.2867
    103  CB       -20.8760  -16.6710   -8.8640 C.3   113  ALA113      0.0290
    104  N        -26.9840  -17.5400  -17.2350 N.3   130  LEU130     -0.1245
    105  CA       -26.2650  -16.2710  -17.2670 C.3   130  LEU130      0.1561
    106  C        -27.1460  -15.3040  -18.0430 C.2   130  LEU130      0.2260
    107  O        -27.2400  -15.3850  -19.2710 O.2   130  LEU130     -0.2867
    108  CB       -24.8900  -16.4400  -17.9180 C.3   130  LEU130      0.0270
    109  CG       -23.9390  -17.5250  -17.3820 C.3   130  LEU130      0.0019
    110  CD1      -22.5150  -17.3350  -17.9260 C.3   130  LEU130      0.0001
    111  CD2      -23.9410  -17.5670  -15.8450 C.3   130  LEU130      0.0001
    112  N        -26.8220  -12.3570  -18.8480 N.3   132  ASP132     -0.1239
    113  CA       -26.0850  -11.6040  -19.8630 C.3   132  ASP132      0.1674
    114  C        -26.1860  -12.2610  -21.2340 C.2   132  ASP132      0.2266
    115  O        -26.1430  -11.5720  -22.2530 O.2   132  ASP132     -0.2867
    116  CB       -24.6060  -11.4720  -19.4830 C.3   132  ASP132      0.1410
    117  CG       -24.3770  -10.5560  -18.2990 C.2   132  ASP132      0.3668
    118  OD1      -23.2420  -10.5680  -17.7860 O.co2 132  ASP132     -0.2456
    119  OD2      -25.3150   -9.8240  -17.8700 O.co2 132  ASP132     -0.2456
    120  N        -10.0130  -16.9740   -8.7850 N.3   223  GLU223     -0.1245
    121  CA       -10.9220  -17.2770   -9.8890 C.3   223  GLU223      0.1567
    122  C        -10.9150  -18.7630  -10.2420 C.2   223  GLU223      0.2260
    123  O        -10.0940  -19.2190  -11.0500 O.2   223  GLU223     -0.2867
    124  CB       -10.5660  -16.4520  -11.1300 C.3   223  GLU223      0.0388
    125  CG       -10.6010  -14.9380  -10.9080 C.3   223  GLU223      0.1160
    126  CD       -11.8500  -14.2670  -11.4700 C.2   223  GLU223      0.3649
    127  OE1      -12.4170  -14.7840  -12.4580 O.co2 223  GLU223     -0.2457
    128  OE2      -12.2620  -13.2170  -10.9250 O.co2 223  GLU223     -0.2457
@<TRIPOS>BOND
     1    45    44    1
     2   115   114    2
     3    42    41    1
     4    42    43    1
     5   114   113    1
     6    44    43    2
     7    44    46    1
     8    39    38    2
     9    41    40    1
    10    40    37    1
    11   113   116    1
    12   113   112    1
    13    38    37    1
    14    37    36    1
    15   116   117    1
    16   107   106    2
    17    55    54    1
    18    53    54    1
    19    53    52    1
    20   117   119   ar
    21   117   118   ar
    22    36    31   am
    23   106   105    1
    24   110   109    1
    25   108   109    1
    26   108   105    1
    27    52    51    1
    28    32    31    2
    29   109   111    1
    30   105   104    1
    31    31    30    1
    32    50    49    2
    33    34    33    1
    34    51    48    1
    35    49    48    1
    36    49    56   am
    37    28    27    2
    38    59    58    2
    39    30    33    1
    40    30    29    1
    41    48    47    1
    42    98    96    1
    43    57    58    1
    44    57    56    1
    45    57    60    1
    46    33    35    1
    47    27    29   am
    48    27    26    1
    49    61    60    1
    50    61    62    1
    51    26    25    1
    52    63    62   ar
    53    62    64   ar
    54    96    95    1
    55    96    97    1
    56    25    19   am
    57    95    92    1
    58     4     3    2
    59    19    20    2
    60    19    18    1
    61   127   126   ar
    62     7     6    1
    63     7     1    1
    64    92    91    1
    65    92    93    1
    66     6     5    1
    67    91    89   am
    68    17    18    1
    69    17    15   am
    70    14    15    1
    71    14    13    1
    72    18    21    1
    73     5     2    1
    74    15    16    2
    75     3     2    1
    76    21    22    1
    77     1     2    1
    78   126   128   ar
    79   126   125    1
    80    93    94    2
    81   124   125    1
    82   124   121    1
    83    13    10   am
    84   123   122    2
    85    88    89    1
    86    88    87    1
    87    89    90    2
    88    23    22    1
    89    22    24    1
    90   122   121    1
    91     8     9    1
    92   121   120    1
    93    10    11    2
    94    10     9    1
    95    87    81   am
    96     9    12    1
    97    82    81    2
    98   103   100    1
    99    81    80    1
   100    77    76    2
   101    78    75    1
   102    99   100    1
   103   100   101    1
   104   101   102    2
   105    76    79   am
   106    76    75    1
   107    80    79    1
   108    80    83    1
   109    72    71    2
   110    75    74    1
   111    73    71   am
   112    71    70    1
   113    83    84    1
   114    86    84    1
   115    70    69    1
   116    84    85    1
   117    69    66    1
   118    68    67    2
   119    66    65    1
   120    66    67    1
