@<TRIPOS>MOLECULE
tmp/5vedA00.pdb
 163 151 0 0 0
SMALL
GASTEIGER

@<TRIPOS>ATOM
      1  N        -34.0390   18.3810  -17.5390 N.3    28  ILE28      -0.1231
      2  CA       -34.5330   17.5700  -16.4310 C.3    28  ILE28       0.1692
      3  C        -33.7380   17.8320  -15.1580 C.2    28  ILE28       0.2593
      4  O        -34.1010   17.3600  -14.0810 O.2    28  ILE28      -0.2718
      5  CB       -34.4730   16.0680  -16.7510 C.3    28  ILE28       0.0266
      6  CG1      -33.0350   15.6500  -17.0670 C.3    28  ILE28       0.0019
      7  CG2      -35.4050   15.7330  -17.9020 C.3    28  ILE28       0.0020
      8  CD1      -32.8430   14.1530  -17.1800 C.3    28  ILE28       0.0001
      9  N        -32.6510   18.5870  -15.2850 N.am   29  GLY29      -0.1942
     10  CA       -31.8050   18.8890  -14.1470 C.3    29  GLY29       0.2014
     11  C        -30.8340   20.0230  -14.4080 C.2    29  GLY29       0.2639
     12  O        -30.6240   20.4240  -15.5530 O.2    29  GLY29      -0.2714
     13  N        -30.2390   20.5390  -13.3380 N.am   30  GLU30      -0.1963
     14  CA       -29.2790   21.6300  -13.4450 C.3    30  GLU30       0.1733
     15  C        -28.2980   21.6060  -12.2780 C.2    30  GLU30       0.2616
     16  O        -28.7010   21.5990  -11.1150 O.2    30  GLU30      -0.2715
     17  CB       -30.0030   22.9760  -13.5010 C.3    30  GLU30       0.0429
     18  CG       -29.0850   24.1690  -13.7070 C.3    30  GLU30       0.1163
     19  CD       -29.8470   25.4730  -13.8410 C.2    30  GLU30       0.3649
     20  OE1      -31.0830   25.4610  -13.6620 O.co2  30  GLU30      -0.2457
     21  OE2      -29.2100   26.5090  -14.1280 O.co2  30  GLU30      -0.2457
     22  N        -27.0080   21.5920  -12.5970 N.am   31  GLY31      -0.1955
     23  CA       -25.9740   21.5530  -11.5800 C.3    31  GLY31       0.1869
     24  C        -25.1350   22.8140  -11.5500 C.2    31  GLY31       0.2309
     25  O        -25.4840   23.8190  -12.1700 O.2    31  GLY31      -0.2863
     26  N        -23.4160   22.8560  -15.3020 N.3    34  GLY34      -0.1225
     27  CA       -24.3310   23.1240  -16.3950 C.3    34  GLY34       0.1811
     28  C        -25.6770   22.4440  -16.2510 C.2    34  GLY34       0.2280
     29  O        -26.0630   22.0260  -15.1590 O.2    34  GLY34      -0.2866
     30  N        -28.7580   19.5640  -17.6340 N.3    36  VAL36      -0.1245
     31  CA       -28.8860   18.1960  -18.1200 C.3    36  VAL36       0.1561
     32  C        -30.1970   18.0350  -18.8820 C.2    36  VAL36       0.2260
     33  O        -31.2550   18.4420  -18.4020 O.2    36  VAL36      -0.2867
     34  CB       -28.8250   17.1760  -16.9660 C.3    36  VAL36       0.0252
     35  CG1      -29.0570   15.7660  -17.4840 C.3    36  VAL36       0.0019
     36  CG2      -27.4890   17.2700  -16.2440 C.3    36  VAL36       0.0019
     37  N        -28.9030   10.9570  -22.0520 N.3    49  ALA49      -0.1245
     38  CA       -28.7760   12.1590  -21.2380 C.3    49  ALA49       0.1562
     39  C        -27.6300   13.0250  -21.7460 C.2    49  ALA49       0.2260
     40  O        -26.5250   12.5340  -21.9800 O.2    49  ALA49      -0.2867
     41  CB       -28.5650   11.7950  -19.7780 C.3    49  ALA49       0.0290
     42  N        -25.3110   16.5410  -21.1270 N.3    51  LYS51      -0.1245
     43  CA       -24.8900   17.5460  -20.1590 C.3    51  LYS51       0.1561
     44  C        -24.2620   18.7500  -20.8560 C.2    51  LYS51       0.2260
     45  O        -23.1230   18.6860  -21.3180 O.2    51  LYS51      -0.2867
     46  CB       -23.9060   16.9370  -19.1590 C.3    51  LYS51       0.0271
     47  CG       -23.4550   17.8860  -18.0670 C.3    51  LYS51       0.0035
     48  CD       -22.5730   17.1680  -17.0630 C.3    51  LYS51       0.0206
     49  CE       -22.1300   18.1000  -15.9530 C.3    51  LYS51       0.1093
     50  NZ       -23.2850   18.7730  -15.2970 N.3    51  LYS51      -0.1314
     51  N        -13.5800   15.9600  -15.4710 N.3    67  GLU67      -0.1245
     52  CA       -14.5930   14.9340  -15.6990 C.3    67  GLU67       0.1567
     53  C        -14.3950   14.2310  -17.0370 C.2    67  GLU67       0.2260
     54  O        -14.5380   13.0120  -17.1360 O.2    67  GLU67      -0.2867
     55  CB       -15.9960   15.5450  -15.6350 C.3    67  GLU67       0.0388
     56  CG       -17.1140   14.5730  -15.9910 C.3    67  GLU67       0.1160
     57  CD       -18.4890   15.2140  -15.9460 C.2    67  GLU67       0.3649
     58  OE1      -18.6310   16.2820  -15.3150 O.co2  67  GLU67      -0.2457
     59  OE2      -19.4290   14.6470  -16.5440 O.co2  67  GLU67      -0.2457
     60  N        -22.3920    5.8810  -13.7940 N.3    80  VAL80      -0.1245
     61  CA       -23.0110    6.4090  -15.0060 C.3    80  VAL80       0.1561
     62  C        -21.9810    6.5530  -16.1240 C.2    80  VAL80       0.2260
     63  O        -21.0230    7.3170  -16.0060 O.2    80  VAL80      -0.2867
     64  CB       -23.6860    7.7690  -14.7480 C.3    80  VAL80       0.0252
     65  CG1      -24.1420    8.3960  -16.0560 C.3    80  VAL80       0.0019
     66  CG2      -24.8570    7.6000  -13.7940 C.3    80  VAL80       0.0019
     67  N        -24.3130   11.0250  -21.9560 N.3    96  MET96      -0.1230
     68  CA       -24.1950    9.9950  -20.9310 C.3    96  MET96       0.1702
     69  C        -25.3750    9.0350  -20.9880 C.2    96  MET96       0.2592
     70  O        -26.3630    9.2960  -21.6740 O.2    96  MET96      -0.2718
     71  CB       -24.1070   10.6310  -19.5440 C.3    96  MET96       0.0401
     72  CG       -23.3610   11.9510  -19.5160 C.3    96  MET96       0.0596
     73  SD       -23.2350   12.6430  -17.8580 S.3    96  MET96      -0.1393
     74  CE       -22.1720   11.4360  -17.0680 C.3    96  MET96       0.0692
     75  N        -25.2750    7.9250  -20.2630 N.am   97  GLU97      -0.1966
     76  CA       -26.3840    6.9840  -20.1930 C.3    97  GLU97       0.1733
     77  C        -27.5230    7.5920  -19.3900 C.2    97  GLU97       0.2616
     78  O        -27.3030    8.2690  -18.3840 O.2    97  GLU97      -0.2715
     79  CB       -25.9470    5.6480  -19.5840 C.3    97  GLU97       0.0429
     80  CG       -25.4080    5.7290  -18.1690 C.3    97  GLU97       0.1163
     81  CD       -25.2840    4.3630  -17.5230 C.2    97  GLU97       0.3649
     82  OE1      -26.2590    3.5850  -17.5850 O.co2  97  GLU97      -0.2457
     83  OE2      -24.2110    4.0630  -16.9580 O.co2  97  GLU97      -0.2457
     84  N        -28.7450    7.3570  -19.8510 N.am   98  PHE98      -0.1960
     85  CA       -29.9180    7.9410  -19.2230 C.3    98  PHE98       0.1771
     86  C        -30.5060    7.0080  -18.1730 C.2    98  PHE98       0.2619
     87  O        -30.9270    5.8930  -18.4810 O.2    98  PHE98      -0.2715
     88  CB       -30.9660    8.2850  -20.2840 C.3    98  PHE98       0.0574
     89  CG       -32.2820    8.7210  -19.7160 C.ar   98  PHE98      -0.0200
     90  CD1      -32.3460    9.7440  -18.7860 C.ar   98  PHE98      -0.0042
     91  CD2      -33.4580    8.1160  -20.1240 C.ar   98  PHE98      -0.0042
     92  CE1      -33.5580   10.1470  -18.2640 C.ar   98  PHE98      -0.0003
     93  CE2      -34.6740    8.5170  -19.6080 C.ar   98  PHE98      -0.0003
     94  CZ       -34.7230    9.5320  -18.6760 C.ar   98  PHE98      -0.0000
     95  N        -30.5220    7.4700  -16.9270 N.am   99  LEU99      -0.1963
     96  CA       -31.1170    6.7110  -15.8350 C.3    99  LEU99       0.1728
     97  C        -32.5210    7.2280  -15.5390 C.2    99  LEU99       0.2616
     98  O        -32.6940    8.2870  -14.9350 O.2    99  LEU99      -0.2715
     99  CB       -30.2400    6.7750  -14.5840 C.3    99  LEU99       0.0311
    100  CG       -29.0370    5.8270  -14.5810 C.3    99  LEU99       0.0022
    101  CD1      -27.8920    6.3780  -15.4190 C.3    99  LEU99       0.0001
    102  CD2      -28.5800    5.5300  -13.1620 C.3    99  LEU99       0.0001
    103  N        -33.5160    6.4610  -15.9700 N.am  100  GLU100     -0.1977
    104  CA       -34.9120    6.8790  -15.9320 C.3   100  GLU100      0.1602
    105  C        -35.4580    7.0280  -14.5130 C.2   100  GLU100      0.2287
    106  O        -36.4310    7.7480  -14.2890 O.2   100  GLU100     -0.2864
    107  CB       -35.7790    5.8830  -16.7090 C.3   100  GLU100      0.0415
    108  CG       -35.2180    5.4640  -18.0650 C.3   100  GLU100      0.1163
    109  CD       -34.2020    4.3380  -17.9650 C.2   100  GLU100      0.3649
    110  OE1      -34.0290    3.7860  -16.8580 O.co2 100  GLU100     -0.2457
    111  OE2      -33.5740    4.0090  -18.9930 O.co2 100  GLU100     -0.2457
    112  N        -34.2770    8.5170  -11.9610 N.3   102  GLY102     -0.1210
    113  CA       -34.0550    9.8150  -11.3520 C.3   102  GLY102      0.1956
    114  C        -33.0880    9.7550  -10.1860 C.2   102  GLY102      0.2611
    115  O        -32.4460    8.7320   -9.9520 O.2   102  GLY102     -0.2717
    116  N        -32.9900   10.8570   -9.4490 N.am  103  ALA103     -0.1979
    117  CA       -32.0460   10.9610   -8.3420 C.3   103  ALA103      0.1597
    118  C        -32.6000   10.3650   -7.0520 C.2   103  ALA103      0.2287
    119  O        -33.8110   10.2040   -6.8960 O.2   103  ALA103     -0.2864
    120  CB       -31.6530   12.4150   -8.1220 C.3   103  ALA103      0.0319
    121  N        -32.3630   11.7950   -4.2070 N.3   105  THR105     -0.1218
    122  CA       -32.8410   12.9170   -3.4040 C.3   105  THR105      0.1862
    123  C        -34.3630   13.0020   -3.4000 C.2   105  THR105      0.2287
    124  O        -34.9760   13.3010   -2.3750 O.2   105  THR105     -0.2866
    125  CB       -32.2620   14.2520   -3.9110 C.3   105  THR105      0.1770
    126  OG1      -30.8320   14.1950   -3.8720 O.3   105  THR105     -0.2211
    127  CG2      -32.7380   15.4110   -3.0470 C.3   105  THR105      0.0375
    128  N        -27.7950   13.5160   -4.0130 N.3   145  ASP145     -0.1225
    129  CA       -27.9790   14.2640   -5.2490 C.3   145  ASP145      0.1805
    130  C        -27.1740   13.6550   -6.3920 C.2   145  ASP145      0.2598
    131  O        -27.5880   13.7070   -7.5480 O.2   145  ASP145     -0.2718
    132  CB       -27.5830   15.7280   -5.0480 C.3   145  ASP145      0.1424
    133  CG       -28.3590   16.3940   -3.9280 C.2   145  ASP145      0.3668
    134  OD1      -29.4340   16.9670   -4.2050 O.co2 145  ASP145     -0.2456
    135  OD2      -27.8920   16.3460   -2.7700 O.co2 145  ASP145     -0.2456
    136  N        -26.0260   13.0720   -6.0590 N.am  146  SER146     -0.1952
    137  CA       -25.1340   12.5010   -7.0620 C.3   146  SER146      0.1924
    138  C        -25.4620   11.0410   -7.3650 C.2   146  SER146      0.2314
    139  O        -24.7950   10.4030   -8.1800 O.2   146  SER146     -0.2863
    140  CB       -23.6790   12.6200   -6.6050 C.3   146  SER146      0.2116
    141  OG       -23.3230   13.9750   -6.3960 O.3   146  SER146     -0.2180
    142  N        -28.0400    8.1860   -8.8170 N.3   148  LEU148     -0.1245
    143  CA       -29.1370    8.0110   -9.7620 C.3   148  LEU148      0.1561
    144  C        -29.5750    6.5520   -9.8450 C.2   148  LEU148      0.2260
    145  O        -28.8070    5.6450   -9.5210 O.2   148  LEU148     -0.2867
    146  CB       -28.7300    8.5140  -11.1460 C.3   148  LEU148      0.0270
    147  CG       -28.2920    9.9760  -11.2220 C.3   148  LEU148      0.0019
    148  CD1      -27.6650   10.2660  -12.5710 C.3   148  LEU148      0.0001
    149  CD2      -29.4730   10.8960  -10.9700 C.3   148  LEU148      0.0001
    150  N        -22.9080    9.1820  -10.1440 N.3   158  SER158     -0.1202
    151  CA       -22.7080   10.1850  -11.1850 C.3   158  SER158      0.2020
    152  C        -22.0810   11.4620  -10.6370 C.2   158  SER158      0.2618
    153  O        -21.6290   11.5020   -9.4910 O.2   158  SER158     -0.2717
    154  CB       -24.0360   10.5150  -11.8670 C.3   158  SER158      0.2103
    155  OG       -23.8510   11.4560  -12.9090 O.3   158  SER158     -0.2182
    156  N        -22.0610   12.4960  -11.4760 N.am  159  ASP159     -0.1973
    157  CA       -21.5460   13.8160  -11.1140 C.3   159  ASP159      0.1709
    158  C        -20.0930   13.7530  -10.6490 C.2   159  ASP159      0.2293
    159  O        -19.8060   13.8760   -9.4590 O.2   159  ASP159     -0.2864
    160  CB       -22.4210   14.4510  -10.0280 C.3   159  ASP159      0.1436
    161  CG       -22.3010   15.9640   -9.9900 C.2   159  ASP159      0.3671
    162  OD1      -21.2800   16.5000  -10.4730 O.co2 159  ASP159     -0.2456
    163  OD2      -23.2310   16.6200   -9.4750 O.co2 159  ASP159     -0.2456
@<TRIPOS>BOND
     1    37    38    1
     2    40    39    2
     3    67    68    1
     4    39    38    1
     5    70    69    2
     6    45    44    2
     7    38    41    1
     8    42    43    1
     9    69    68    1
    10    69    75   am
    11    68    71    1
    12    44    43    1
    13    88    89    1
    14    88    85    1
    15    75    76    1
    16    76    79    1
    17    76    77    1
    18    43    46    1
    19    91    89   ar
    20    91    93   ar
    21    84    77   am
    22    84    85    1
    23    89    90   ar
    24    93    94   ar
    25    79    80    1
    26    71    72    1
    27    72    73    1
    28    77    78    2
    29    85    86    1
    30    46    47    1
    31   111   109   ar
    32    32    33    2
    33    32    31    1
    34    90    92   ar
    35    94    92   ar
    36    87    86    2
    37    86    95   am
    38    80    81    1
    39    31    30    1
    40    31    34    1
    41    47    48    1
    42   108   109    1
    43   108   107    1
    44   109   110   ar
    45     7     5    1
    46    73    74    1
    47    82    81   ar
    48     1     2    1
    49    81    83   ar
    50    35    34    1
    51     8     6    1
    52    54    53    2
    53     6     5    1
    54    48    49    1
    55    53    52    1
    56    34    36    1
    57    95    96    1
    58     5     2    1
    59   107   104    1
    60    59    57   ar
    61     2     3    1
    62    27    28    1
    63    27    26    1
    64    28    29    2
    65    62    63    2
    66    62    61    1
    67    65    64    1
    68    56    57    1
    69    56    55    1
    70   103   104    1
    71   103    97   am
    72    49    50    1
    73    57    58   ar
    74   104   105    1
    75    96    97    1
    76    96    99    1
    77    52    55    1
    78    52    51    1
    79    12    11    2
    80    97    98    2
    81   101   100    1
    82     9     3   am
    83     9    10    1
    84     3     4    2
    85    61    64    1
    86    61    60    1
    87    64    66    1
    88    99   100    1
    89   100   102    1
    90   105   106    2
    91    11    10    1
    92    11    13   am
    93    21    19   ar
    94    19    18    1
    95    19    20   ar
    96    18    17    1
    97    17    14    1
    98    14    13    1
    99    14    15    1
   100   155   154    1
   101    22    15   am
   102    22    23    1
   103   148   147    1
   104    15    16    2
   105    25    24    2
   106   112   113    1
   107   154   151    1
   108    23    24    1
   109   156   157    1
   110   156   152   am
   111   113   114    1
   112   147   146    1
   113   147   149    1
   114   151   152    1
   115   151   150    1
   116   146   143    1
   117   157   158    1
   118   157   160    1
   119   158   159    2
   120   152   153    2
   121   162   161   ar
   122   114   115    2
   123   114   116   am
   124   160   161    1
   125   161   163   ar
   126   144   143    1
   127   144   145    2
   128   143   142    1
   129   116   117    1
   130   117   120    1
   131   117   118    1
   132   139   138    2
   133   131   130    2
   134   138   137    1
   135   137   140    1
   136   137   136    1
   137   118   119    2
   138   140   141    1
   139   130   136   am
   140   130   129    1
   141   129   132    1
   142   129   128    1
   143   132   133    1
   144   121   122    1
   145   134   133   ar
   146   133   135   ar
   147   125   126    1
   148   125   122    1
   149   125   127    1
   150   122   123    1
   151   123   124    2
