@<TRIPOS>MOLECULE
tmp/5veeA00.pdb
 202 189 0 0 0
SMALL
GASTEIGER

@<TRIPOS>ATOM
      1  N        -37.1290   18.3700  -17.2220 N.3    28  ILE28      -0.1231
      2  CA       -37.2580   17.5620  -16.0230 C.3    28  ILE28       0.1696
      3  C        -36.8130   18.3940  -14.8600 C.2    28  ILE28       0.2632
      4  O        -37.5360   18.5080  -13.8760 O.2    28  ILE28      -0.2714
      5  CB       -36.3330   16.3220  -15.9700 C.3    28  ILE28       0.0266
      6  CG1      -36.5140   15.4130  -17.1680 C.3    28  ILE28       0.0019
      7  CG2      -36.6020   15.5150  -14.6910 C.3    28  ILE28       0.0020
      8  CD1      -35.4590   14.3200  -17.2400 C.3    28  ILE28       0.0001
      9  N        -35.5860   18.9000  -14.9400 N.am   29  GLY29      -0.1718
     10  CA       -34.9510   19.4670  -13.7750 C.2    29  GLY29       0.1480
     11  C        -33.7600   20.3410  -14.0570 C.2    29  GLY29       0.2820
     12  O        -33.5110   20.7410  -15.1950 O.2    29  GLY29      -0.2669
     13  N        -33.0410   20.6380  -12.9790 N.am   30  GLU30      -0.1943
     14  CA       -31.9060   21.5380  -13.0060 C.3    30  GLU30       0.1605
     15  C        -31.1910   21.5200  -11.6570 C.2    30  GLU30       0.2287
     16  O        -31.8330   21.4720  -10.6000 O.2    30  GLU30      -0.2864
     17  CB       -32.3550   22.9620  -13.3440 C.3    30  GLU30       0.0415
     18  CG       -31.2760   24.0070  -13.1140 C.3    30  GLU30       0.1163
     19  CD       -31.4480   25.2480  -13.9540 C.2    30  GLU30       0.3649
     20  OE1      -32.5400   25.4470  -14.5380 O.co2  30  GLU30      -0.2457
     21  OE2      -30.4710   26.0270  -14.0200 O.co2  30  GLU30      -0.2457
     22  N        -31.9300   19.9220  -17.7150 N.3    36  VAL36      -0.1245
     23  CA       -32.0940   18.5390  -18.1310 C.3    36  VAL36       0.1561
     24  C        -33.4900   18.3240  -18.7250 C.2    36  VAL36       0.2260
     25  O        -34.4840   18.7820  -18.1550 O.2    36  VAL36      -0.2867
     26  CB       -31.8750   17.6000  -16.9480 C.3    36  VAL36       0.0252
     27  CG1      -32.1190   16.1450  -17.3510 C.3    36  VAL36       0.0019
     28  CG2      -30.4750   17.7990  -16.3920 C.3    36  VAL36       0.0019
     29  N        -36.2190   15.7080  -21.2630 N.3    38  ILE38      -0.1245
     30  CA       -36.5890   14.4560  -21.9100 C.3    38  ILE38       0.1561
     31  C        -36.8060   14.7850  -23.3630 C.2    38  ILE38       0.2260
     32  O        -37.2280   15.8740  -23.6700 O.2    38  ILE38      -0.2867
     33  CB       -37.8680   13.8620  -21.2930 C.3    38  ILE38       0.0252
     34  CG1      -37.5100   13.0830  -20.0480 C.3    38  ILE38       0.0019
     35  CG2      -38.6100   12.9290  -22.2430 C.3    38  ILE38       0.0019
     36  CD1      -38.6910   12.9300  -19.1220 C.3    38  ILE38       0.0001
     37  N        -32.7060   11.1210  -21.9000 N.3    49  ALA49      -0.1231
     38  CA       -32.4570   12.3040  -21.1050 C.3    49  ALA49       0.1694
     39  C        -31.3370   13.0780  -21.7380 C.2    49  ALA49       0.2592
     40  O        -30.4360   12.4850  -22.3060 O.2    49  ALA49      -0.2718
     41  CB       -32.1030   11.9220  -19.7010 C.3    49  ALA49       0.0304
     42  N        -31.4160   14.4030  -21.6500 N.am   50  VAL50      -0.1966
     43  CA       -30.4630   15.2640  -22.2970 C.3    50  VAL50       0.1727
     44  C        -30.0710   16.3610  -21.3650 C.2    50  VAL50       0.2616
     45  O        -30.8800   17.2210  -21.0780 O.2    50  VAL50      -0.2715
     46  CB       -31.0180   15.9620  -23.5430 C.3    50  VAL50       0.0290
     47  CG1      -29.9420   16.8770  -24.1170 C.3    50  VAL50       0.0023
     48  CG2      -31.4910   14.9630  -24.5850 C.3    50  VAL50       0.0023
     49  N        -28.8180   16.3720  -20.9540 N.am   51  LYS51      -0.1977
     50  CA       -28.3010   17.4730  -20.1870 C.3    51  LYS51       0.1596
     51  C        -27.7020   18.4400  -21.2000 C.2    51  LYS51       0.2287
     52  O        -27.0170   18.0110  -22.1070 O.2    51  LYS51      -0.2864
     53  CB       -27.2760   16.9590  -19.1890 C.3    51  LYS51       0.0298
     54  CG       -26.8860   17.9470  -18.0910 C.3    51  LYS51       0.0038
     55  CD       -26.1310   17.2640  -16.9460 C.3    51  LYS51       0.0206
     56  CE       -25.5570   18.2430  -15.9360 C.3    51  LYS51       0.1093
     57  NZ       -26.5450   19.2600  -15.4850 N.3    51  LYS51      -0.1314
     58  N        -25.7490   22.3220  -21.5880 N.3    53  MET53      -0.1245
     59  CA       -25.0380   23.3610  -20.8090 C.3    53  MET53       0.1570
     60  C        -24.2000   24.2910  -21.6950 C.2    53  MET53       0.2261
     61  O        -23.4530   23.8150  -22.5540 O.2    53  MET53      -0.2867
     62  CB       -24.1860   22.7320  -19.6940 C.3    53  MET53       0.0387
     63  CG       -23.5830   21.3650  -20.0100 C.3    53  MET53       0.0595
     64  SD       -22.9880   20.4860  -18.5370 S.3    53  MET53      -0.1393
     65  CE       -22.8770   18.8040  -19.1420 C.3    53  MET53       0.0692
     66  N        -17.5220   14.3200  -16.0560 N.3    67  GLU67      -0.1231
     67  CA       -18.6160   13.3940  -16.3630 C.3    67  GLU67       0.1699
     68  C        -18.3580   12.7860  -17.7510 C.2    67  GLU67       0.2592
     69  O        -18.2640   11.5700  -17.8810 O.2    67  GLU67      -0.2718
     70  CB       -20.0260   14.0320  -16.2050 C.3    67  GLU67       0.0402
     71  CG       -21.1790   12.9920  -16.0950 C.3    67  GLU67       0.1161
     72  CD       -22.2110   13.1870  -14.9330 C.2    67  GLU67       0.3649
     73  OE1      -22.9920   12.2290  -14.6150 O.co2  67  GLU67      -0.2457
     74  OE2      -22.2730   14.2800  -14.3110 O.co2  67  GLU67      -0.2457
     75  N        -18.1310   13.6220  -18.7590 N.am   68  VAL68      -0.1980
     76  CA       -18.0530   13.1230  -20.1350 C.3    68  VAL68       0.1595
     77  C        -16.8590   12.2280  -20.3620 C.2    68  VAL68       0.2287
     78  O        -17.0050   11.1210  -20.8650 O.2    68  VAL68      -0.2864
     79  CB       -18.0000   14.2400  -21.1820 C.3    68  VAL68       0.0276
     80  CG1      -18.1390   13.6420  -22.5890 C.3    68  VAL68       0.0022
     81  CG2      -19.1120   15.2430  -20.9250 C.3    68  VAL68       0.0022
     82  N        -25.7520    4.6340  -14.8060 N.3    80  VAL80      -0.1245
     83  CA       -26.5650    5.3270  -15.8010 C.3    80  VAL80       0.1561
     84  C        -25.7610    5.4700  -17.0800 C.2    80  VAL80       0.2260
     85  O        -24.6810    6.0420  -17.0690 O.2    80  VAL80      -0.2867
     86  CB       -27.0240    6.7180  -15.2950 C.3    80  VAL80       0.0252
     87  CG1      -27.8270    7.4570  -16.3680 C.3    80  VAL80       0.0019
     88  CG2      -27.9120    6.5510  -14.0910 C.3    80  VAL80       0.0019
     89  N        -24.4670    6.6600  -20.6290 N.3    82  MET82      -0.1245
     90  CA       -24.3650    7.8320  -21.5150 C.3    82  MET82       0.1570
     91  C        -24.3970    7.2930  -22.9240 C.2    82  MET82       0.2261
     92  O        -23.7540    6.2810  -23.2010 O.2    82  MET82      -0.2867
     93  CB       -23.0460    8.5420  -21.3290 C.3    82  MET82       0.0387
     94  CG       -22.9320    9.7770  -22.1850 C.3    82  MET82       0.0595
     95  SD       -21.3490   10.5980  -22.0140 S.3    82  MET82      -0.1393
     96  CE       -21.4180   10.9740  -20.2540 C.3    82  MET82       0.0692
     97  N        -25.5810   16.2890  -23.5120 N.3    94  VAL94      -0.1245
     98  CA       -25.2230   14.9120  -23.2610 C.3    94  VAL94       0.1561
     99  C        -26.4900   14.1050  -23.2100 C.2    94  VAL94       0.2260
    100  O        -27.4110   14.4350  -22.4730 O.2    94  VAL94      -0.2867
    101  CB       -24.4630   14.7770  -21.9510 C.3    94  VAL94       0.0252
    102  CG1      -24.0940   13.3290  -21.6910 C.3    94  VAL94       0.0019
    103  CG2      -23.2280   15.6500  -21.9850 C.3    94  VAL94       0.0019
    104  N        -28.4710   10.6620  -22.3940 N.3    96  MET96      -0.1230
    105  CA       -28.3810    9.5200  -21.4710 C.3    96  MET96       0.1702
    106  C        -29.6350    8.6990  -21.4150 C.2    96  MET96       0.2592
    107  O        -30.7020    9.1170  -21.7880 O.2    96  MET96      -0.2718
    108  CB       -28.0720    9.9970  -20.0300 C.3    96  MET96       0.0401
    109  CG       -26.7420   10.7420  -19.9360 C.3    96  MET96       0.0596
    110  SD       -25.8630   10.6650  -18.3640 S.3    96  MET96      -0.1393
    111  CE       -24.9870    9.1320  -18.4080 C.3    96  MET96       0.0692
    112  N        -29.5010    7.5220  -20.8510 N.am   97  GLU97      -0.1966
    113  CA       -30.6360    6.6620  -20.5710 C.3    97  GLU97       0.1733
    114  C        -31.6070    7.4440  -19.6880 C.2    97  GLU97       0.2616
    115  O        -31.1860    8.2330  -18.8340 O.2    97  GLU97      -0.2715
    116  CB       -30.0930    5.4420  -19.8690 C.3    97  GLU97       0.0429
    117  CG       -31.0470    4.3250  -19.5020 C.3    97  GLU97       0.1163
    118  CD       -30.3510    3.2770  -18.6050 C.2    97  GLU97       0.3649
    119  OE1      -31.0340    2.2990  -18.2010 O.co2  97  GLU97      -0.2457
    120  OE2      -29.1250    3.4350  -18.2940 O.co2  97  GLU97      -0.2457
    121  N        -32.9010    7.2420  -19.9150 N.am   98  PHE98      -0.1960
    122  CA       -33.9290    7.9090  -19.1600 C.3    98  PHE98       0.1771
    123  C        -34.5000    6.9290  -18.1230 C.2    98  PHE98       0.2619
    124  O        -35.1910    5.9780  -18.4760 O.2    98  PHE98      -0.2715
    125  CB       -35.0530    8.4470  -20.0790 C.3    98  PHE98       0.0574
    126  CG       -36.2750    8.9740  -19.3080 C.ar   98  PHE98      -0.0200
    127  CD1      -36.1240    9.9620  -18.3380 C.ar   98  PHE98      -0.0042
    128  CD2      -37.5500    8.4170  -19.4900 C.ar   98  PHE98      -0.0042
    129  CE1      -37.2190   10.4470  -17.6140 C.ar   98  PHE98      -0.0003
    130  CE2      -38.6440    8.8920  -18.7560 C.ar   98  PHE98      -0.0003
    131  CZ       -38.4840    9.9200  -17.8300 C.ar   98  PHE98      -0.0000
    132  N        -34.2480    7.1980  -16.8430 N.am   99  LEU99      -0.1963
    133  CA       -34.8240    6.4190  -15.7610 C.3    99  LEU99       0.1728
    134  C        -36.1330    6.9990  -15.2770 C.2    99  LEU99       0.2616
    135  O        -36.1960    8.0700  -14.6970 O.2    99  LEU99      -0.2715
    136  CB       -33.8090    6.1970  -14.6340 C.3    99  LEU99       0.0311
    137  CG       -32.7430    5.1720  -15.0700 C.3    99  LEU99       0.0022
    138  CD1      -31.6270    5.8230  -15.8630 C.3    99  LEU99       0.0001
    139  CD2      -32.1880    4.5030  -13.8580 C.3    99  LEU99       0.0001
    140  N        -37.1760    6.2190  -15.4990 N.am  100  GLU100     -0.1963
    141  CA       -38.5710    6.5850  -15.2870 C.3   100  GLU100      0.1733
    142  C        -38.9230    6.7370  -13.8130 C.2   100  GLU100      0.2617
    143  O        -39.8230    7.4840  -13.4660 O.2   100  GLU100     -0.2715
    144  CB       -39.4960    5.4950  -15.8590 C.3   100  GLU100      0.0429
    145  CG       -39.0260    4.8040  -17.1570 C.3   100  GLU100      0.1163
    146  CD       -38.1470    3.5810  -16.9310 C.2   100  GLU100      0.3649
    147  OE1      -38.6380    2.4420  -17.0030 O.co2 100  GLU100     -0.2457
    148  OE2      -36.9600    3.7470  -16.6490 O.co2 100  GLU100     -0.2457
    149  N        -38.2320    6.0180  -12.9330 N.am  101  GLY101     -0.1940
    150  CA       -38.5980    5.9980  -11.5160 C.3   101  GLY101      0.2014
    151  C        -38.1320    7.1880  -10.7180 C.2   101  GLY101      0.2639
    152  O        -38.6240    7.4190   -9.6190 O.2   101  GLY101     -0.2714
    153  N        -37.1750    7.9400  -11.2460 N.am  102  GLY102     -0.1939
    154  CA       -36.7220    9.1400  -10.5790 C.3   102  GLY102      0.2014
    155  C        -35.7010    8.8280   -9.5040 C.2   102  GLY102      0.2638
    156  O        -35.1650    7.7390   -9.4600 O.2   102  GLY102     -0.2714
    157  N        -35.4400    9.8050   -8.6490 N.am  103  ALA103     -0.1977
    158  CA       -34.4200    9.6960   -7.6610 C.3   103  ALA103      0.1597
    159  C        -34.9720    9.0560   -6.4020 C.2   103  ALA103      0.2287
    160  O        -36.1740    9.0820   -6.1200 O.2   103  ALA103     -0.2864
    161  CB       -33.8120   11.0590   -7.3660 C.3   103  ALA103      0.0319
    162  N        -36.8000   11.2370   -3.5130 N.3   106  ASP106     -0.1239
    163  CA       -38.2850   11.3490   -3.4500 C.3   106  ASP106      0.1674
    164  C        -38.9560   10.3740   -2.5390 C.2   106  ASP106      0.2266
    165  O        -39.9900   10.6850   -1.9590 O.2   106  ASP106     -0.2867
    166  CB       -38.9240   11.2160   -4.8390 C.3   106  ASP106      0.1410
    167  CG       -38.3790   12.2720   -5.8390 C.2   106  ASP106      0.3668
    168  OD1      -37.8520   13.3270   -5.3730 O.co2 106  ASP106     -0.2456
    169  OD2      -38.4530   12.0320   -7.0780 O.co2 106  ASP106     -0.2456
    170  N        -30.8200    6.5930   -9.0410 N.3   148  LEU148     -0.1245
    171  CA       -32.0250    6.6440   -9.8680 C.3   148  LEU148      0.1561
    172  C        -32.6670    5.2820   -9.9740 C.2   148  LEU148      0.2260
    173  O        -32.0080    4.2660   -9.8170 O.2   148  LEU148     -0.2867
    174  CB       -31.7060    7.2310  -11.2440 C.3   148  LEU148      0.0270
    175  CG       -31.1830    8.6940  -11.2720 C.3   148  LEU148      0.0019
    176  CD1      -30.8470    9.1690  -12.6700 C.3   148  LEU148      0.0001
    177  CD2      -32.1650    9.6590  -10.6400 C.3   148  LEU148      0.0001
    178  N        -25.7050    7.6140  -10.5400 N.3   158  SER158     -0.1202
    179  CA       -25.5030    8.6720  -11.5150 C.3   158  SER158      0.2020
    180  C        -24.8640    9.8930  -10.8470 C.2   158  SER158      0.2618
    181  O        -24.3830    9.7770   -9.7320 O.2   158  SER158     -0.2717
    182  CB       -26.8480    9.0130  -12.2050 C.3   158  SER158      0.2103
    183  OG       -27.2830   10.3580  -12.0140 O.3   158  SER158     -0.2182
    184  N        -24.8660   11.0390  -11.5380 N.am  159  ASP159     -0.1973
    185  CA       -24.4440   12.3430  -11.0000 C.3   159  ASP159      0.1709
    186  C        -22.9820   12.2990  -10.6390 C.2   159  ASP159      0.2293
    187  O        -22.6150   12.4210   -9.4800 O.2   159  ASP159     -0.2864
    188  CB       -25.3260   12.8390   -9.8310 C.3   159  ASP159      0.1436
    189  CG       -26.4940   13.7150  -10.2880 C.2   159  ASP159      0.3671
    190  OD1      -26.9900   13.5620  -11.4320 O.co2 159  ASP159     -0.2456
    191  OD2      -26.9220   14.5690   -9.4780 O.co2 159  ASP159     -0.2456
    192  N        -43.8730    6.8030   -6.4500 N.3   286  ARG286     -0.1245
    193  CA       -44.9800    7.7940   -6.4480 C.3   286  ARG286      0.1563
    194  C        -46.2280    7.3640   -7.2450 C.2   286  ARG286      0.2260
    195  O        -47.3470    7.7410   -6.8910 O.2   286  ARG286     -0.2867
    196  CB       -44.4770    9.1640   -6.9500 C.3   286  ARG286      0.0307
    197  CG       -45.4150   10.3360   -6.6830 C.3   286  ARG286      0.0489
    198  CD       -44.6870   11.6790   -6.6970 C.3   286  ARG286      0.2205
    199  NE       -45.5690   12.7980   -6.3410 N.pl3 286  ARG286     -0.0865
    200  CZ       -45.9720   13.1190   -5.1040 C.cat 286  ARG286      0.5346
    201  NH1      -45.5900   12.4200   -4.0370 N.pl3 286  ARG286      0.1354
    202  NH2      -46.7780   14.1610   -4.9280 N.pl3 286  ARG286      0.1354
@<TRIPOS>BOND
     1    48    46    1
     2    47    46    1
     3    32    31    2
     4    46    43    1
     5    97    98    1
     6    31    30    1
     7    98    99    1
     8    98   101    1
     9    99   100    2
    10    92    91    2
    11    91    90    1
    12    80    79    1
    13    61    60    2
    14   104   105    1
    15    40    39    2
    16    43    42    1
    17    43    44    1
    18    35    33    1
    19    94    95    1
    20    94    93    1
    21    52    51    2
    22    95    96    1
    23   103   101    1
    24   101   102    1
    25    30    33    1
    26    30    29    1
    27    37    38    1
    28   107   106    2
    29    39    42   am
    30    39    38    1
    31    60    59    1
    32    58    59    1
    33    90    93    1
    34    90    89    1
    35   105   106    1
    36   105   108    1
    37   106   112   am
    38    44    45    2
    39    44    49   am
    40    33    34    1
    41    51    50    1
    42    79    81    1
    43    79    76    1
    44    38    41    1
    45    49    50    1
    46    78    77    2
    47   112   113    1
    48    59    62    1
    49   113   116    1
    50   113   114    1
    51    77    76    1
    52    50    53    1
    53    76    75    1
    54   125   126    1
    55   125   122    1
    56    34    36    1
    57   108   109    1
    58    63    62    1
    59    63    64    1
    60   109   110    1
    61   121   114   am
    62   121   122    1
    63   116   117    1
    64   114   115    2
    65   117   118    1
    66   128   126   ar
    67   128   130   ar
    68   126   127   ar
    69    53    54    1
    70   122   123    1
    71    65    64    1
    72    75    68   am
    73   130   131   ar
    74    24    25    2
    75    24    23    1
    76   118   120   ar
    77   118   119   ar
    78   124   123    2
    79   111   110    1
    80   127   129   ar
    81    23    22    1
    82    23    26    1
    83   123   132   am
    84    54    55    1
    85    69    68    2
    86   131   129   ar
    87    68    67    1
    88    27    26    1
    89     8     6    1
    90     1     2    1
    91     6     5    1
    92   145   146    1
    93   145   144    1
    94    84    85    2
    95    84    83    1
    96   147   146   ar
    97    26    28    1
    98    55    56    1
    99   146   148   ar
   100   132   133    1
   101    87    86    1
   102    67    70    1
   103    67    66    1
   104    70    71    1
   105    71    72    1
   106     2     5    1
   107     2     3    1
   108     5     7    1
   109    56    57    1
   110   138   137    1
   111   144   141    1
   112    83    86    1
   113    83    82    1
   114   133   134    1
   115   133   136    1
   116   140   141    1
   117   140   134   am
   118    86    88    1
   119   141   142    1
   120   134   135    2
   121    12    11    2
   122   137   136    1
   123   137   139    1
   124     9     3    1
   125     9    10    2
   126    72    73   ar
   127    72    74   ar
   128     3     4    2
   129    20    19   ar
   130    11    10    1
   131    11    13   am
   132    21    19   ar
   133    19    18    1
   134   142   143    2
   135   142   149   am
   136    17    18    1
   137    17    14    1
   138    14    13    1
   139    14    15    1
   140   149   150    1
   141   176   175    1
   142   182   183    1
   143   182   179    1
   144    15    16    2
   145   184   185    1
   146   184   180   am
   147   150   151    1
   148   179   180    1
   149   179   178    1
   150   190   189   ar
   151   175   174    1
   152   175   177    1
   153   153   151   am
   154   153   154    1
   155   174   171    1
   156   185   186    1
   157   185   188    1
   158   180   181    2
   159   151   152    2
   160   186   187    2
   161   154   155    1
   162   189   188    1
   163   189   191   ar
   164   172   171    1
   165   172   173    2
   166   171   170    1
   167   155   156    2
   168   155   157   am
   169   157   158    1
   170   158   161    1
   171   158   159    1
   172   194   195    2
   173   194   193    1
   174   169   167   ar
   175   196   197    1
   176   196   193    1
   177   198   197    1
   178   198   199    1
   179   192   193    1
   180   159   160    2
   181   199   200    2
   182   167   168   ar
   183   167   166    1
   184   200   202    1
   185   200   201    1
   186   166   163    1
   187   162   163    1
   188   163   164    1
   189   164   165    2
