@<TRIPOS>MOLECULE
tmp/5vefA00.pdb
 135 125 0 0 0
SMALL
GASTEIGER

@<TRIPOS>ATOM
      1  N         18.0880   28.7830   18.8470 N.3    28  ILE28      -0.1231
      2  CA        17.3490   28.2410   17.7100 C.3    28  ILE28       0.1692
      3  C         17.7020   28.9190   16.3930 C.2    28  ILE28       0.2593
      4  O         17.4580   28.3590   15.3400 O.2    28  ILE28      -0.2718
      5  CB        15.8230   28.3380   17.9230 C.3    28  ILE28       0.0266
      6  CG1       15.3770   29.7930   18.1170 C.3    28  ILE28       0.0019
      7  CG2       15.4260   27.4690   19.1140 C.3    28  ILE28       0.0020
      8  CD1       13.9210   30.0410   17.8860 C.3    28  ILE28       0.0001
      9  N         18.2990   30.1050   16.4400 N.am   29  GLY29      -0.1942
     10  CA        18.5220   30.8600   15.2220 C.3    29  GLY29       0.2014
     11  C         19.6720   31.8370   15.3150 C.2    29  GLY29       0.2639
     12  O         20.0930   32.2210   16.4010 O.2    29  GLY29      -0.2714
     13  N         20.1850   32.2300   14.1540 N.am   30  GLU30      -0.1963
     14  CA        21.2260   33.2420   14.0790 C.3    30  GLU30       0.1733
     15  C         20.8800   34.2290   12.9690 C.2    30  GLU30       0.2616
     16  O         20.6580   33.8300   11.8310 O.2    30  GLU30      -0.2715
     17  CB        22.5800   32.5910   13.8360 C.3    30  GLU30       0.0429
     18  CG        23.7590   33.4620   14.1900 C.3    30  GLU30       0.1163
     19  CD        25.0480   32.6760   14.2470 C.2    30  GLU30       0.3649
     20  OE1       25.0930   31.5690   13.6690 O.co2  30  GLU30      -0.2457
     21  OE2       26.0120   33.1580   14.8770 O.co2  30  GLU30      -0.2457
     22  N         20.8060   35.5120   13.3090 N.am   31  GLY31      -0.1955
     23  CA        20.4270   36.5390   12.3540 C.3    31  GLY31       0.1869
     24  C         21.5880   37.4500   12.0010 C.2    31  GLY31       0.2309
     25  O         22.7280   37.1900   12.3810 O.2    31  GLY31      -0.2863
     26  N         18.9570   34.1230   18.3900 N.3    36  VAL36      -0.1245
     27  CA        17.6200   33.9960   18.9280 C.3    36  VAL36       0.1561
     28  C         17.5770   32.6790   19.6910 C.2    36  VAL36       0.2260
     29  O         18.0110   31.6420   19.1850 O.2    36  VAL36      -0.2867
     30  CB        16.5540   34.0120   17.8340 C.3    36  VAL36       0.0252
     31  CG1       15.1940   33.8090   18.4320 C.3    36  VAL36       0.0019
     32  CG2       16.6240   35.3380   17.0420 C.3    36  VAL36       0.0019
     33  N         10.6190   33.9170   22.9940 N.3    49  ALA49      -0.1245
     34  CA        11.8580   34.0380   22.2480 C.3    49  ALA49       0.1562
     35  C         12.6700   35.1850   22.8240 C.2    49  ALA49       0.2260
     36  O         12.1180   36.1540   23.3550 O.2    49  ALA49      -0.2867
     37  CB        11.5890   34.2480   20.7510 C.3    49  ALA49       0.0290
     38  N         15.8910   37.5540   21.6310 N.3    51  LYS51      -0.1245
     39  CA        16.8550   37.9730   20.6450 C.3    51  LYS51       0.1561
     40  C         18.0080   38.6540   21.3650 C.2    51  LYS51       0.2260
     41  O         17.7910   39.5860   22.1320 O.2    51  LYS51      -0.2867
     42  CB        16.1810   38.9000   19.6380 C.3    51  LYS51       0.0271
     43  CG        17.0470   39.2580   18.4500 C.3    51  LYS51       0.0035
     44  CD        16.2240   39.9620   17.3740 C.3    51  LYS51       0.0206
     45  CE        17.0510   40.2480   16.1230 C.3    51  LYS51       0.1093
     46  NZ        16.2510   40.9590   15.0880 N.3    51  LYS51      -0.1314
     47  N          5.3700   40.6550   14.6580 N.3    80  VAL80      -0.1245
     48  CA         5.7420   39.9130   15.8660 C.3    80  VAL80       0.1561
     49  C          5.6490   40.8400   17.0820 C.2    80  VAL80       0.2260
     50  O          6.1270   41.9640   17.0600 O.2    80  VAL80      -0.2867
     51  CB         7.1440   39.3150   15.7480 C.3    80  VAL80       0.0252
     52  CG1        7.5760   38.6700   17.0670 C.3    80  VAL80       0.0019
     53  CG2        7.1700   38.2760   14.6420 C.3    80  VAL80       0.0019
     54  N         10.4190   38.4640   23.2330 N.3    96  MET96      -0.1182
     55  CA         9.3240   38.6010   22.2770 C.3    96  MET96       0.1917
     56  C          8.5400   37.3170   22.1270 C.2    96  MET96       0.2635
     57  O          8.8750   36.2880   22.7140 O.2    96  MET96      -0.2714
     58  CB         9.8760   39.0480   20.9260 C.2    96  MET96       0.0083
     59  CG        10.9270   38.1390   20.3260 C.2    96  MET96       0.0282
     60  SD        11.6370   38.6920   18.7370 S.3    96  MET96      -0.1125
     61  CE        12.5890   40.1200   19.2500 C.3    96  MET96       0.0742
     62  N          7.4820   37.4000   21.3350 N.am   97  GLU97      -0.1963
     63  CA         6.5950   36.2860   21.0550 C.3    97  GLU97       0.1733
     64  C          7.3800   35.1700   20.3900 C.2    97  GLU97       0.2616
     65  O          8.2110   35.4410   19.5220 O.2    97  GLU97      -0.2715
     66  CB         5.4610   36.7900   20.1510 C.3    97  GLU97       0.0429
     67  CG         4.5060   35.7640   19.6190 C.3    97  GLU97       0.1163
     68  CD         3.5200   36.3670   18.6150 C.2    97  GLU97       0.3649
     69  OE1        3.7350   37.5220   18.1560 O.co2  97  GLU97      -0.2457
     70  OE2        2.5250   35.6870   18.2830 O.co2  97  GLU97      -0.2457
     71  N          7.1370   33.9230   20.7960 N.am   98  PHE98      -0.1960
     72  CA         7.7470   32.7750   20.1250 C.3    98  PHE98       0.1771
     73  C          6.8060   32.3280   18.9890 C.2    98  PHE98       0.2619
     74  O          5.6480   31.9940   19.2310 O.2    98  PHE98      -0.2715
     75  CB         8.0000   31.6460   21.1210 C.3    98  PHE98       0.0574
     76  CG         8.5110   30.3910   20.5030 C.ar   98  PHE98      -0.0200
     77  CD1        9.5830   30.4060   19.6270 C.ar   98  PHE98      -0.0042
     78  CD2        7.9330   29.1800   20.8290 C.ar   98  PHE98      -0.0042
     79  CE1       10.0510   29.2290   19.0750 C.ar   98  PHE98      -0.0003
     80  CE2        8.3930   28.0130   20.2830 C.ar   98  PHE98      -0.0003
     81  CZ         9.4540   28.0340   19.4080 C.ar   98  PHE98      -0.0000
     82  N          7.3130   32.4000   17.7580 N.am   99  LEU99      -0.1977
     83  CA         6.6090   31.9470   16.5540 C.3    99  LEU99       0.1596
     84  C          7.0600   30.5190   16.2370 C.2    99  LEU99       0.2287
     85  O          8.0760   30.2990   15.5620 O.2    99  LEU99      -0.2864
     86  CB         6.9130   32.8730   15.3730 C.3    99  LEU99       0.0297
     87  CG         6.2210   34.2360   15.2580 C.3    99  LEU99       0.0022
     88  CD1        4.8170   34.0850   14.7320 C.3    99  LEU99       0.0001
     89  CD2        6.1910   34.9340   16.5690 C.3    99  LEU99       0.0001
     90  N          8.1920   28.6110   12.9090 N.3   102  GLY102     -0.1210
     91  CA         9.4730   28.8510   12.2800 C.3   102  GLY102      0.1956
     92  C          9.3750   29.8800   11.1820 C.2   102  GLY102      0.2611
     93  O          8.4010   30.6100   11.1090 O.2   102  GLY102     -0.2717
     94  N         10.3890   29.9190   10.3250 N.am  103  ALA103     -0.1979
     95  CA        10.4980   30.9480    9.3070 C.3   103  ALA103      0.1597
     96  C         10.1100   30.3900    7.9510 C.2   103  ALA103      0.2287
     97  O         10.2680   29.2030    7.6850 O.2   103  ALA103     -0.2864
     98  CB        11.9160   31.5090    9.2630 C.3   103  ALA103      0.0319
     99  N         11.5830   30.6170    5.2210 N.3   105  THR105     -0.1218
    100  CA        12.7340   30.0020    4.5740 C.3   105  THR105      0.1862
    101  C         12.7150   28.4740    4.6190 C.2   105  THR105      0.2287
    102  O         13.0100   27.8190    3.6230 O.2   105  THR105     -0.2866
    103  CB        14.0400   30.4740    5.2100 C.3   105  THR105      0.1770
    104  OG1       14.0330   31.9030    5.2780 O.3   105  THR105     -0.2211
    105  CG2       15.2260   30.0300    4.3750 C.3   105  THR105      0.0375
    106  N         13.3330   34.8150    5.1980 N.3   145  ASP145     -0.1239
    107  CA        13.9260   34.7610    6.5370 C.3   145  ASP145      0.1674
    108  C         13.2550   35.7100    7.5430 C.2   145  ASP145      0.2266
    109  O         13.3630   35.4970    8.7470 O.2   145  ASP145     -0.2867
    110  CB        15.4110   35.1000    6.4730 C.3   145  ASP145      0.1410
    111  CG        16.1460   34.3440    5.3820 C.2   145  ASP145      0.3668
    112  OD1       15.9890   34.6900    4.1780 O.co2 145  ASP145     -0.2456
    113  OD2       16.8960   33.4120    5.7400 O.co2 145  ASP145     -0.2456
    114  N          7.7060   34.9880    9.7590 N.3   148  LEU148     -0.1245
    115  CA         7.6140   33.9270   10.7400 C.3   148  LEU148      0.1561
    116  C          6.1820   33.4550   10.8110 C.2   148  LEU148      0.2260
    117  O          5.2450   34.1740   10.4380 O.2   148  LEU148     -0.2867
    118  CB         8.1030   34.3930   12.1150 C.3   148  LEU148      0.0270
    119  CG         9.5490   34.9070   12.1570 C.3   148  LEU148      0.0019
    120  CD1        9.8920   35.3380   13.5660 C.3   148  LEU148      0.0001
    121  CD2       10.5230   33.8540   11.6860 C.3   148  LEU148      0.0001
    122  N          8.9180   40.0690   10.9390 N.3   158  SER158     -0.1202
    123  CA         9.9160   40.1880   11.9960 C.3   158  SER158      0.2020
    124  C         11.1990   40.8370   11.4740 C.2   158  SER158      0.2618
    125  O         11.2720   41.2470   10.3070 O.2   158  SER158     -0.2717
    126  CB        10.2360   38.8110   12.5730 C.3   158  SER158      0.2103
    127  OG        10.9780   38.0510   11.6340 O.3   158  SER158     -0.2182
    128  N         12.2080   40.9360   12.3430 N.am  159  ASP159     -0.1973
    129  CA        13.5450   41.4460   11.9970 C.3   159  ASP159      0.1709
    130  C         13.5410   42.8850   11.4620 C.2   159  ASP159      0.2293
    131  O         13.9380   43.1440   10.3240 O.2   159  ASP159     -0.2864
    132  CB        14.2240   40.5130   10.9810 C.3   159  ASP159      0.1436
    133  CG        14.5630   39.1450   11.5730 C.2   159  ASP159      0.3671
    134  OD1       15.0030   39.0910   12.7430 O.co2 159  ASP159     -0.2456
    135  OD2       14.3890   38.1240   10.8710 O.co2 159  ASP159     -0.2456
@<TRIPOS>BOND
     1   102   101    2
     2   112   111   ar
     3   105   103    1
     4   100   101    1
     5   100   103    1
     6   100    99    1
     7   106   107    1
     8   103   104    1
     9   111   113   ar
    10   111   110    1
    11   110   107    1
    12   107   108    1
    13   108   109    2
    14    97    96    2
    15    96    95    1
    16    98    95    1
    17    95    94    1
    18   114   115    1
    19   125   124    2
    20   131   130    2
    21    94    92   am
    22   117   116    2
    23   115   116    1
    24   115   118    1
    25   135   133   ar
    26   122   123    1
    27   132   133    1
    28   132   129    1
    29    93    92    2
    30    92    91    1
    31   130   129    1
    32   124   123    1
    33   124   128   am
    34   133   134   ar
    35   127   126    1
    36   121   119    1
    37    16    15    2
    38   123   126    1
    39   129   128    1
    40    24    23    1
    41    24    25    2
    42   118   119    1
    43   119   120    1
    44    91    90    1
    45    23    22    1
    46    15    22   am
    47    15    14    1
    48    20    19   ar
    49    17    14    1
    50    17    18    1
    51    14    13    1
    52    13    11   am
    53    18    19    1
    54    19    21   ar
    55    53    51    1
    56    47    48    1
    57    88    87    1
    58    46    45    1
    59    10    11    1
    60    10     9    1
    61    87    86    1
    62    87    89    1
    63    11    12    2
    64     4     3    2
    65    86    83    1
    66    85    84    2
    67    51    48    1
    68    51    52    1
    69    48    49    1
    70    45    44    1
    71    84    83    1
    72     3     9   am
    73     3     2    1
    74    83    82    1
    75    32    30    1
    76    50    49    2
    77    44    43    1
    78     2     5    1
    79     2     1    1
    80    82    73   am
    81    30    31    1
    82    30    27    1
    83     8     6    1
    84     5     6    1
    85     5     7    1
    86    69    68   ar
    87    70    68   ar
    88    26    27    1
    89    43    42    1
    90    68    67    1
    91    60    61    1
    92    60    59    1
    93    27    28    1
    94    73    74    2
    95    73    72    1
    96    79    81   ar
    97    79    77   ar
    98    29    28    2
    99    81    80   ar
   100    65    64    2
   101    67    66    1
   102    77    76   ar
   103    42    39    1
   104    72    71    1
   105    72    75    1
   106    66    63    1
   107    80    78   ar
   108    59    58    2
   109    64    71   am
   110    64    63    1
   111    76    78   ar
   112    76    75    1
   113    39    40    1
   114    39    38    1
   115    37    34    1
   116    58    55    1
   117    63    62    1
   118    62    56   am
   119    40    41    2
   120    56    55    1
   121    56    57    2
   122    34    35    1
   123    34    33    1
   124    55    54    1
   125    35    36    2
