@<TRIPOS>MOLECULE
tmp/5vegB00.pdb
 159 157 0 0 0
SMALL
GASTEIGER

@<TRIPOS>ATOM
      1  N         13.9090  -28.1110   34.5210 N.3    10  THR10      -0.1203
      2  CA        14.4470  -26.7700   34.3500 C.3    10  THR10       0.1994
      3  C         15.9350  -26.8310   34.0260 C.2    10  THR10       0.2618
      4  O         16.6410  -27.7600   34.4310 O.2    10  THR10      -0.2717
      5  CB        14.1900  -25.9200   35.6020 C.3    10  THR10       0.1784
      6  OG1       14.4270  -24.5420   35.3010 O.3    10  THR10      -0.2211
      7  CG2       15.0840  -26.3480   36.7730 C.3    10  THR10       0.0376
      8  N         16.3920  -25.8490   33.2520 N.am   11  MET11      -0.1965
      9  CA        17.8180  -25.5730   33.0840 C.3    11  MET11       0.1736
     10  C         18.2390  -24.2330   33.6720 C.2    11  MET11       0.2617
     11  O         19.2530  -24.1690   34.3740 O.2    11  MET11      -0.2715
     12  CB        18.2200  -25.6190   31.5940 C.3    11  MET11       0.0427
     13  CG        17.7280  -26.8690   30.8590 C.3    11  MET11       0.0599
     14  SD        18.7040  -27.2220   29.3800 S.3    11  MET11      -0.1393
     15  CE        18.7340  -25.5900   28.7180 C.3    11  MET11       0.0692
     16  N         17.4860  -23.1510   33.4270 N.am   12  THR12      -0.1951
     17  CA        17.8480  -21.8350   33.9450 C.3    12  THR12       0.1897
     18  C         16.8960  -21.3380   35.0340 C.2    12  THR12       0.2313
     19  O         16.9110  -20.1470   35.3530 O.2    12  THR12      -0.2863
     20  CB        17.9430  -20.8080   32.8020 C.3    12  THR12       0.1794
     21  OG1       16.8060  -20.9220   31.9410 O.3    12  THR12      -0.2208
     22  CG2       19.2020  -21.0400   31.9620 C.3    12  THR12       0.0378
     23  N         13.4970  -21.0870   35.3700 N.3    14  ASN14      -0.1225
     24  CA        12.1800  -20.4760   35.1830 C.3    14  ASN14       0.1785
     25  C         11.0520  -21.4440   35.5080 C.2    14  ASN14       0.2597
     26  O         10.0670  -21.0650   36.1600 O.2    14  ASN14      -0.2718
     27  CB        12.0340  -19.9590   33.7510 C.3    14  ASN14       0.1169
     28  CG        12.5820  -18.5620   33.5970 C.2    14  ASN14       0.2627
     29  OD1       12.7160  -17.8520   34.5800 O.2    14  ASN14      -0.2716
     30  ND2       12.8960  -18.1550   32.3630 N.am   14  ASN14      -0.0877
     31  N         11.1740  -22.6970   35.0580 N.am   15  ASN15      -0.1974
     32  CA        10.1040  -23.6690   35.2670 C.3    15  ASN15       0.1688
     33  C         10.0670  -24.1900   36.6940 C.2    15  ASN15       0.2292
     34  O          9.0110  -24.6300   37.1610 O.2    15  ASN15      -0.2864
     35  CB        10.2550  -24.8300   34.2960 C.3    15  ASN15       0.1181
     36  CG         9.6380  -24.5290   32.9610 C.2    15  ASN15       0.2629
     37  OD1        8.4290  -24.6760   32.7920 O.2    15  ASN15      -0.2716
     38  ND2       10.4580  -24.0910   32.0010 N.am   15  ASN15      -0.0877
     39  N         10.0950  -27.1230   30.6130 N.3    57  TYR57      -0.1227
     40  CA        10.4830  -26.2370   29.5200 C.3    57  TYR57       0.1736
     41  C         10.4000  -26.9500   28.1790 C.2    57  TYR57       0.2596
     42  O         10.3300  -28.1790   28.0950 O.2    57  TYR57      -0.2718
     43  CB        11.9080  -25.6920   29.7000 C.3    57  TYR57       0.0548
     44  CG        12.9980  -26.7590   29.7760 C.ar   57  TYR57      -0.0200
     45  CD1       13.2860  -27.3990   30.9760 C.ar   57  TYR57      -0.0009
     46  CD2       13.7360  -27.1220   28.6540 C.ar   57  TYR57      -0.0009
     47  CE1       14.2690  -28.3830   31.0550 C.ar   57  TYR57       0.0417
     48  CE2       14.7320  -28.1080   28.7300 C.ar   57  TYR57       0.0417
     49  CZ        14.9830  -28.7330   29.9340 C.ar   57  TYR57       0.1957
     50  OH        15.9560  -29.7090   30.0310 O.3    57  TYR57      -0.2866
     51  N         10.4120  -26.1430   27.1250 N.am   58  THR58      -0.1939
     52  CA        10.5450  -26.6010   25.7510 C.3    58  THR58       0.2028
     53  C         11.9120  -26.1700   25.2540 C.2    58  THR58       0.2642
     54  O         12.3440  -25.0460   25.5250 O.2    58  THR58      -0.2714
     55  CB         9.4540  -26.0080   24.8520 C.3    58  THR58       0.1808
     56  OG1        8.1710  -26.3540   25.3840 O.3    58  THR58      -0.2208
     57  CG2        9.5740  -26.5450   23.4350 C.3    58  THR58       0.0379
     58  N         12.5990  -27.0690   24.5520 N.am   59  TYR59      -0.1959
     59  CA        13.9650  -26.8320   24.1190 C.3    59  TYR59       0.1771
     60  C         14.1130  -27.2040   22.6540 C.2    59  TYR59       0.2620
     61  O         13.3400  -28.0000   22.1180 O.2    59  TYR59      -0.2715
     62  CB        14.9640  -27.6430   24.9580 C.3    59  TYR59       0.0574
     63  CG        16.2970  -26.9600   25.1560 C.ar   59  TYR59      -0.0198
     64  CD1       16.3620  -25.6080   25.4700 C.ar   59  TYR59      -0.0009
     65  CD2       17.4910  -27.6660   25.0440 C.ar   59  TYR59      -0.0009
     66  CE1       17.5780  -24.9700   25.6550 C.ar   59  TYR59       0.0417
     67  CE2       18.7160  -27.0340   25.2320 C.ar   59  TYR59       0.0417
     68  CZ        18.7500  -25.6850   25.5330 C.ar   59  TYR59       0.1957
     69  OH        19.9490  -25.0410   25.7320 O.3    59  TYR59      -0.2866
     70  N         15.1190  -26.6040   22.0170 N.am   60  ASP60      -0.1957
     71  CA        15.6240  -27.0320   20.7100 C.3    60  ASP60       0.1840
     72  C         14.4920  -27.2730   19.7110 C.2    60  ASP60       0.2622
     73  O         14.3440  -28.3600   19.1490 O.2    60  ASP60      -0.2715
     74  CB        16.4900  -28.2890   20.8530 C.3    60  ASP60       0.1450
     75  CG        17.7380  -28.2390   19.9920 C.2    60  ASP60       0.3671
     76  OD1       18.3400  -27.1490   19.8890 O.co2  60  ASP60      -0.2456
     77  OD2       18.1130  -29.2850   19.4200 O.co2  60  ASP60      -0.2456
     78  N         13.6810  -26.2360   19.5110 N.am   61  GLU61      -0.1963
     79  CA        12.5750  -26.2640   18.5520 C.3    61  GLU61       0.1733
     80  C         11.6810  -27.4910   18.7680 C.2    61  GLU61       0.2616
     81  O         11.5810  -28.3870   17.9280 O.2    61  GLU61      -0.2715
     82  CB        13.1010  -26.2260   17.1120 C.3    61  GLU61       0.0429
     83  CG        13.7970  -24.9300   16.7170 C.3    61  GLU61       0.1163
     84  CD        14.2540  -24.9340   15.2650 C.2    61  GLU61       0.3649
     85  OE1       14.5940  -23.8510   14.7410 O.co2  61  GLU61      -0.2457
     86  OE2       14.2730  -26.0190   14.6470 O.co2  61  GLU61      -0.2457
     87  N         11.0430  -27.5130   19.9350 N.am   62  GLY62      -0.1955
     88  CA         9.9840  -28.4560   20.2160 C.3    62  GLY62       0.1869
     89  C         10.3720  -29.6320   21.0820 C.2    62  GLY62       0.2309
     90  O          9.4880  -30.4150   21.4590 O.2    62  GLY62      -0.2863
     91  N          7.1090  -22.6920   31.2540 N.3    90  SER90      -0.1202
     92  CA         7.7050  -21.4270   30.8530 C.3    90  SER90       0.2020
     93  C          8.4940  -21.6280   29.5710 C.2    90  SER90       0.2619
     94  O          9.3180  -22.5450   29.4780 O.2    90  SER90      -0.2717
     95  CB         8.6220  -20.8690   31.9450 C.3    90  SER90       0.2103
     96  OG         9.4720  -19.8560   31.4200 O.3    90  SER90      -0.2182
     97  N          8.2510  -20.7610   28.5950 N.am   91  GLY91      -0.1942
     98  CA         8.9020  -20.8480   27.3020 C.3    91  GLY91       0.2014
     99  C          9.2320  -19.4680   26.7820 C.2    91  GLY91       0.2638
    100  O          9.3200  -18.5130   27.5570 O.2    91  GLY91      -0.2714
    101  N          9.4590  -19.3420   25.4810 N.am   92  ASP92      -0.1971
    102  CA         9.8090  -18.0640   24.8790 C.3    92  ASP92       0.1709
    103  C          8.8960  -17.8510   23.6800 C.2    92  ASP92       0.2293
    104  O          8.8680  -18.6860   22.7710 O.2    92  ASP92      -0.2864
    105  CB        11.2810  -18.0370   24.4740 C.3    92  ASP92       0.1436
    106  CG        11.7570  -16.6530   24.1020 C.2    92  ASP92       0.3671
    107  OD1       10.9310  -15.8450   23.6280 O.co2  92  ASP92      -0.2456
    108  OD2       12.9630  -16.3700   24.2610 O.co2  92  ASP92      -0.2456
    109  N          9.7010  -18.2100   19.8160 N.3    95  TYR95      -0.1241
    110  CA         9.7080  -19.4860   19.1040 C.3    95  TYR95       0.1605
    111  C          8.3740  -19.7840   18.4060 C.2    95  TYR95       0.2264
    112  O          8.1980  -20.8910   17.8730 O.2    95  TYR95      -0.2867
    113  CB        10.1020  -20.6150   20.0690 C.3    95  TYR95       0.0534
    114  CG        11.5690  -20.5260   20.4350 C.ar   95  TYR95      -0.0201
    115  CD1       12.0120  -19.6230   21.4050 C.ar   95  TYR95      -0.0009
    116  CD2       12.5230  -21.2950   19.7690 C.ar   95  TYR95      -0.0009
    117  CE1       13.3600  -19.5070   21.7140 C.ar   95  TYR95       0.0417
    118  CE2       13.8710  -21.1870   20.0720 C.ar   95  TYR95       0.0417
    119  CZ        14.2810  -20.2940   21.0480 C.ar   95  TYR95       0.1957
    120  OH        15.6150  -20.1840   21.3500 O.3    95  TYR95      -0.2866
    121  N          6.2840  -23.1930   18.2640 N.3    98  TYR98      -0.1227
    122  CA         6.9300  -24.1140   19.1930 C.3    98  TYR98       0.1736
    123  C          6.8840  -23.6360   20.6450 C.2    98  TYR98       0.2595
    124  O          7.4330  -24.3120   21.5260 O.2    98  TYR98      -0.2718
    125  CB         8.3890  -24.3300   18.7830 C.3    98  TYR98       0.0548
    126  CG         8.5680  -25.1140   17.5020 C.ar   98  TYR98      -0.0200
    127  CD1        8.2830  -26.4740   17.4550 C.ar   98  TYR98      -0.0009
    128  CD2        9.0180  -24.4930   16.3380 C.ar   98  TYR98      -0.0009
    129  CE1        8.4460  -27.2010   16.2880 C.ar   98  TYR98       0.0417
    130  CE2        9.1890  -25.2150   15.1610 C.ar   98  TYR98       0.0417
    131  CZ         8.8990  -26.5710   15.1450 C.ar   98  TYR98       0.1957
    132  OH         9.0580  -27.3080   13.9920 O.3    98  TYR98      -0.2866
    133  N          6.2700  -22.4820   20.9060 N.am   99  PHE99      -0.1962
    134  CA         6.0410  -21.9720   22.2570 C.3    99  PHE99       0.1771
    135  C          5.4280  -23.0410   23.1530 C.2    99  PHE99       0.2619
    136  O          4.2750  -23.4400   22.9570 O.2    99  PHE99      -0.2715
    137  CB         5.1390  -20.7360   22.1650 C.3    99  PHE99       0.0574
    138  CG         4.8660  -20.0410   23.4860 C.ar   99  PHE99      -0.0200
    139  CD1        5.9130  -19.5580   24.2660 C.ar   99  PHE99      -0.0042
    140  CD2        3.5500  -19.8180   23.9060 C.ar   99  PHE99      -0.0042
    141  CE1        5.6630  -18.8970   25.4740 C.ar   99  PHE99      -0.0003
    142  CE2        3.2810  -19.1620   25.1080 C.ar   99  PHE99      -0.0003
    143  CZ         4.3380  -18.6970   25.8920 C.ar   99  PHE99      -0.0000
    144  N          6.2100  -23.5420   24.1130 N.am  100  ASN100     -0.1972
    145  CA         5.6880  -24.3570   25.2140 C.3   100  ASN100      0.1688
    146  C          5.0380  -25.6530   24.7170 C.2   100  ASN100      0.2292
    147  O          4.0230  -26.1070   25.2530 O.2   100  ASN100     -0.2864
    148  CB         4.7110  -23.5420   26.0730 C.3   100  ASN100      0.1181
    149  CG         5.4050  -22.8040   27.2240 C.2   100  ASN100      0.2629
    150  OD1        6.1870  -23.3960   27.9570 O.2   100  ASN100     -0.2716
    151  ND2        5.1200  -21.5030   27.3750 N.am  100  ASN100     -0.0877
    152  N          8.8870  -16.7630   29.4860 N.3   126  LEU126     -0.1245
    153  CA        10.0490  -16.5460   30.3420 C.3   126  LEU126      0.1561
    154  C          9.6330  -16.4580   31.8090 C.2   126  LEU126      0.2260
    155  O          9.0870  -17.4220   32.3510 O.2   126  LEU126     -0.2867
    156  CB        10.8170  -15.2930   29.9010 C.3   126  LEU126      0.0270
    157  CG        11.2970  -15.3700   28.4420 C.3   126  LEU126      0.0019
    158  CD1       12.1240  -14.1530   28.0960 C.3   126  LEU126      0.0001
    159  CD2       12.0910  -16.6580   28.1890 C.3   126  LEU126      0.0001
@<TRIPOS>BOND
     1   132   131    1
     2    86    84   ar
     3    85    84   ar
     4   131   130   ar
     5   131   129   ar
     6   130   128   ar
     7    84    83    1
     8   129   127   ar
     9   128   126   ar
    10    83    82    1
    11    82    79    1
    12   127   126   ar
    13   126   125    1
    14   112   111    2
    15    81    80    2
    16   121   122    1
    17   111   110    1
    18    79    80    1
    19    79    78    1
    20    80    87   am
    21   125   122    1
    22   110   109    1
    23   110   113    1
    24    73    72    2
    25   122   123    1
    26    77    75   ar
    27    78    72   am
    28    72    71    1
    29   116   118   ar
    30   116   114   ar
    31    76    75   ar
    32    87    88    1
    33    75    74    1
    34   113   114    1
    35   118   119   ar
    36    88    89    1
    37   114   115   ar
    38   123   133   am
    39   123   124    2
    40    71    74    1
    41    71    70    1
    42   133   134    1
    43   119   120    1
    44   119   117   ar
    45    89    90    2
    46   115   117   ar
    47    70    60   am
    48    61    60    2
    49   137   134    1
    50   137   138    1
    51   134   135    1
    52    60    59    1
    53   104   103    2
    54   136   135    2
    55   135   144   am
    56    57    55    1
    57   138   140   ar
    58   138   139   ar
    59   107   106   ar
    60   103   102    1
    61   140   142   ar
    62   106   108   ar
    63   106   105    1
    64   144   145    1
    65    59    58    1
    66    59    62    1
    67   139   141   ar
    68   105   102    1
    69    58    53   am
    70   146   145    1
    71   146   147    2
    72    55    56    1
    73    55    52    1
    74   102   101    1
    75    62    63    1
    76    65    63   ar
    77    65    67   ar
    78   142   143   ar
    79    63    64   ar
    80   145   148    1
    81    67    68   ar
    82    53    54    2
    83    53    52    1
    84    64    66   ar
    85   141   143   ar
    86   101    99   am
    87    68    66   ar
    88    68    69    1
    89    52    51    1
    90   148   149    1
    91    99    98    1
    92    99   100    2
    93    51    41   am
    94   149   151   am
    95   149   150    2
    96    98    97    1
    97    42    41    2
    98   158   157    1
    99    41    40    1
   100   159   157    1
   101   157   156    1
   102    97    93   am
   103    46    48   ar
   104    46    44   ar
   105    15    14    1
   106    48    49   ar
   107    14    13    1
   108    94    93    2
   109   152   153    1
   110    40    43    1
   111    40    39    1
   112    93    92    1
   113    43    44    1
   114    44    45   ar
   115   156   153    1
   116    49    50    1
   117    49    47   ar
   118   153   154    1
   119    92    91    1
   120    92    95    1
   121    13    12    1
   122    45    47   ar
   123    96    95    1
   124    12     9    1
   125   154   155    2
   126    21    20    1
   127    22    20    1
   128    38    36   am
   129    30    28   am
   130    37    36    2
   131    20    17    1
   132    36    35    1
   133     9     8    1
   134     9    10    1
   135     8     3   am
   136    16    10   am
   137    16    17    1
   138    28    27    1
   139    28    29    2
   140    10    11    2
   141    27    24    1
   142    17    18    1
   143     3     2    1
   144     3     4    2
   145    35    32    1
   146     2     1    1
   147     2     5    1
   148    18    19    2
   149    31    32    1
   150    31    25   am
   151    24    23    1
   152    24    25    1
   153    32    33    1
   154     6     5    1
   155    25    26    2
   156     5     7    1
   157    33    34    2
