@<TRIPOS>MOLECULE
tmp/5veoA09.pdb
 185 177 0 0 0
SMALL
GASTEIGER

@<TRIPOS>ATOM
      1  N        -19.6060   27.4860   -8.8170 N.3    10  ASP10      -0.1239
      2  CA       -19.9340   26.3470   -9.6570 C.3    10  ASP10       0.1674
      3  C        -21.0070   26.7260  -10.6890 C.2    10  ASP10       0.2266
      4  O        -22.0270   27.3320  -10.3470 O.2    10  ASP10      -0.2867
      5  CB       -20.4120   25.1930   -8.7750 C.3    10  ASP10       0.1410
      6  CG       -20.3800   23.8580   -9.5010 C.2    10  ASP10       0.3668
      7  OD1      -20.9730   23.8010  -10.6100 O.co2  10  ASP10      -0.2456
      8  OD2      -19.7370   22.8990   -8.9990 O.co2  10  ASP10      -0.2456
      9  N        -18.5130   18.5310  -16.3790 N.3    45  LYS45      -0.1231
     10  CA       -19.0430   18.3760  -15.0250 C.3    45  LYS45       0.1693
     11  C        -18.0040   18.8170  -13.9940 C.2    45  LYS45       0.2592
     12  O        -16.8290   19.0500  -14.3080 O.2    45  LYS45      -0.2718
     13  CB       -19.4740   16.9170  -14.7640 C.3    45  LYS45       0.0285
     14  CG       -20.5120   16.3690  -15.7450 C.3    45  LYS45       0.0035
     15  CD       -21.8560   16.4340  -15.1970 C.3    45  LYS45       0.0206
     16  CE       -22.9270   15.7040  -15.9590 C.3    45  LYS45       0.1093
     17  NZ       -24.2260   16.3460  -15.5170 N.3    45  LYS45      -0.1314
     18  N        -18.4230   18.9000  -12.7290 N.am   46  ALA46      -0.1966
     19  CA       -17.5840   19.4740  -11.6740 C.3    46  ALA46       0.1728
     20  C        -16.2820   18.7120  -11.4500 C.2    46  ALA46       0.2616
     21  O        -15.2120   19.3240  -11.3490 O.2    46  ALA46      -0.2715
     22  CB       -18.3690   19.5410  -10.3660 C.3    46  ALA46       0.0334
     23  N        -16.3450   17.3980  -11.2720 N.am   47  TYR47      -0.1974
     24  CA       -15.1450   16.7640  -10.7450 C.3    47  TYR47       0.1639
     25  C        -14.0550   16.6980  -11.8150 C.2    47  TYR47       0.2290
     26  O        -12.8960   17.0220  -11.5170 O.2    47  TYR47      -0.2864
     27  CB       -15.4920   15.4020  -10.1010 C.3    47  TYR47       0.0560
     28  CG       -15.7350   15.6720   -8.6350 C.ar   47  TYR47      -0.0198
     29  CD1      -16.7370   16.5400   -8.2290 C.ar   47  TYR47      -0.0009
     30  CD2      -14.8750   15.1810   -7.6700 C.ar   47  TYR47      -0.0009
     31  CE1      -16.9000   16.8780   -6.8870 C.ar   47  TYR47       0.0417
     32  CE2      -15.0390   15.4940   -6.3390 C.ar   47  TYR47       0.0417
     33  CZ       -16.0550   16.3390   -5.9490 C.ar   47  TYR47       0.1957
     34  OH       -16.1690   16.6640   -4.6160 O.3    47  TYR47      -0.2866
     35  N        -18.3360   12.5550  -12.6060 N.3    67  ASN67      -0.1240
     36  CA       -18.7830   12.5900  -11.2190 C.3    67  ASN67       0.1653
     37  C        -19.1970   11.2170  -10.7280 C.2    67  ASN67       0.2266
     38  O        -19.2670   11.0060   -9.5200 O.2    67  ASN67      -0.2867
     39  CB       -19.9810   13.5110  -11.0360 C.3    67  ASN67       0.1155
     40  CG       -19.6730   14.9650  -11.3330 C.2    67  ASN67       0.2627
     41  OD1      -18.5160   15.4150  -11.3630 O.2    67  ASN67      -0.2716
     42  ND2      -20.7320   15.7190  -11.5110 N.am   67  ASN67      -0.0877
     43  N        -20.4210   11.0050   -6.8010 N.3    80  LEU80      -0.1245
     44  CA       -20.5760   12.2830   -6.1410 C.3    80  LEU80       0.1561
     45  C        -21.8870   12.3410   -5.3690 C.2    80  LEU80       0.2260
     46  O        -21.9230   12.8110   -4.2260 O.2    80  LEU80      -0.2867
     47  CB       -20.5040   13.3760   -7.1990 C.3    80  LEU80       0.0270
     48  CG       -20.6130   14.7950   -6.7020 C.3    80  LEU80       0.0019
     49  CD1      -19.5060   15.0530   -5.6940 C.3    80  LEU80       0.0001
     50  CD2      -20.5100   15.7300   -7.8820 C.3    80  LEU80       0.0001
     51  N        -21.6980   10.9900   -2.0340 N.3    83  MET83      -0.1245
     52  CA       -20.5320   11.4710   -1.3000 C.3    83  MET83       0.1570
     53  C        -19.4190   10.4210   -1.2690 C.2    83  MET83       0.2261
     54  O        -18.6010   10.3880   -0.3500 O.2    83  MET83      -0.2867
     55  CB       -20.9350   11.8820    0.1140 C.3    83  MET83       0.0387
     56  CG       -20.1180   12.9970    0.6480 C.3    83  MET83       0.0595
     57  SD       -20.8950   13.9790    1.9330 S.3    83  MET83      -0.1393
     58  CE       -19.4260   14.9780    2.1940 C.3    83  MET83       0.0692
     59  N        -16.4930    9.7190   -2.8180 N.3    85  ILE85      -0.1231
     60  CA       -15.3860   10.2720   -3.5820 C.3    85  ILE85       0.1692
     61  C        -14.0510   10.1380   -2.8670 C.2    85  ILE85       0.2592
     62  O        -13.0590   10.7000   -3.3300 O.2    85  ILE85      -0.2718
     63  CB       -15.6330   11.7550   -3.9170 C.3    85  ILE85       0.0266
     64  CG1      -15.5720   12.6020   -2.6190 C.3    85  ILE85       0.0019
     65  CG2      -16.9300   11.8720   -4.6550 C.3    85  ILE85       0.0020
     66  CD1      -14.9760   13.9690   -2.7720 C.3    85  ILE85       0.0001
     67  N        -14.0070    9.4580   -1.7240 N.am   86  TYR86      -0.1976
     68  CA       -12.8460    9.5460   -0.8440 C.3    86  TYR86       0.1639
     69  C        -11.8740    8.3930   -1.0230 C.2    86  TYR86       0.2290
     70  O        -10.8830    8.3250   -0.2950 O.2    86  TYR86      -0.2864
     71  CB       -13.3060    9.6660    0.6240 C.3    86  TYR86       0.0560
     72  CG       -13.9940   10.9830    0.8230 C.ar   86  TYR86      -0.0198
     73  CD1      -13.2600   12.1490    1.0090 C.ar   86  TYR86      -0.0009
     74  CD2      -15.3720   11.0880    0.7250 C.ar   86  TYR86      -0.0009
     75  CE1      -13.8900   13.3820    1.1220 C.ar   86  TYR86       0.0417
     76  CE2      -16.0070   12.3140    0.8440 C.ar   86  TYR86       0.0417
     77  CZ       -15.2630   13.4520    1.0380 C.ar   86  TYR86       0.1957
     78  OH       -15.9120   14.6590    1.1300 O.3    86  TYR86      -0.2866
     79  N        -13.5510   20.8380   -4.6040 N.3   114  PRO114     -0.2102
     80  CA       -13.6280   19.3990   -4.9100 C.3   114  PRO114      0.1504
     81  C        -12.2960   18.6630   -4.7910 C.2   114  PRO114      0.2576
     82  O        -11.2860   19.0460   -5.3840 O.2   114  PRO114     -0.2718
     83  CB       -14.1490   19.3960   -6.3510 C.3   114  PRO114      0.0282
     84  CG       -15.0320   20.5780   -6.3820 C.3   114  PRO114      0.0208
     85  CD       -14.3140   21.6310   -5.5820 C.3   114  PRO114      0.0893
     86  N        -12.3120   17.5680   -4.0240 N.am  115  GLY115     -0.1957
     87  CA       -11.1340   16.7550   -3.8120 C.3   115  GLY115      0.1869
     88  C        -10.1680   17.2530   -2.7580 C.2   115  GLY115      0.2309
     89  O         -9.2410   16.5150   -2.3940 O.2   115  GLY115     -0.2863
     90  N        -10.5460   17.6680    0.3730 N.3   117  ASP117     -0.1239
     91  CA       -10.6620   16.9330    1.6260 C.3   117  ASP117      0.1674
     92  C        -10.4440   15.4370    1.4240 C.2   117  ASP117      0.2266
     93  O        -10.8480   14.6240    2.2710 O.2   117  ASP117     -0.2867
     94  CB       -12.0070   17.2330    2.3100 C.3   117  ASP117      0.1410
     95  CG       -13.2190   16.8480    1.4790 C.2   117  ASP117      0.3668
     96  OD1      -13.1530   16.9220    0.2400 O.co2 117  ASP117     -0.2456
     97  OD2      -14.2650   16.5020    2.0830 O.co2 117  ASP117     -0.2456
     98  N        -15.8350   18.5550    3.4560 N.3   131  TYR131     -0.1241
     99  CA       -16.8780   19.1150    2.6040 C.3   131  TYR131      0.1605
    100  C        -18.2170   19.1320    3.3340 C.2   131  TYR131      0.2264
    101  O        -18.6690   18.1180    3.8890 O.2   131  TYR131     -0.2867
    102  CB       -17.0390   18.3510    1.2880 C.3   131  TYR131      0.0534
    103  CG       -18.0760   19.0470    0.4300 C.ar  131  TYR131     -0.0201
    104  CD1      -19.3730   18.5790    0.3440 C.ar  131  TYR131     -0.0009
    105  CD2      -17.7690   20.2430   -0.2090 C.ar  131  TYR131     -0.0009
    106  CE1      -20.3300   19.2360   -0.4130 C.ar  131  TYR131      0.0417
    107  CE2      -18.7210   20.9180   -0.9670 C.ar  131  TYR131      0.0417
    108  CZ       -20.0170   20.4210   -1.0370 C.ar  131  TYR131      0.1957
    109  OH       -20.9610   21.0880   -1.7960 O.3   131  TYR131     -0.2866
    110  N        -21.8600   21.2590    2.3760 N.3   133  GLU133     -0.1245
    111  CA       -22.5570   22.2530    1.5690 C.3   133  GLU133      0.1567
    112  C        -23.3060   23.2760    2.4140 C.2   133  GLU133      0.2260
    113  O        -23.6130   24.3720    1.9180 O.2   133  GLU133     -0.2867
    114  CB       -23.5100   21.5190    0.6210 C.3   133  GLU133      0.0388
    115  CG       -24.1900   22.4030   -0.3670 C.3   133  GLU133      0.1160
    116  CD       -24.8160   21.6090   -1.4880 C.2   133  GLU133      0.3649
    117  OE1      -25.0800   20.4070   -1.2730 O.co2 133  GLU133     -0.2457
    118  OE2      -25.0160   22.1670   -2.5910 O.co2 133  GLU133     -0.2457
    119  N        -14.7210   27.4870   -2.9240 N.3   160  TYR160     -0.1241
    120  CA       -15.7480   26.8940   -3.7660 C.3   160  TYR160      0.1605
    121  C        -17.1250   27.2540   -3.2220 C.2   160  TYR160      0.2264
    122  O        -17.3530   27.2460   -1.9980 O.2   160  TYR160     -0.2867
    123  CB       -15.5520   25.3790   -3.8190 C.3   160  TYR160      0.0534
    124  CG       -16.6370   24.6050   -4.5150 C.ar  160  TYR160     -0.0201
    125  CD1      -16.7140   24.5640   -5.9010 C.ar  160  TYR160     -0.0009
    126  CD2      -17.5920   23.9330   -3.7890 C.ar  160  TYR160     -0.0009
    127  CE1      -17.7090   23.8490   -6.5400 C.ar  160  TYR160      0.0417
    128  CE2      -18.5900   23.2240   -4.4100 C.ar  160  TYR160      0.0417
    129  CZ       -18.6550   23.1930   -5.7870 C.ar  160  TYR160      0.1957
    130  OH       -19.6600   22.4850   -6.3780 O.3   160  TYR160     -0.2866
    131  N        -21.4840   26.5500   -4.4100 N.3   162  GLU162     -0.1245
    132  CA       -22.3110   25.6570   -5.2260 C.3   162  GLU162      0.1567
    133  C        -23.2780   26.3820   -6.1590 C.2   162  GLU162      0.2260
    134  O        -23.9200   25.7230   -7.0030 O.2   162  GLU162     -0.2867
    135  CB       -23.1030   24.7170   -4.3210 C.3   162  GLU162      0.0388
    136  CG       -22.2400   23.7550   -3.5110 C.3   162  GLU162      0.1160
    137  CD       -21.6020   24.3500   -2.2560 C.2   162  GLU162      0.3649
    138  OE1      -20.7490   23.6450   -1.6540 O.co2 162  GLU162     -0.2457
    139  OE2      -21.9840   25.4790   -1.8460 O.co2 162  GLU162     -0.2457
    140  N        -24.7540   26.9410  -10.0420 N.3   165  ASP165     -0.1225
    141  CA       -25.0540   25.5990  -10.5510 C.3   165  ASP165      0.1805
    142  C        -26.3700   25.0540   -9.9980 C.2   165  ASP165      0.2597
    143  O        -27.2160   24.5460  -10.7490 O.2   165  ASP165     -0.2718
    144  CB       -23.9030   24.6540  -10.2130 C.3   165  ASP165      0.1424
    145  CG       -24.1240   23.2540  -10.7350 C.2   165  ASP165      0.3668
    146  OD1      -23.9150   23.0290  -11.9470 O.co2 165  ASP165     -0.2456
    147  OD2      -24.4790   22.3530   -9.9310 O.co2 165  ASP165     -0.2456
    148  N        -26.5440   25.1120   -8.6750 N.am  166  ASP166     -0.1974
    149  CA       -27.7010   24.4770   -8.0420 C.3   166  ASP166      0.1709
    150  C        -29.0060   25.0360   -8.5960 C.2   166  ASP166      0.2293
    151  O        -29.8990   24.2880   -9.0100 O.2   166  ASP166     -0.2864
    152  CB       -27.6520   24.6910   -6.5290 C.3   166  ASP166      0.1436
    153  CG       -26.8460   23.6390   -5.8060 C.2   166  ASP166      0.3671
    154  OD1      -26.4580   22.6360   -6.4370 O.co2 166  ASP166     -0.2456
    155  OD2      -26.6160   23.8160   -4.5960 O.co2 166  ASP166     -0.2456
    156  N        -29.6590   24.2770  -12.3680 N.3   169  HIS169     -0.1241
    157  CA       -30.2880   22.9770  -12.5890 C.3   169  HIS169      0.1621
    158  C        -31.7910   23.0450  -12.3620 C.2   169  HIS169      0.2264
    159  O        -32.5710   22.4650  -13.1220 O.2   169  HIS169     -0.2867
    160  CB       -29.7000   21.9240  -11.6610 C.3   169  HIS169      0.0745
    161  CG       -28.3460   21.4190  -12.0510 C.ar  169  HIS169      0.0817
    162  ND1      -28.1110   20.7250  -13.2170 N.ar  169  HIS169     -0.2268
    163  CD2      -27.1560   21.4810  -11.4040 C.ar  169  HIS169      0.1154
    164  CE1      -26.8360   20.3860  -13.2760 C.ar  169  HIS169      0.1986
    165  NE2      -26.2360   20.8190  -12.1820 N.ar  169  HIS169     -0.2212
    166  N        -17.8590   25.0490  -15.5180 N.3   213  HIS213     -0.1241
    167  CA       -18.6590   24.8910  -16.7380 C.3   213  HIS213      0.1621
    168  C        -19.8310   25.8580  -16.6820 C.2   213  HIS213      0.2264
    169  O        -20.0490   26.5440  -15.6630 O.2   213  HIS213     -0.2867
    170  CB       -19.2090   23.4590  -16.8630 C.3   213  HIS213      0.0745
    171  CG       -20.0030   23.0740  -15.6620 C.ar  213  HIS213      0.0817
    172  ND1      -21.2580   23.5900  -15.4000 N.ar  213  HIS213     -0.2268
    173  CD2      -19.6500   22.3640  -14.5630 C.ar  213  HIS213      0.1154
    174  CE1      -21.6430   23.2000  -14.1940 C.ar  213  HIS213      0.1986
    175  NE2      -20.6900   22.4450  -13.6740 N.ar  213  HIS213     -0.2212
    176  N        -25.5720   20.3020  -17.7300 N.3   313  HIS313     -0.1241
    177  CA       -24.2630   20.4760  -18.3320 C.3   313  HIS313      0.1621
    178  C        -23.6170   19.0970  -18.3850 C.2   313  HIS313      0.2264
    179  O        -24.1730   18.1140  -17.8910 O.2   313  HIS313     -0.2867
    180  CB       -23.4380   21.4850  -17.5200 C.3   313  HIS313      0.0745
    181  CG       -23.3280   21.1100  -16.0780 C.ar  313  HIS313      0.0817
    182  ND1      -22.3230   20.3000  -15.6020 N.ar  313  HIS313     -0.2268
    183  CD2      -24.1600   21.3330  -15.0320 C.ar  313  HIS313      0.1154
    184  CE1      -22.5060   20.0920  -14.3060 C.ar  313  HIS313      0.1986
    185  NE2      -23.6250   20.6920  -13.9430 N.ar  313  HIS313     -0.2212
@<TRIPOS>BOND
     1   178   177    1
     2   178   179    2
     3   177   176    1
     4   177   180    1
     5   180   181    1
     6   170   167    1
     7   170   171    1
     8   167   168    1
     9   167   166    1
    10   168   169    2
    11     9    10    1
    12   181   182   ar
    13   181   183   ar
    14    16    17    1
    15    16    15    1
    16    14    15    1
    17    14    13    1
    18   171   172   ar
    19   171   173   ar
    20   182   184   ar
    21   172   174   ar
    22   183   185   ar
    23    10    13    1
    24    10    11    1
    25   173   175   ar
    26    12    11    2
    27   184   185   ar
    28   174   175   ar
    29    11    18   am
    30   164   162   ar
    31   164   165   ar
    32   162   161   ar
    33   159   158    2
    34    18    19    1
    35    35    36    1
    36   157   156    1
    37   157   158    1
    38   157   160    1
    39   165   163   ar
    40   161   160    1
    41   161   163   ar
    42   146   145   ar
    43    25    26    2
    44    25    24    1
    45    19    20    1
    46    19    22    1
    47    42    40   am
    48    20    21    2
    49    20    23   am
    50    41    40    2
    51    40    39    1
    52    23    24    1
    53    36    39    1
    54    36    37    1
    55   143   142    2
    56    24    27    1
    57   145   144    1
    58   145   147   ar
    59    37    38    2
    60     3     4    2
    61     3     2    1
    62     7     6   ar
    63   141   144    1
    64   141   140    1
    65   141   142    1
    66    27    28    1
    67   142   148   am
    68     2     1    1
    69     2     5    1
    70     6     8   ar
    71     6     5    1
    72   151   150    2
    73   148   149    1
    74    28    29   ar
    75    28    30   ar
    76   150   149    1
    77    29    31   ar
    78   149   152    1
    79    50    48    1
    80    30    32   ar
    81    47    48    1
    82    47    44    1
    83   134   133    2
    84    31    33   ar
    85    43    44    1
    86    48    49    1
    87   127   125   ar
    88   127   129   ar
    89   152   153    1
    90   154   153   ar
    91    84    83    1
    92    84    85    1
    93   130   129    1
    94    83    80    1
    95    32    33   ar
    96   133   132    1
    97    44    45    1
    98    33    34    1
    99   125   124   ar
   100   153   155   ar
   101   129   128   ar
   102    85    79    1
   103    82    81    2
   104    45    46    2
   105   132   131    1
   106   132   135    1
   107    80    81    1
   108    80    79    1
   109    81    86   am
   110    65    63    1
   111   124   123    1
   112   124   126   ar
   113   128   126   ar
   114   135   136    1
   115    86    87    1
   116    63    60    1
   117    63    64    1
   118   123   120    1
   119    87    88    1
   120   120   121    1
   121   120   119    1
   122    60    61    1
   123    60    59    1
   124   136   137    1
   125    62    61    2
   126   121   122    2
   127    61    67   am
   128    66    64    1
   129    88    89    2
   130   118   116   ar
   131   137   139   ar
   132   137   138   ar
   133    51    52    1
   134   109   108    1
   135    67    68    1
   136   116   117   ar
   137   116   115    1
   138    52    53    1
   139    52    55    1
   140    53    54    2
   141   108   107   ar
   142   108   106   ar
   143    69    68    1
   144    69    70    2
   145   107   105   ar
   146    68    71    1
   147   106   104   ar
   148   115   114    1
   149   105   103   ar
   150    55    56    1
   151    96    95   ar
   152   104   103   ar
   153    90    91    1
   154   103   102    1
   155   114   111    1
   156    71    72    1
   157    56    57    1
   158    74    72   ar
   159    74    76   ar
   160    72    73   ar
   161    76    77   ar
   162    73    75   ar
   163    77    75   ar
   164    77    78    1
   165   102    99    1
   166    92    91    1
   167    92    93    2
   168    95    97   ar
   169    95    94    1
   170   111   110    1
   171   111   112    1
   172    91    94    1
   173   113   112    2
   174    57    58    1
   175    99   100    1
   176    99    98    1
   177   100   101    2
