@<TRIPOS>MOLECULE
tmp/5verA01.pdb
 123 120 0 0 0
SMALL
GASTEIGER

@<TRIPOS>ATOM
      1  N         21.2190   20.6230   31.3790 N.3    13  TRP13      -0.1241
      2  CA        20.3180   21.7140   31.6780 C.3    13  TRP13       0.1605
      3  C         21.0100   23.0740   31.8600 C.2    13  TRP13       0.2264
      4  O         20.5260   24.0830   31.3320 O.2    13  TRP13      -0.2867
      5  CB        19.4340   21.3130   32.8790 C.3    13  TRP13       0.0550
      6  CG        18.6700   20.0420   32.5820 C.ar   13  TRP13       0.0003
      7  CD1       18.8210   18.8220   33.1940 C.ar   13  TRP13       0.0946
      8  CD2       17.6850   19.8530   31.5470 C.ar   13  TRP13       0.0152
      9  NE1       17.9710   17.8980   32.6180 N.ar   13  TRP13      -0.2442
     10  CE2       17.2670   18.5020   31.6080 C.ar   13  TRP13       0.0810
     11  CE3       17.1090   20.7000   30.5760 C.ar   13  TRP13       0.0012
     12  CZ2       16.3000   17.9690   30.7240 C.ar   13  TRP13       0.0191
     13  CZ3       16.1220   20.1740   29.6990 C.ar   13  TRP13       0.0001
     14  CH2       15.7360   18.8220   29.7800 C.ar   13  TRP13       0.0015
     15  N         12.2280   22.3550   27.4550 N.3    30  GLN30      -0.1231
     16  CA        12.1360   22.0410   28.8860 C.3    30  GLN30       0.1698
     17  C         10.7400   21.5190   29.2450 C.2    30  GLN30       0.2592
     18  O          9.7700   21.7650   28.5150 O.2    30  GLN30      -0.2718
     19  CB        12.5160   23.2770   29.7370 C.3    30  GLN30       0.0381
     20  CG        14.0180   23.5580   29.8690 C.3    30  GLN30       0.0905
     21  CD        14.7710   23.9440   28.5680 C.2    30  GLN30       0.2608
     22  OE1       14.2310   24.5460   27.6300 O.2    30  GLN30      -0.2717
     23  NE2       16.0490   23.6030   28.5350 N.am   30  GLN30      -0.0878
     24  N         10.6590   20.7670   30.3430 N.am   31  GLY31      -0.1957
     25  CA         9.3970   20.2540   30.8630 C.3    31  GLY31       0.1869
     26  C          8.7760   21.2970   31.7700 C.2    31  GLY31       0.2309
     27  O          8.4360   21.0040   32.9180 O.2    31  GLY31      -0.2863
     28  N         13.8370   14.6810   42.4930 N.3    95  TYR95      -0.1241
     29  CA        15.2950   14.7490   42.4870 C.3    95  TYR95       0.1605
     30  C         15.7620   14.3090   43.8600 C.2    95  TYR95       0.2264
     31  O         16.5430   13.3310   43.9860 O.2    95  TYR95      -0.2867
     32  CB        15.8090   16.1610   42.2040 C.3    95  TYR95       0.0534
     33  CG        16.4510   16.3960   40.8330 C.ar   95  TYR95      -0.0201
     34  CD1       15.6600   16.7430   39.7350 C.ar   95  TYR95      -0.0009
     35  CD2       17.8640   16.3330   40.6420 C.ar   95  TYR95      -0.0009
     36  CE1       16.2190   17.0090   38.4900 C.ar   95  TYR95       0.0417
     37  CE2       18.4370   16.5970   39.3930 C.ar   95  TYR95       0.0417
     38  CZ        17.6020   16.9450   38.3030 C.ar   95  TYR95       0.1957
     39  OH        18.0770   17.2180   36.9970 O.3    95  TYR95      -0.2866
     40  N         16.6410    9.4230   32.3890 N.3   119  TYR119     -0.1241
     41  CA        16.6640   10.7750   32.9740 C.3   119  TYR119      0.1605
     42  C         18.0750   11.0960   33.4500 C.2   119  TYR119      0.2264
     43  O         18.6320   10.3840   34.2640 O.2   119  TYR119     -0.2867
     44  CB        15.6700   10.9840   34.0980 C.3   119  TYR119      0.0534
     45  CG        15.5800   12.4590   34.4470 C.ar  119  TYR119     -0.0201
     46  CD1       15.0050   13.3700   33.5480 C.ar  119  TYR119     -0.0009
     47  CD2       16.0940   12.9570   35.6620 C.ar  119  TYR119     -0.0009
     48  CE1       14.9580   14.7290   33.8470 C.ar  119  TYR119      0.0417
     49  CE2       16.0380   14.3130   35.9710 C.ar  119  TYR119      0.0417
     50  CZ        15.4780   15.1930   35.0630 C.ar  119  TYR119      0.1957
     51  OH        15.4080   16.5400   35.3350 O.3   119  TYR119     -0.2866
     52  N         10.9420    8.9930   30.5370 N.3   178  ASN178     -0.1240
     53  CA        11.4480   10.2520   30.0550 C.3   178  ASN178      0.1653
     54  C         12.8330    9.8640   29.5270 C.2   178  ASN178      0.2266
     55  O         13.6770    9.4190   30.3290 O.2   178  ASN178     -0.2867
     56  CB        11.4520   11.2790   31.2100 C.3   178  ASN178      0.1155
     57  CG        11.9500   12.6490   30.7950 C.2   178  ASN178      0.2627
     58  OD1       12.1590   12.9290   29.6090 O.2   178  ASN178     -0.2716
     59  ND2       12.1710   13.5140   31.7820 N.am  178  ASN178     -0.0877
     60  N          5.3350   10.3040   36.4460 N.3   209  TYR209     -0.1241
     61  CA         4.3460   10.4400   35.4030 C.3   209  TYR209      0.1605
     62  C          3.2090    9.4080   35.4720 C.2   209  TYR209      0.2264
     63  O          2.4120    9.3130   34.5280 O.2   209  TYR209     -0.2867
     64  CB         5.0470   10.4290   34.0480 C.3   209  TYR209      0.0534
     65  CG         6.0630   11.5510   33.9000 C.ar  209  TYR209     -0.0201
     66  CD1        5.6680   12.8830   33.9400 C.ar  209  TYR209     -0.0009
     67  CD2        7.4100   11.2810   33.7010 C.ar  209  TYR209     -0.0009
     68  CE1        6.5800   13.9040   33.7770 C.ar  209  TYR209      0.0417
     69  CE2        8.3360   12.3060   33.5480 C.ar  209  TYR209      0.0417
     70  CZ         7.9010   13.6080   33.5950 C.ar  209  TYR209      0.1957
     71  OH         8.7770   14.6380   33.4650 O.3   209  TYR209     -0.2866
     72  N          4.5390   17.0170   38.8250 N.3   240  LYS240     -0.1245
     73  CA         3.9670   16.1940   37.7670 C.3   240  LYS240      0.1561
     74  C          2.5020   15.9270   38.1160 C.2   240  LYS240      0.2260
     75  O          1.6140   15.9910   37.2600 O.2   240  LYS240     -0.2867
     76  CB         4.9840   15.0540   37.5730 C.3   240  LYS240      0.0271
     77  CG         6.2360   15.4680   36.7450 C.3   240  LYS240      0.0035
     78  CD         7.4260   16.2860   37.3500 C.3   240  LYS240      0.0206
     79  CE         8.8840   15.8230   37.0250 C.3   240  LYS240      0.1093
     80  NZ         9.8370   16.6140   36.1720 N.3   240  LYS240     -0.1314
     81  N          8.5410   21.8190   43.8880 N.3   248  LYS248     -0.1245
     82  CA         9.6400   20.9210   44.2260 C.3   248  LYS248      0.1561
     83  C          9.3530   20.1500   45.5110 C.2   248  LYS248      0.2260
     84  O          9.9940   20.3660   46.5570 O.2   248  LYS248     -0.2867
     85  CB        10.9530   21.6970   44.3320 C.3   248  LYS248      0.0271
     86  CG        11.5380   22.1250   43.0030 C.3   248  LYS248      0.0035
     87  CD        11.9210   20.9590   42.1210 C.3   248  LYS248      0.0206
     88  CE        13.0810   20.1790   42.6680 C.3   248  LYS248      0.1093
     89  NZ        13.7480   19.6700   41.4520 N.3   248  LYS248     -0.1314
     90  N          4.5660   13.5670   28.8650 N.3   331  TYR331     -0.1227
     91  CA         4.2660   14.6980   28.0060 C.3   331  TYR331      0.1736
     92  C          5.4310   15.1200   27.1430 C.2   331  TYR331      0.2595
     93  O          5.5460   16.2760   26.7420 O.2   331  TYR331     -0.2718
     94  CB         3.6330   15.8560   28.7700 C.3   331  TYR331      0.0548
     95  CG         4.3140   16.2880   30.0410 C.ar  331  TYR331     -0.0200
     96  CD1        5.6980   16.4900   30.0990 C.ar  331  TYR331     -0.0009
     97  CD2        3.5660   16.5340   31.1870 C.ar  331  TYR331     -0.0009
     98  CE1        6.3060   16.9190   31.2790 C.ar  331  TYR331      0.0417
     99  CE2        4.1600   16.9710   32.3610 C.ar  331  TYR331      0.0417
    100  CZ         5.5210   17.1620   32.3980 C.ar  331  TYR331      0.1957
    101  OH         6.1180   17.5850   33.5560 O.3   331  TYR331     -0.2866
    102  N          6.2720   14.1510   26.8210 N.am  332  PHE332     -0.1976
    103  CA         7.2820   14.3380   25.7820 C.3   332  PHE332      0.1639
    104  C          7.0520   13.4440   24.5360 C.2   332  PHE332      0.2290
    105  O          6.5960   12.2810   24.6240 O.2   332  PHE332     -0.2864
    106  CB         8.7150   14.1890   26.3300 C.3   332  PHE332      0.0560
    107  CG         8.9910   14.9790   27.6030 C.ar  332  PHE332     -0.0200
    108  CD1        9.1380   16.3640   27.5800 C.ar  332  PHE332     -0.0042
    109  CD2        9.1420   14.3120   28.8440 C.ar  332  PHE332     -0.0042
    110  CE1        9.4150   17.0680   28.7490 C.ar  332  PHE332     -0.0003
    111  CE2        9.4240   15.0100   30.0120 C.ar  332  PHE332     -0.0003
    112  CZ         9.5500   16.3900   29.9640 C.ar  332  PHE332     -0.0000
    113  N         13.6080   15.4840   21.2630 N.3   389  ARG389     -0.1245
    114  CA        12.4490   15.3960   22.1640 C.3   389  ARG389      0.1563
    115  C         11.7650   16.7370   22.2550 C.2   389  ARG389      0.2260
    116  O         12.4410   17.7540   22.3470 O.2   389  ARG389     -0.2867
    117  CB        12.8950   14.9540   23.5630 C.3   389  ARG389      0.0307
    118  CG        11.7570   14.6990   24.5300 C.3   389  ARG389      0.0489
    119  CD        12.2380   14.8380   25.9400 C.3   389  ARG389      0.2205
    120  NE        12.2870   16.2100   26.4980 N.pl3 389  ARG389     -0.0865
    121  CZ        12.6450   16.4740   27.7660 C.cat 389  ARG389      0.5346
    122  NH1       12.9870   15.5050   28.6100 N.pl3 389  ARG389      0.1354
    123  NH2       12.6830   17.7290   28.1830 N.pl3 389  ARG389      0.1354
@<TRIPOS>BOND
     1   113   114    1
     2   114   115    1
     3   114   117    1
     4   115   116    2
     5   117   118    1
     6   118   119    1
     7   104   105    2
     8   104   103    1
     9   103   106    1
    10   103   102    1
    11   119   120    1
    12   106   107    1
    13   120   121    2
    14    93    92    2
    15   102    92   am
    16    92    91    1
    17    15    16    1
    18   108   107   ar
    19   108   110   ar
    20   107   109   ar
    21    22    21    2
    22   121   123    1
    23   121   122    1
    24    91    94    1
    25    91    90    1
    26    18    17    2
    27    23    21   am
    28    21    20    1
    29   110   112   ar
    30    94    95    1
    31   109   111   ar
    32    16    17    1
    33    16    19    1
    34    17    24   am
    35    54    53    1
    36    54    55    2
    37    58    57    2
    38    13    14   ar
    39    13    11   ar
    40    19    20    1
    41    14    12   ar
    42   112   111   ar
    43    95    96   ar
    44    95    97   ar
    45    53    52    1
    46    53    56    1
    47    96    98   ar
    48    24    25    1
    49    11     8   ar
    50    12    10   ar
    51    57    56    1
    52    57    59   am
    53    25    26    1
    54    97    99   ar
    55    98   100   ar
    56     4     3    2
    57     1     2    1
    58     8    10   ar
    59     8     6   ar
    60    10     9   ar
    61     2     3    1
    62     2     5    1
    63    26    27    2
    64    99   100   ar
    65    40    41    1
    66   100   101    1
    67     6     5    1
    68     6     7   ar
    69     9     7   ar
    70    41    42    1
    71    41    44    1
    72    42    43    2
    73    71    70    1
    74    69    70   ar
    75    69    67   ar
    76    46    48   ar
    77    46    45   ar
    78    70    68   ar
    79    67    65   ar
    80    68    66   ar
    81    48    50   ar
    82    65    66   ar
    83    65    64    1
    84    64    61    1
    85    44    45    1
    86    45    47   ar
    87    63    62    2
    88    50    51    1
    89    50    49   ar
    90    61    62    1
    91    61    60    1
    92    47    49   ar
    93    80    79    1
    94    77    78    1
    95    77    76    1
    96    39    38    1
    97    79    78    1
    98    75    74    2
    99    76    73    1
   100    73    74    1
   101    73    72    1
   102    38    36   ar
   103    38    37   ar
   104    36    34   ar
   105    37    35   ar
   106    34    33   ar
   107    35    33   ar
   108    33    32    1
   109    89    88    1
   110    87    88    1
   111    87    86    1
   112    32    29    1
   113    29    28    1
   114    29    30    1
   115    86    85    1
   116    30    31    2
   117    81    82    1
   118    82    85    1
   119    82    83    1
   120    83    84    2
