@<TRIPOS>MOLECULE
tmp/5vewB04.pdb
 102 94 0 0 0
SMALL
GASTEIGER

@<TRIPOS>ATOM
      1  N         38.3250   -1.3310   45.4470 N.3    25  VAL25      -0.1245
      2  CA        37.1130   -2.1080   45.7460 C.3    25  VAL25       0.1561
      3  C         37.3170   -2.7750   47.1260 C.2    25  VAL25       0.2260
      4  O         36.4130   -2.7180   47.9620 O.2    25  VAL25      -0.2867
      5  CB        36.7540   -3.1340   44.6250 C.3    25  VAL25       0.0252
      6  CG1       35.6180   -4.0630   45.0520 C.3    25  VAL25       0.0019
      7  CG2       36.4000   -2.4230   43.3200 C.3    25  VAL25       0.0019
      8  N         37.3880    0.1360   49.8510 N.3    28  SER28      -0.1202
      9  CA        36.0310    0.6390   50.0890 C.3    28  SER28       0.2020
     10  C         35.1870   -0.4030   50.8330 C.2    28  SER28       0.2618
     11  O         34.3290   -0.0220   51.6320 O.2    28  SER28      -0.2717
     12  CB        35.3560    1.0300   48.7820 C.3    28  SER28       0.2103
     13  OG        35.3460   -0.0570   47.8740 O.3    28  SER28      -0.2182
     14  N         35.4620   -1.7080   50.6120 N.am   29  ALA29      -0.1979
     15  CA        34.7710   -2.7960   51.3150 C.3    29  ALA29       0.1597
     16  C         35.1780   -2.8370   52.7980 C.2    29  ALA29       0.2287
     17  O         34.3630   -3.2110   53.6390 O.2    29  ALA29      -0.2864
     18  CB        35.0690   -4.1320   50.6530 C.3    29  ALA29       0.0319
     19  N         33.3990    0.2050   54.6400 N.3    32  LEU32      -0.1245
     20  CA        31.9620   -0.0890   54.7740 C.3    32  LEU32       0.1561
     21  C         31.7150   -1.2940   55.7000 C.2    32  LEU32       0.2260
     22  O         30.7380   -1.2900   56.4500 O.2    32  LEU32      -0.2867
     23  CB        31.3130   -0.3610   53.4010 C.3    32  LEU32       0.0270
     24  CG        31.1570    0.8200   52.4340 C.3    32  LEU32       0.0019
     25  CD1       30.7750    0.3390   51.0590 C.3    32  LEU32       0.0001
     26  CD2       30.1310    1.8330   52.9390 C.3    32  LEU32       0.0001
     27  N         33.7930    8.5850   54.9750 N.3    43  TYR43      -0.1241
     28  CA        32.7350    8.7250   53.9550 C.3    43  TYR43       0.1605
     29  C         33.2260    9.5860   52.7810 C.2    43  TYR43       0.2264
     30  O         32.8880    9.2980   51.6330 O.2    43  TYR43      -0.2867
     31  CB        31.4320    9.3130   54.5160 C.3    43  TYR43       0.0534
     32  CG        30.7000    8.4480   55.5200 C.ar   43  TYR43      -0.0201
     33  CD1       30.1900    7.2040   55.1530 C.ar   43  TYR43      -0.0009
     34  CD2       30.3130    8.9600   56.7550 C.ar   43  TYR43      -0.0009
     35  CE1       29.4560    6.4300   56.0490 C.ar   43  TYR43       0.0417
     36  CE2       29.5760    8.1990   57.6590 C.ar   43  TYR43       0.0417
     37  CZ        29.1410    6.9360   57.2990 C.ar   43  TYR43       0.1957
     38  OH        28.3850    6.1960   58.1770 O.3    43  TYR43      -0.2866
     39  N         35.3490    7.3440   50.6230 N.3    46  LEU46      -0.1231
     40  CA        34.5310    6.4080   49.8270 C.3    46  LEU46       0.1693
     41  C         34.0570    7.0400   48.5090 C.2    46  LEU46       0.2592
     42  O         33.9770    6.3380   47.4950 O.2    46  LEU46      -0.2718
     43  CB        33.3130    5.9210   50.6220 C.3    46  LEU46       0.0284
     44  CG        33.5890    4.9740   51.7840 C.3    46  LEU46       0.0019
     45  CD1       32.3870    4.8480   52.6720 C.3    46  LEU46       0.0001
     46  CD2       34.0490    3.6140   51.2930 C.3    46  LEU46       0.0001
     47  N         33.7390    8.3500   48.5230 N.am   47  ASN47      -0.1974
     48  CA        33.3440    9.0640   47.3070 C.3    47  ASN47       0.1688
     49  C         34.5570    9.3020   46.4300 C.2    47  ASN47       0.2292
     50  O         34.4260    9.2910   45.2050 O.2    47  ASN47      -0.2864
     51  CB        32.6520   10.3830   47.6200 C.3    47  ASN47       0.1181
     52  CG        31.2850   10.2850   48.2510 C.2    47  ASN47       0.2629
     53  OD1       30.2760   10.6530   47.6410 O.2    47  ASN47      -0.2716
     54  ND2       31.2160    9.8310   49.4910 N.am   47  ASN47      -0.0877
     55  N         35.3180    5.9380   44.7780 N.3    50  ALA50      -0.1245
     56  CA        34.2930    5.7460   43.7490 C.3    50  ALA50       0.1562
     57  C         34.6550    6.4830   42.4620 C.2    50  ALA50       0.2260
     58  O         34.4750    5.9160   41.3860 O.2    50  ALA50      -0.2867
     59  CB        32.9420    6.2240   44.2570 C.3    50  ALA50       0.0290
     60  N         37.3910    4.4600   40.9310 N.3    53  ILE53      -0.1231
     61  CA        36.8330    3.1710   40.4930 C.3    53  ILE53       0.1692
     62  C         36.1160    3.3600   39.1300 C.2    53  ILE53       0.2591
     63  O         36.3630    2.5710   38.2180 O.2    53  ILE53      -0.2718
     64  CB        35.8800    2.5540   41.5680 C.3    53  ILE53       0.0266
     65  CG1       36.6960    2.0970   42.7940 C.3    53  ILE53       0.0019
     66  CG2       35.0750    1.3650   40.9890 C.3    53  ILE53       0.0020
     67  CD1       35.9030    1.5870   43.9930 C.3    53  ILE53       0.0001
     68  N         35.2540    4.4010   38.9950 N.am   54  LEU54      -0.1980
     69  CA        34.5400    4.6950   37.7420 C.3    54  LEU54       0.1596
     70  C         35.5040    5.0970   36.6160 C.2    54  LEU54       0.2287
     71  O         35.2260    4.7930   35.4520 O.2    54  LEU54      -0.2864
     72  CB        33.4910    5.7990   37.9140 C.3    54  LEU54       0.0297
     73  CG        32.0700    5.3880   38.2810 C.3    54  LEU54       0.0022
     74  CD1       31.9840    4.7870   39.6810 C.3    54  LEU54       0.0001
     75  CD2       31.1510    6.5780   38.1930 C.3    54  LEU54       0.0001
     76  N         24.8630   18.5910   59.6380 N.3   272  GLN272     -0.1245
     77  CA        24.4600   17.6560   58.5710 C.3   272  GLN272      0.1566
     78  C         24.4840   18.2900   57.1500 C.2   272  GLN272      0.2260
     79  O         24.5890   17.5490   56.1700 O.2   272  GLN272     -0.2867
     80  CB        23.0440   17.1290   58.8400 C.3   272  GLN272      0.0367
     81  CG        22.4910   16.2220   57.7560 C.3   272  GLN272      0.0905
     82  CD        23.2490   14.9330   57.6570 C.2   272  GLN272      0.2608
     83  OE1       23.2330   14.1370   58.6210 O.2   272  GLN272     -0.2717
     84  NE2       24.0110   14.7130   56.5930 N.am  272  GLN272     -0.0878
     85  N         28.2760   18.0670   55.0500 N.3   275  PHE275     -0.1241
     86  CA        28.6080   16.9090   54.2220 C.3   275  PHE275      0.1605
     87  C         27.8600   16.9870   52.8690 C.2   275  PHE275      0.2264
     88  O         28.4030   16.5590   51.8460 O.2   275  PHE275     -0.2867
     89  CB        28.2860   15.5930   54.9440 C.3   275  PHE275      0.0534
     90  CG        28.7800   14.3640   54.2100 C.ar  275  PHE275     -0.0203
     91  CD1       30.0630   13.8740   54.4260 C.ar  275  PHE275     -0.0042
     92  CD2       27.9640   13.6980   53.3020 C.ar  275  PHE275     -0.0042
     93  CE1       30.5240   12.7510   53.7330 C.ar  275  PHE275     -0.0003
     94  CE2       28.4340   12.5880   52.5960 C.ar  275  PHE275     -0.0003
     95  CZ        29.7060   12.1170   52.8230 C.ar  275  PHE275     -0.0000
     96  N         29.5130   16.8370   48.8550 N.3   279  VAL279     -0.1245
     97  CA        29.0230   15.9990   47.7460 C.3   279  VAL279      0.1561
     98  C         28.6010   16.9200   46.5640 C.2   279  VAL279      0.2260
     99  O         28.6490   16.4890   45.4090 O.2   279  VAL279     -0.2867
    100  CB        27.8680   15.0150   48.1420 C.3   279  VAL279      0.0252
    101  CG1       28.3300   13.9850   49.1700 C.3   279  VAL279      0.0019
    102  CG2       26.6400   15.7480   48.6460 C.3   279  VAL279      0.0019
@<TRIPOS>BOND
     1    71    70    2
     2    70    69    1
     3    69    72    1
     4    69    68    1
     5    72    73    1
     6    75    73    1
     7    63    62    2
     8    73    74    1
     9    68    62   am
    10    62    61    1
    11    61    60    1
    12    61    64    1
    13    66    64    1
    14    58    57    2
    15    64    65    1
    16    57    56    1
    17    65    67    1
    18     7     5    1
    19    56    59    1
    20    56    55    1
    21     5     6    1
    22     5     2    1
    23    50    49    2
    24    99    98    2
    25     1     2    1
    26     2     3    1
    27    49    48    1
    28    98    97    1
    29     3     4    2
    30    48    51    1
    31    48    47    1
    32    42    41    2
    33    51    52    1
    34    53    52    2
    35    97   100    1
    36    97    96    1
    37    13    12    1
    38   100   102    1
    39   100   101    1
    40    52    54   am
    41    41    47   am
    42    41    40    1
    43    12     9    1
    44    40    43    1
    45    40    39    1
    46     8     9    1
    47     9    10    1
    48    14    10   am
    49    14    15    1
    50    43    44    1
    51    18    15    1
    52    10    11    2
    53    25    24    1
    54    46    44    1
    55    15    16    1
    56    30    29    2
    57    44    45    1
    58    88    87    2
    59    24    26    1
    60    24    23    1
    61    94    95   ar
    62    94    92   ar
    63    29    28    1
    64    16    17    2
    65    95    93   ar
    66    87    86    1
    67    92    90   ar
    68    23    20    1
    69    93    91   ar
    70    28    31    1
    71    28    27    1
    72    90    91   ar
    73    90    89    1
    74    86    89    1
    75    86    85    1
    76    31    32    1
    77    19    20    1
    78    20    21    1
    79    33    32   ar
    80    33    35   ar
    81    32    34   ar
    82    21    22    2
    83    35    37   ar
    84    79    78    2
    85    84    82   am
    86    34    36   ar
    87    78    77    1
    88    37    36   ar
    89    37    38    1
    90    82    81    1
    91    82    83    2
    92    81    80    1
    93    77    80    1
    94    77    76    1
