@<TRIPOS>MOLECULE
tmp/5vewB03.pdb
 121 117 0 0 0
SMALL
GASTEIGER

@<TRIPOS>ATOM
      1  N         46.8900   23.6730   46.6310 N.3   330  PHE330     -0.1241
      2  CA        48.2440   24.0030   47.0500 C.3   330  PHE330      0.1605
      3  C         48.2180   25.1310   48.0820 C.2   330  PHE330      0.2264
      4  O         49.0820   25.1410   48.9530 O.2   330  PHE330     -0.2867
      5  CB        49.1650   24.3620   45.8900 C.3   330  PHE330      0.0534
      6  CG        49.7630   23.1410   45.2300 C.ar  330  PHE330     -0.0203
      7  CD1       50.8010   22.4380   45.8390 C.ar  330  PHE330     -0.0042
      8  CD2       49.3510   22.7400   43.9660 C.ar  330  PHE330     -0.0042
      9  CE1       51.3600   21.3130   45.2280 C.ar  330  PHE330     -0.0003
     10  CE2       49.9260   21.6260   43.3460 C.ar  330  PHE330     -0.0003
     11  CZ        50.9280   20.9220   43.9800 C.ar  330  PHE330     -0.0000
     12  N         47.4660   23.1140   51.1590 N.3   333  PHE333     -0.1241
     13  CA        48.6980   22.3660   51.4050 C.3   333  PHE333      0.1605
     14  C         49.6910   23.2030   52.2350 C.2   333  PHE333      0.2264
     15  O         50.1450   22.7360   53.2780 O.2   333  PHE333     -0.2867
     16  CB        49.3190   21.9590   50.0530 C.3   333  PHE333      0.0534
     17  CG        50.7000   21.3400   50.0560 C.ar  333  PHE333     -0.0203
     18  CD1       50.8620   19.9620   50.0810 C.ar  333  PHE333     -0.0042
     19  CD2       51.8360   22.1350   49.9390 C.ar  333  PHE333     -0.0042
     20  CE1       52.1370   19.3930   50.0430 C.ar  333  PHE333     -0.0003
     21  CE2       53.1080   21.5640   49.9110 C.ar  333  PHE333     -0.0003
     22  CZ        53.2520   20.1970   49.9600 C.ar  333  PHE333     -0.0000
     23  N         50.4170   22.9270   56.4890 N.3   337  ILE337     -0.1245
     24  CA        51.7920   22.7260   56.9820 C.3   337  ILE337      0.1561
     25  C         52.1150   23.8030   58.0720 C.2   337  ILE337      0.2260
     26  O         52.6620   23.4280   59.1040 O.2   337  ILE337     -0.2867
     27  CB        52.8260   22.7370   55.8210 C.3   337  ILE337      0.0252
     28  CG1       52.6000   21.4920   54.9130 C.3   337  ILE337      0.0019
     29  CG2       54.2620   22.7470   56.3620 C.3   337  ILE337      0.0019
     30  CD1       53.4490   21.3920   53.6150 C.3   337  ILE337      0.0001
     31  N         48.5340   15.7090   52.3940 N.3   363  LEU363     -0.1231
     32  CA        49.6240   16.5650   51.9150 C.3   363  LEU363      0.1693
     33  C         50.5160   15.8270   50.9110 C.2   363  LEU363      0.2592
     34  O         51.2640   16.4820   50.2010 O.2   363  LEU363     -0.2718
     35  CB        50.4870   17.0900   53.0770 C.3   363  LEU363      0.0284
     36  CG        49.8120   18.0300   54.0810 C.3   363  LEU363      0.0019
     37  CD1       50.7000   18.2570   55.2640 C.3   363  LEU363      0.0001
     38  CD2       49.4130   19.3440   53.4430 C.3   363  LEU363      0.0001
     39  N         50.4430   14.4750   50.8600 N.am  364  THR364     -0.1953
     40  CA        51.2050   13.6520   49.9110 C.3   364  THR364      0.1897
     41  C         50.4680   13.6160   48.5600 C.2   364  THR364      0.2313
     42  O         51.1080   13.8010   47.5230 O.2   364  THR364     -0.2863
     43  CB        51.4300   12.2270   50.4770 C.3   364  THR364      0.1794
     44  OG1       52.1960   12.3180   51.6780 O.3   364  THR364     -0.2208
     45  CG2       52.1550   11.3070   49.4980 C.3   364  THR364      0.0378
     46  N         50.3330   17.2650   46.0970 N.3   367  PRO367     -0.2102
     47  CA        51.3740   17.4840   45.0740 C.3   367  PRO367      0.1504
     48  C         51.5540   16.2780   44.1460 C.2   367  PRO367      0.2576
     49  O         52.1930   16.4120   43.1140 O.2   367  PRO367     -0.2718
     50  CB        52.6350   17.7190   45.9040 C.3   367  PRO367      0.0282
     51  CG        52.4180   16.9620   47.1280 C.3   367  PRO367      0.0208
     52  CD        50.9480   17.1120   47.4310 C.3   367  PRO367      0.0893
     53  N         50.9860   15.1160   44.4990 N.am  368  LEU368     -0.1966
     54  CA        51.0950   13.9050   43.6830 C.3   368  LEU368      0.1728
     55  C         50.1680   13.9860   42.4600 C.2   368  LEU368      0.2616
     56  O         50.5390   13.5340   41.3700 O.2   368  LEU368     -0.2715
     57  CB        50.7480   12.6740   44.5400 C.3   368  LEU368      0.0311
     58  CG        51.1230   11.2910   43.9930 C.3   368  LEU368      0.0022
     59  CD1       52.6520   11.0990   43.9470 C.3   368  LEU368      0.0001
     60  CD2       50.5490   10.2130   44.8760 C.3   368  LEU368      0.0001
     61  N         48.9720   14.5780   42.6470 N.am  369  LEU369     -0.1977
     62  CA        47.9550   14.6990   41.6080 C.3   369  LEU369      0.1596
     63  C         47.8890   16.1010   40.9860 C.2   369  LEU369      0.2287
     64  O         47.4510   16.2110   39.8390 O.2   369  LEU369     -0.2864
     65  CB        46.5560   14.3590   42.1720 C.3   369  LEU369      0.0297
     66  CG        46.1460   12.8840   42.3360 C.3   369  LEU369      0.0022
     67  CD1       47.0040   12.1380   43.3360 C.3   369  LEU369      0.0001
     68  CD2       44.7140   12.7890   42.7950 C.3   369  LEU369      0.0001
     69  N         50.6090   18.5590   40.8710 N.3   371  THR371     -0.1203
     70  CA        51.8190   19.2990   40.4910 C.3   371  THR371      0.1994
     71  C         51.9090   19.3660   38.9350 C.2   371  THR371      0.2617
     72  O         52.1180   20.4600   38.4050 O.2   371  THR371     -0.2717
     73  CB        53.0980   18.7200   41.1260 C.3   371  THR371      0.1784
     74  OG1       54.1390   19.6870   41.0450 O.3   371  THR371     -0.2211
     75  CG2       53.5430   17.4070   40.5170 C.3   371  THR371      0.0376
     76  N         51.6670   18.2420   38.2170 N.am  372  HIS372     -0.1975
     77  CA        51.7180   18.2110   36.7520 C.3   372  HIS372      0.1656
     78  C         50.7870   19.2890   36.1490 C.2   372  HIS372      0.2291
     79  O         51.2300   20.0330   35.2780 O.2   372  HIS372     -0.2864
     80  CB        51.3460   16.8170   36.2150 C.3   372  HIS372      0.0771
     81  CG        51.3610   16.7190   34.7160 C.ar  372  HIS372      0.0820
     82  ND1       52.5420   16.5520   34.0170 N.ar  372  HIS372     -0.2267
     83  CD2       50.3350   16.7560   33.8300 C.ar  372  HIS372      0.1154
     84  CE1       52.2030   16.5280   32.7370 C.ar  372  HIS372      0.1986
     85  NE2       50.8890   16.6460   32.5740 N.ar  372  HIS372     -0.2212
     86  N         54.1370    9.0850   32.1740 N.3   388  GLU388     -0.1245
     87  CA        52.9850    9.7470   32.7810 C.3   388  GLU388      0.1567
     88  C         51.8480    8.7330   32.8890 C.2   388  GLU388      0.2260
     89  O         51.0500    8.7790   33.8280 O.2   388  GLU388     -0.2867
     90  CB        52.5820   10.9850   31.9540 C.3   388  GLU388      0.0388
     91  CG        51.4340   11.7880   32.5530 C.3   388  GLU388      0.1160
     92  CD        50.9780   13.0140   31.7850 C.2   388  GLU388      0.3649
     93  OE1       51.4110   13.2010   30.6250 O.co2 388  GLU388     -0.2457
     94  OE2       50.1320   13.7590   32.3270 O.co2 388  GLU388     -0.2457
     95  N         52.0530    6.6790   36.2380 N.3   391  PHE391     -0.1227
     96  CA        51.5630    7.3320   37.4480 C.3   391  PHE391      0.1736
     97  C         50.0500    7.5700   37.4010 C.2   391  PHE391      0.2596
     98  O         49.4300    7.4490   38.4490 O.2   391  PHE391     -0.2718
     99  CB        52.2720    8.6580   37.7280 C.3   391  PHE391      0.0547
    100  CG        53.5330    8.4730   38.5390 C.ar  391  PHE391     -0.0202
    101  CD1       53.4830    8.4180   39.9300 C.ar  391  PHE391     -0.0042
    102  CD2       54.7730    8.3550   37.9140 C.ar  391  PHE391     -0.0042
    103  CE1       54.6460    8.2270   40.6810 C.ar  391  PHE391     -0.0003
    104  CE2       55.9370    8.1640   38.6660 C.ar  391  PHE391     -0.0003
    105  CZ        55.8670    8.1070   40.0460 C.ar  391  PHE391     -0.0000
    106  N         49.4440    7.8690   36.2320 N.am  392  THR392     -0.1953
    107  CA        47.9850    8.0860   36.1890 C.3   392  THR392      0.1897
    108  C         47.2190    6.7500   36.3830 C.2   392  THR392      0.2313
    109  O         46.0650    6.7720   36.8150 O.2   392  THR392     -0.2863
    110  CB        47.5270    8.7720   34.8850 C.3   392  THR392      0.1794
    111  OG1       47.9120    7.9840   33.7610 O.3   392  THR392     -0.2208
    112  CG2       48.0620   10.1900   34.7420 C.3   392  THR392      0.0378
    113  N         47.6950    5.7240   40.2180 N.3   395  GLN395     -0.1245
    114  CA        47.1650    6.8840   40.9350 C.3   395  GLN395      0.1566
    115  C         46.1040    6.4460   41.9640 C.2   395  GLN395      0.2260
    116  O         46.1560    6.8780   43.1170 O.2   395  GLN395     -0.2867
    117  CB        46.5710    7.8520   39.8920 C.3   395  GLN395      0.0367
    118  CG        46.2920    9.2810   40.3400 C.3   395  GLN395      0.0905
    119  CD        45.7760   10.1150   39.1790 C.2   395  GLN395      0.2608
    120  OE1       45.2110    9.6040   38.2070 O.2   395  GLN395     -0.2717
    121  NE2       45.9160   11.4260   39.2710 N.am  395  GLN395     -0.0878
@<TRIPOS>BOND
     1    93    92   ar
     2    92    94   ar
     3    92    91    1
     4    90    91    1
     5    90    87    1
     6    86    87    1
     7    85    84   ar
     8    85    83   ar
     9    84    82   ar
    10    87    88    1
    11    88    89    2
    12   111   110    1
    13    83    81   ar
    14    82    81   ar
    15    81    80    1
    16   112   110    1
    17   110   107    1
    18    79    78    2
    19    78    77    1
    20   107   106    1
    21   107   108    1
    22    80    77    1
    23   106    97   am
    24    95    96    1
    25   108   109    2
    26    77    76    1
    27    97    96    1
    28    97    98    2
    29    96    99    1
    30    99   100    1
    31   102   100   ar
    32   102   104   ar
    33   120   119    2
    34    76    71   am
    35    72    71    2
    36   100   101   ar
    37   104   105   ar
    38    71    70    1
    39   119   121   am
    40   119   118    1
    41    64    63    2
    42   117   118    1
    43   117   114    1
    44   101   103   ar
    45   105   103   ar
    46   113   114    1
    47    70    69    1
    48    70    73    1
    49    75    73    1
    50   114   115    1
    51    63    62    1
    52    74    73    1
    53    56    55    2
    54    62    65    1
    55    62    61    1
    56   115   116    2
    57    65    66    1
    58    66    68    1
    59    66    67    1
    60    55    61   am
    61    55    54    1
    62    49    48    2
    63    10     8   ar
    64    10    11   ar
    65    54    53    1
    66    54    57    1
    67    59    58    1
    68     8     6   ar
    69    11     9   ar
    70    58    57    1
    71    58    60    1
    72    48    53   am
    73    48    47    1
    74    47    50    1
    75    47    46    1
    76     9     7   ar
    77     6     7   ar
    78     6     5    1
    79     5     2    1
    80    50    51    1
    81    46    52    1
    82     1     2    1
    83     2     3    1
    84    51    52    1
    85    42    41    2
    86     3     4    2
    87    41    40    1
    88    45    43    1
    89    40    43    1
    90    40    39    1
    91    21    19   ar
    92    21    22   ar
    93    19    17   ar
    94    22    20   ar
    95    20    18   ar
    96    16    17    1
    97    16    13    1
    98    17    18   ar
    99    34    33    2
   100    43    44    1
   101    39    33   am
   102    33    32    1
   103    12    13    1
   104    13    14    1
   105    32    31    1
   106    32    35    1
   107    14    15    2
   108    35    36    1
   109    38    36    1
   110    30    28    1
   111    36    37    1
   112    28    27    1
   113    27    29    1
   114    27    24    1
   115    23    24    1
   116    24    25    1
   117    25    26    2
