@<TRIPOS>MOLECULE
tmp/5vewB02.pdb
 193 184 0 0 0
SMALL
GASTEIGER

@<TRIPOS>ATOM
      1  N         35.0870   11.4540   57.8740 N.3    41  ARG41      -0.1245
      2  CA        36.4120   11.3700   57.2510 C.3    41  ARG41       0.1563
      3  C         36.4670   10.2080   56.2430 C.2    41  ARG41       0.2260
      4  O         36.8740   10.4210   55.1020 O.2    41  ARG41      -0.2867
      5  CB        37.4980   11.2070   58.3210 C.3    41  ARG41       0.0307
      6  CG        38.8890   10.8620   57.7860 C.3    41  ARG41       0.0489
      7  CD        39.9350   10.7660   58.8900 C.3    41  ARG41       0.2205
      8  NE        39.4930    9.9530   60.0310 N.pl3  41  ARG41      -0.0865
      9  CZ        39.6160    8.6310   60.1120 C.cat  41  ARG41       0.5346
     10  NH1       40.1430    7.9420   59.1060 N.pl3  41  ARG41       0.1354
     11  NH2       39.1880    7.9850   61.1890 N.pl3  41  ARG41       0.1354
     12  N         36.3800    9.7180   51.8240 N.3    45  HIS45      -0.1241
     13  CA        37.2950    8.7820   51.1620 C.3    45  HIS45       0.1621
     14  C         36.5440    7.8370   50.2170 C.2    45  HIS45       0.2264
     15  O         37.0540    7.5500   49.1370 O.2    45  HIS45      -0.2867
     16  CB        38.0790    7.9420   52.2020 C.3    45  HIS45       0.0745
     17  CG        39.0190    8.7040   53.0950 C.ar   45  HIS45       0.0817
     18  ND1       38.9470   10.0800   53.2350 N.ar   45  HIS45      -0.2268
     19  CD2       39.9450    8.2290   53.9600 C.ar   45  HIS45       0.1154
     20  CE1       39.8690   10.3970   54.1280 C.ar   45  HIS45       0.1986
     21  NE2       40.4910    9.3160   54.5960 N.ar   45  HIS45      -0.2212
     22  N         50.4170   22.9270   56.4890 N.3   337  ILE337     -0.1245
     23  CA        51.7920   22.7260   56.9820 C.3   337  ILE337      0.1561
     24  C         52.1150   23.8030   58.0720 C.2   337  ILE337      0.2260
     25  O         52.6620   23.4280   59.1040 O.2   337  ILE337     -0.2867
     26  CB        52.8260   22.7370   55.8210 C.3   337  ILE337      0.0252
     27  CG1       52.6000   21.4920   54.9130 C.3   337  ILE337      0.0019
     28  CG2       54.2620   22.7470   56.3620 C.3   337  ILE337      0.0019
     29  CD1       53.4490   21.3920   53.6150 C.3   337  ILE337      0.0001
     30  N         50.0940   22.5920   61.2610 N.3   340  VAL340     -0.1231
     31  CA        50.5970   21.3260   61.8000 C.3   340  VAL340      0.1692
     32  C         51.9460   21.5600   62.5290 C.2   340  VAL340      0.2591
     33  O         52.0870   21.0880   63.6590 O.2   340  VAL340     -0.2718
     34  CB        50.7250   20.2430   60.6990 C.3   340  VAL340      0.0266
     35  CG1       51.4630   19.0090   61.2030 C.3   340  VAL340      0.0020
     36  CG2       49.3520   19.8540   60.1660 C.3   340  VAL340      0.0020
     37  N         52.8930   22.3300   61.9270 N.am  341  VAL341     -0.1980
     38  CA        54.2060   22.5950   62.5420 C.3   341  VAL341      0.1595
     39  C         54.0240   23.4940   63.7930 C.2   341  VAL341      0.2287
     40  O         54.8450   23.4090   64.7090 O.2   341  VAL341     -0.2864
     41  CB        55.2660   23.2090   61.5730 C.3   341  VAL341      0.0276
     42  CG1       55.5180   22.2930   60.3790 C.3   341  VAL341      0.0022
     43  CG2       54.8870   24.6170   61.1140 C.3   341  VAL341      0.0022
     44  N         52.4790   21.0880   66.6340 N.3   344  LEU344     -0.1245
     45  CA        53.4930   20.1290   67.0980 C.3   344  LEU344      0.1561
     46  C         54.5200   20.8170   68.0320 C.2   344  LEU344      0.2260
     47  O         54.8110   20.2740   69.1040 O.2   344  LEU344     -0.2867
     48  CB        54.2210   19.4500   65.9230 C.3   344  LEU344      0.0270
     49  CG        53.4200   18.4260   65.1100 C.3   344  LEU344      0.0019
     50  CD1       54.0990   18.1220   63.7990 C.3   344  LEU344      0.0001
     51  CD2       53.1440   17.1500   65.9110 C.3   344  LEU344      0.0001
     52  N         52.0800   13.2490   66.9950 N.3   351  LYS351     -0.1245
     53  CA        52.0520   12.6570   65.6490 C.3   351  LYS351      0.1561
     54  C         51.1790   11.3820   65.5830 C.2   351  LYS351      0.2260
     55  O         50.9750   10.8300   64.4990 O.2   351  LYS351     -0.2867
     56  CB        53.4690   12.3190   65.1660 C.3   351  LYS351      0.0271
     57  CG        54.3300   13.5410   64.8740 C.3   351  LYS351      0.0035
     58  CD        55.6060   13.1350   64.1820 C.3   351  LYS351      0.0206
     59  CE        56.3630   14.3280   63.6810 C.3   351  LYS351      0.1093
     60  NZ        57.5490   13.9150   62.8990 N.3   351  LYS351     -0.1314
     61  N         44.8190   11.7160   64.7260 N.3   354  ILE354     -0.1245
     62  CA        44.1220   11.6180   63.4310 C.3   354  ILE354      0.1561
     63  C         44.4740   12.7970   62.5090 C.2   354  ILE354      0.2260
     64  O         44.7480   12.5700   61.3350 O.2   354  ILE354     -0.2867
     65  CB        42.5690   11.5360   63.5900 C.3   354  ILE354      0.0252
     66  CG1       41.9830   12.7690   64.3750 C.3   354  ILE354      0.0019
     67  CG2       42.1670   10.2080   64.2390 C.3   354  ILE354      0.0019
     68  CD1       40.4030   12.9410   64.4040 C.3   354  ILE354      0.0001
     69  N         47.1230   14.5920   62.3430 N.3   356  PHE356     -0.1227
     70  CA        48.4850   14.5430   61.8240 C.3   356  PHE356      0.1736
     71  C         48.6180   13.4510   60.7580 C.2   356  PHE356      0.2595
     72  O         49.2330   13.6950   59.7140 O.2   356  PHE356     -0.2718
     73  CB        49.5260   14.3240   62.9360 C.3   356  PHE356      0.0547
     74  CG        50.9380   14.2820   62.3940 C.ar  356  PHE356     -0.0202
     75  CD1       51.6350   15.4550   62.1360 C.ar  356  PHE356     -0.0042
     76  CD2       51.5580   13.0700   62.1140 C.ar  356  PHE356     -0.0042
     77  CE1       52.9240   15.4170   61.6020 C.ar  356  PHE356     -0.0003
     78  CE2       52.8510   13.0340   61.5890 C.ar  356  PHE356     -0.0003
     79  CZ        53.5240   14.2070   61.3320 C.ar  356  PHE356     -0.0000
     80  N         48.0880   12.2420   61.0420 N.am  357  ARG357     -0.1966
     81  CA        48.1540   11.0930   60.1320 C.3   357  ARG357      0.1729
     82  C         47.3250   11.3530   58.8610 C.2   357  ARG357      0.2616
     83  O         47.7400   10.9460   57.7740 O.2   357  ARG357     -0.2715
     84  CB        47.6690    9.8270   60.8390 C.3   357  ARG357      0.0348
     85  CG        48.5630    9.3910   61.9960 C.3   357  ARG357      0.0492
     86  CD        47.9800    8.2180   62.7540 C.3   357  ARG357      0.2205
     87  NE        46.6630    8.5430   63.3040 N.pl3 357  ARG357     -0.0865
     88  CZ        45.9980    7.7790   64.1600 C.cat 357  ARG357      0.5346
     89  NH1       46.5490    6.6720   64.6390 N.pl3 357  ARG357      0.1354
     90  NH2       44.8110    8.1560   64.6090 N.pl3 357  ARG357      0.1354
     91  N         46.1740   12.0530   58.9940 N.am  358  LEU358     -0.1963
     92  CA        45.3400   12.4160   57.8470 C.3   358  LEU358      0.1728
     93  C         46.0810   13.4480   57.0030 C.2   358  LEU358      0.2616
     94  O         46.0440   13.3570   55.7750 O.2   358  LEU358     -0.2715
     95  CB        43.9570   12.9370   58.2830 C.3   358  LEU358      0.0311
     96  CG        42.9390   13.2420   57.1780 C.3   358  LEU358      0.0022
     97  CD1       42.5570   11.9790   56.4040 C.3   358  LEU358      0.0001
     98  CD2       41.6950   13.8720   57.7570 C.3   358  LEU358      0.0001
     99  N         46.7990   14.3960   57.6600 N.am  359  ALA359     -0.1963
    100  CA        47.6180   15.4090   56.9760 C.3   359  ALA359      0.1728
    101  C         48.7990   14.7520   56.2740 C.2   359  ALA359      0.2616
    102  O         49.1740   15.1580   55.1830 O.2   359  ALA359     -0.2715
    103  CB        48.1100   16.4560   57.9690 C.3   359  ALA359      0.0334
    104  N         49.3350   13.6900   56.8810 N.am  360  LYS360     -0.1963
    105  CA        50.4750   12.9250   56.3940 C.3   360  LYS360      0.1728
    106  C         50.1170   12.2200   55.0510 C.2   360  LYS360      0.2616
    107  O         51.0050   12.0670   54.2210 O.2   360  LYS360     -0.2715
    108  CB        50.8930   11.9210   57.4850 C.3   360  LYS360      0.0311
    109  CG        52.1890   11.1740   57.2440 C.3   360  LYS360      0.0038
    110  CD        52.9550   10.9100   58.5520 C.3   360  LYS360      0.0206
    111  CE        52.2830   10.0460   59.5990 C.3   360  LYS360      0.1093
    112  NZ        52.1690    8.6350   59.1760 N.3   360  LYS360     -0.1314
    113  N         48.8220   11.8870   54.8060 N.am  361  SER361     -0.1950
    114  CA        48.3550   11.2660   53.5470 C.3   361  SER361      0.1924
    115  C         47.8200   12.3010   52.5430 C.2   361  SER361      0.2314
    116  O         48.0240   12.1410   51.3370 O.2   361  SER361     -0.2863
    117  CB        47.2540   10.2420   53.8120 C.3   361  SER361      0.2116
    118  OG        47.7170    9.1580   54.5960 O.3   361  SER361     -0.2180
    119  N         48.5340   15.7090   52.3940 N.3   363  LEU363     -0.1231
    120  CA        49.6240   16.5650   51.9150 C.3   363  LEU363      0.1693
    121  C         50.5160   15.8270   50.9110 C.2   363  LEU363      0.2592
    122  O         51.2640   16.4820   50.2010 O.2   363  LEU363     -0.2718
    123  CB        50.4870   17.0900   53.0770 C.3   363  LEU363      0.0284
    124  CG        49.8120   18.0300   54.0810 C.3   363  LEU363      0.0019
    125  CD1       50.7000   18.2570   55.2640 C.3   363  LEU363      0.0001
    126  CD2       49.4130   19.3440   53.4430 C.3   363  LEU363      0.0001
    127  N         50.4430   14.4750   50.8600 N.am  364  THR364     -0.1953
    128  CA        51.2050   13.6520   49.9110 C.3   364  THR364      0.1897
    129  C         50.4680   13.6160   48.5600 C.2   364  THR364      0.2313
    130  O         51.1080   13.8010   47.5230 O.2   364  THR364     -0.2863
    131  CB        51.4300   12.2270   50.4770 C.3   364  THR364      0.1794
    132  OG1       52.1960   12.3180   51.6780 O.3   364  THR364     -0.2208
    133  CG2       52.1550   11.3070   49.4980 C.3   364  THR364      0.0378
    134  N         47.5970    4.1370   45.1260 N.3   398  MET398     -0.1245
    135  CA        48.2200    4.8430   46.2470 C.3   398  MET398      0.1570
    136  C         47.1510    5.6140   47.0740 C.2   398  MET398      0.2261
    137  O         47.3650    5.8320   48.2630 O.2   398  MET398     -0.2867
    138  CB        49.3360    5.7900   45.7830 C.3   398  MET398      0.0387
    139  CG        50.2190    6.2570   46.9490 C.3   398  MET398      0.0595
    140  SD        51.8250    6.9840   46.5430 S.3   398  MET398     -0.1393
    141  CE        52.6700    5.5560   45.8270 C.3   398  MET398      0.0692
    142  N         47.3320    4.9960   51.1090 N.3   402  LEU402     -0.1231
    143  CA        47.4490    6.1310   52.0290 C.3   402  LEU402      0.1693
    144  C         46.1550    6.4030   52.8250 C.2   402  LEU402      0.2592
    145  O         46.2540    6.8900   53.9530 O.2   402  LEU402     -0.2718
    146  CB        47.8410    7.4200   51.2800 C.3   402  LEU402      0.0284
    147  CG        49.2060    7.4240   50.5350 C.3   402  LEU402      0.0019
    148  CD1       49.4390    8.7460   49.8400 C.3   402  LEU402      0.0001
    149  CD2       50.3730    7.1440   51.4740 C.3   402  LEU402      0.0001
    150  N         44.9620    6.1050   52.2690 N.am  403  TYR403     -0.1976
    151  CA        43.7250    6.3810   53.0020 C.3   403  TYR403      0.1639
    152  C         43.0480    5.1090   53.5540 C.2   403  TYR403      0.2290
    153  O         41.9620    5.2340   54.1250 O.2   403  TYR403     -0.2864
    154  CB        42.6960    7.1400   52.1410 C.3   403  TYR403      0.0560
    155  CG        43.0080    8.6090   51.9530 C.ar  403  TYR403     -0.0198
    156  CD1       43.4600    9.3840   53.0170 C.ar  403  TYR403     -0.0009
    157  CD2       42.6360    9.2720   50.7890 C.ar  403  TYR403     -0.0009
    158  CE1       43.7070   10.7440   52.8710 C.ar  403  TYR403      0.0417
    159  CE2       42.8200   10.6480   50.6500 C.ar  403  TYR403      0.0417
    160  CZ        43.3860   11.3740   51.6850 C.ar  403  TYR403      0.1957
    161  OH        43.6310   12.7190   51.5550 O.3   403  TYR403     -0.2866
    162  N         47.3250    1.7020   55.1360 N.3   406  VAL406     -0.1231
    163  CA        48.3580    2.1030   56.1130 C.3   406  VAL406      0.1692
    164  C         47.6930    2.9120   57.2690 C.2   406  VAL406      0.2592
    165  O         48.3900    3.3390   58.1950 O.2   406  VAL406     -0.2718
    166  CB        49.5610    2.8790   55.5050 C.3   406  VAL406      0.0266
    167  CG1       50.3980    1.9780   54.6070 C.3   406  VAL406      0.0020
    168  CG2       49.1310    4.1420   54.7700 C.3   406  VAL406      0.0020
    169  N         46.3490    3.0510   57.2390 N.am  407  ASN407     -0.1960
    170  CA        45.5540    3.7070   58.2910 C.3   407  ASN407      0.1819
    171  C         45.6180    2.8720   59.5750 C.2   407  ASN407      0.2621
    172  O         45.4790    1.6490   59.5120 O.2   407  ASN407     -0.2715
    173  CB        44.0920    3.8960   57.8170 C.3   407  ASN407      0.1195
    174  CG        43.1540    4.5990   58.7760 C.2   407  ASN407      0.2630
    175  OD1       41.9920    4.2140   58.9290 O.2   407  ASN407     -0.2716
    176  ND2       43.6220    5.6370   59.4410 N.am  407  ASN407     -0.0877
    177  N         45.8660    3.5150   60.7280 N.am  408  ASN408     -0.1958
    178  CA        45.9960    2.7950   61.9950 C.3   408  ASN408      0.1819
    179  C         44.6490    2.2540   62.4900 C.2   408  ASN408      0.2621
    180  O         44.6270    1.1840   63.0970 O.2   408  ASN408     -0.2715
    181  CB        46.6060    3.6820   63.0740 C.3   408  ASN408      0.1195
    182  CG        48.0060    4.1800   62.7790 C.2   408  ASN408      0.2630
    183  OD1       48.4290    4.3330   61.6190 O.2   408  ASN408     -0.2716
    184  ND2       48.7260    4.5350   63.8330 N.am  408  ASN408     -0.0877
    185  N         43.5390    2.9740   62.2370 N.am  409  GLU409     -0.1977
    186  CA        42.2070    2.5560   62.6880 C.3   409  GLU409      0.1602
    187  C         41.7550    1.2490   62.0180 C.2   409  GLU409      0.2287
    188  O         41.1720    0.4120   62.7070 O.2   409  GLU409     -0.2864
    189  CB        41.1410    3.6390   62.4320 C.3   409  GLU409      0.0415
    190  CG        41.2250    4.8700   63.3280 C.3   409  GLU409      0.1163
    191  CD        42.3900    5.8300   63.1670 C.2   409  GLU409      0.3649
    192  OE1       43.1040    5.7550   62.1410 O.co2 409  GLU409     -0.2457
    193  OE2       42.5240    6.7280   64.0270 O.co2 409  GLU409     -0.2457
@<TRIPOS>BOND
     1   134   135    1
     2   138   135    1
     3   138   139    1
     4   141   140    1
     5   135   136    1
     6   140   139    1
     7   136   137    2
     8   130   129    2
     9   129   128    1
    10    15    14    2
    11   133   131    1
    12   148   147    1
    13   128   131    1
    14   128   127    1
    15   122   121    2
    16    14    13    1
    17   131   132    1
    18   147   146    1
    19   147   149    1
    20   159   157   ar
    21   159   160   ar
    22   157   155   ar
    23   127   121   am
    24   121   120    1
    25   142   143    1
    26    13    12    1
    27    13    16    1
    28   146   143    1
    29   116   115    2
    30   161   160    1
    31   160   158   ar
    32   120   119    1
    33   120   123    1
    34   155   154    1
    35   155   156   ar
    36   143   144    1
    37   154   151    1
    38    16    17    1
    39   150   144   am
    40   150   151    1
    41   115   114    1
    42   144   145    2
    43   158   156   ar
    44   151   152    1
    45   123   124    1
    46    17    18   ar
    47    17    19   ar
    48    18    20   ar
    49   126   124    1
    50   114   117    1
    51   114   113    1
    52   152   153    2
    53    29    27    1
    54   117   118    1
    55    19    21   ar
    56   124   125    1
    57    20    21   ar
    58   107   106    2
    59   167   166    1
    60   168   166    1
    61   113   106   am
    62    27    26    1
    63   106   105    1
    64     4     3    2
    65   162   163    1
    66   102   101    2
    67   166   163    1
    68    94    93    2
    69    26    28    1
    70    26    23    1
    71   163   164    1
    72     3     2    1
    73   101   104   am
    74   101   100    1
    75   105   104    1
    76   105   108    1
    77    97    96    1
    78    22    23    1
    79   100    99    1
    80   100   103    1
    81    23    24    1
    82    93    99   am
    83    93    92    1
    84    96    98    1
    85    96    95    1
    86   169   164   am
    87   169   170    1
    88   109   108    1
    89   109   110    1
    90     2     1    1
    91     2     5    1
    92   164   165    2
    93    83    82    2
    94     6     5    1
    95     6     7    1
    96   173   170    1
    97   173   174    1
    98    92    95    1
    99    92    91    1
   100    24    25    2
   101   170   171    1
   102   110   111    1
   103   174   175    2
   104   174   176   am
   105    82    91   am
   106    82    81    1
   107     7     8    1
   108    10     9    1
   109   112   111    1
   110   172   171    2
   111   171   177   am
   112    72    71    2
   113     8     9    2
   114     9    11    1
   115    81    84    1
   116    81    80    1
   117    36    34    1
   118    42    41    1
   119    34    35    1
   120    34    31    1
   121   177   178    1
   122    71    80   am
   123    71    70    1
   124    84    85    1
   125    43    41    1
   126    30    31    1
   127    79    78   ar
   128    79    77   ar
   129    64    63    2
   130    41    38    1
   131    78    76   ar
   132    77    75   ar
   133   183   182    2
   134    31    32    1
   135    70    69    1
   136    70    73    1
   137    37    32   am
   138    37    38    1
   139   178   179    1
   140   178   181    1
   141    85    86    1
   142   187   186    1
   143   187   188    2
   144    76    74   ar
   145    75    74   ar
   146   192   191   ar
   147   185   179   am
   148   185   186    1
   149    74    73    1
   150   189   186    1
   151   189   190    1
   152   179   180    2
   153    63    62    1
   154    32    33    2
   155    38    39    1
   156    86    87    1
   157   182   181    1
   158   182   184   am
   159    60    59    1
   160   191   190    1
   161   191   193   ar
   162    87    88    2
   163    62    65    1
   164    62    61    1
   165    65    67    1
   166    65    66    1
   167    59    58    1
   168    39    40    2
   169    50    49    1
   170    88    90    1
   171    88    89    1
   172    58    57    1
   173    66    68    1
   174    55    54    2
   175    57    56    1
   176    49    51    1
   177    49    48    1
   178    56    53    1
   179    54    53    1
   180    53    52    1
   181    48    45    1
   182    44    45    1
   183    45    46    1
   184    46    47    2
