@<TRIPOS>MOLECULE
tmp/5vewA01.pdb
 106 98 0 0 0
SMALL
GASTEIGER

@<TRIPOS>ATOM
      1  N          5.8160   43.2700   37.9920 N.3    25  VAL25      -0.1245
      2  CA         4.6060   44.0470   37.6850 C.3    25  VAL25       0.1561
      3  C          4.8150   44.7110   36.3060 C.2    25  VAL25       0.2260
      4  O          3.9140   44.6530   35.4660 O.2    25  VAL25      -0.2867
      5  CB         4.2440   45.0740   38.8000 C.3    25  VAL25       0.0252
      6  CG1        3.1090   46.0030   38.3670 C.3    25  VAL25       0.0019
      7  CG2        3.8820   44.3660   40.1030 C.3    25  VAL25       0.0019
      8  N          4.9080   41.7950   33.5880 N.3    28  SER28      -0.1202
      9  CA         3.5550   41.2890   33.3450 C.3    28  SER28       0.2020
     10  C          2.7140   42.3260   32.5910 C.2    28  SER28       0.2618
     11  O          1.8630   41.9410   31.7880 O.2    28  SER28      -0.2717
     12  CB         2.8710   40.9020   34.6500 C.3    28  SER28       0.2103
     13  OG         2.8450   41.9930   35.5540 O.3    28  SER28      -0.2182
     14  N          2.9840   43.6330   32.8090 N.am   29  ALA29      -0.1979
     15  CA         2.2950   44.7180   32.0990 C.3    29  ALA29       0.1597
     16  C          2.7110   44.7550   30.6190 C.2    29  ALA29       0.2287
     17  O          1.9010   45.1240   29.7690 O.2    29  ALA29      -0.2864
     18  CB         2.5890   46.0570   32.7600 C.3    29  ALA29       0.0319
     19  N          0.9500   41.7010   28.7790 N.3    32  LEU32      -0.1231
     20  CA        -0.4880   41.9900   28.6390 C.3    32  LEU32       0.1693
     21  C         -0.7360   43.1950   27.7110 C.2    32  LEU32       0.2592
     22  O         -1.7130   43.1970   26.9630 O.2    32  LEU32      -0.2718
     23  CB        -1.1440   42.2600   30.0090 C.3    32  LEU32       0.0284
     24  CG        -1.3000   41.0820   30.9750 C.3    32  LEU32       0.0019
     25  CD1       -1.6890   41.5660   32.3500 C.3    32  LEU32       0.0001
     26  CD2       -2.3170   40.0640   30.4660 C.3    32  LEU32       0.0001
     27  N          0.1400   44.2010   27.7910 N.am   33  GLY33      -0.1957
     28  CA         0.0540   45.4400   27.0210 C.3    33  GLY33       0.1869
     29  C          0.1350   45.2800   25.5180 C.2    33  GLY33       0.2309
     30  O         -0.7060   45.8210   24.7960 O.2    33  GLY33      -0.2863
     31  N          1.3730   33.3120   28.4800 N.3    43  TYR43      -0.1241
     32  CA         0.3080   33.1700   29.4930 C.3    43  TYR43       0.1605
     33  C          0.7950   32.3110   30.6690 C.2    43  TYR43       0.2264
     34  O          0.4460   32.5970   31.8140 O.2    43  TYR43      -0.2867
     35  CB        -0.9940   32.5780   28.9230 C.3    43  TYR43       0.0534
     36  CG        -1.7190   33.4450   27.9140 C.ar   43  TYR43      -0.0201
     37  CD1       -2.2160   34.6970   28.2730 C.ar   43  TYR43      -0.0009
     38  CD2       -2.0980   32.9340   26.6760 C.ar   43  TYR43      -0.0009
     39  CE1       -2.9380   35.4770   27.3700 C.ar   43  TYR43       0.0417
     40  CE2       -2.8200   33.7020   25.7630 C.ar   43  TYR43       0.0417
     41  CZ        -3.2510   34.9700   26.1200 C.ar   43  TYR43       0.1957
     42  OH        -3.9940   35.7230   25.2390 O.3    43  TYR43      -0.2866
     43  N          2.8950   34.5640   32.8360 N.3    46  LEU46      -0.1231
     44  CA         2.0690   35.4980   33.6240 C.3    46  LEU46       0.1693
     45  C          1.5870   34.8640   34.9390 C.2    46  LEU46       0.2592
     46  O          1.4910   35.5700   35.9500 O.2    46  LEU46      -0.2718
     47  CB         0.8530   35.9820   32.8200 C.3    46  LEU46       0.0284
     48  CG         1.1330   36.9320   31.6590 C.3    46  LEU46       0.0019
     49  CD1       -0.0590   37.0560   30.7670 C.3    46  LEU46       0.0001
     50  CD2        1.5860   38.2950   32.1450 C.3    46  LEU46       0.0001
     51  N          1.2780   33.5510   34.9280 N.am   47  ASN47      -0.1974
     52  CA         0.8800   32.8380   36.1430 C.3    47  ASN47       0.1688
     53  C          2.0860   32.6080   37.0280 C.2    47  ASN47       0.2292
     54  O          1.9510   32.6200   38.2530 O.2    47  ASN47      -0.2864
     55  CB         0.1980   31.5160   35.8300 C.3    47  ASN47       0.1181
     56  CG        -1.1690   31.6060   35.1880 C.2    47  ASN47       0.2629
     57  OD1       -2.1770   31.2360   35.7900 O.2    47  ASN47      -0.2716
     58  ND2       -1.2390   32.0630   33.9500 N.am   47  ASN47      -0.0877
     59  N          2.8190   35.9830   38.6700 N.3    50  ALA50      -0.1245
     60  CA         1.7850   36.1740   39.6920 C.3    50  ALA50       0.1562
     61  C          2.1420   35.4440   40.9840 C.2    50  ALA50       0.2260
     62  O          1.9520   36.0160   42.0540 O.2    50  ALA50      -0.2867
     63  CB         0.4400   35.6890   39.1780 C.3    50  ALA50       0.0290
     64  N          4.8510   37.4910   42.5220 N.3    53  ILE53      -0.1231
     65  CA         4.2870   38.7830   42.9470 C.3    53  ILE53       0.1692
     66  C          3.5530   38.6020   44.3070 C.2    53  ILE53       0.2591
     67  O          3.7920   39.3970   45.2180 O.2    53  ILE53      -0.2718
     68  CB         3.3470   39.3910   41.8600 C.3    53  ILE53       0.0266
     69  CG1        4.1730   39.8410   40.6410 C.3    53  ILE53       0.0019
     70  CG2        2.5380   40.5850   42.4270 C.3    53  ILE53       0.0020
     71  CD1        3.3980   40.3450   39.4380 C.3    53  ILE53       0.0001
     72  N          2.6850   37.5640   44.4390 N.am   54  LEU54      -0.1980
     73  CA         1.9600   37.2760   45.6870 C.3    54  LEU54       0.1596
     74  C          2.9120   36.8820   46.8240 C.2    54  LEU54       0.2287
     75  O          2.6290   37.2050   47.9780 O.2    54  LEU54      -0.2864
     76  CB         0.9170   36.1690   45.5090 C.3    54  LEU54       0.0297
     77  CG        -0.4970   36.5730   45.1230 C.3    54  LEU54       0.0022
     78  CD1       -0.5640   37.1650   43.7150 C.3    54  LEU54       0.0001
     79  CD2       -1.4130   35.3770   45.1920 C.3    54  LEU54       0.0001
     80  N         -7.4230   23.2090   23.7880 N.3   270  GLN270     -0.1245
     81  CA        -7.8390   24.1470   24.8410 C.3   270  GLN270      0.1566
     82  C         -7.8140   23.5230   26.2630 C.2   270  GLN270      0.2260
     83  O         -7.7250   24.2720   27.2420 O.2   270  GLN270     -0.2867
     84  CB        -9.2640   24.6520   24.5530 C.3   270  GLN270      0.0367
     85  CG        -9.8390   25.5640   25.6220 C.3   270  GLN270      0.0905
     86  CD        -9.1000   26.8650   25.7100 C.2   270  GLN270      0.2608
     87  OE1       -9.1190   27.6480   24.7380 O.2   270  GLN270     -0.2717
     88  NE2       -8.3500   27.1090   26.7790 N.am  270  GLN270     -0.0878
     89  N         -4.0520   23.7840   28.3910 N.3   273  PHE273     -0.1241
     90  CA        -3.7390   24.9480   29.2210 C.3   273  PHE273      0.1605
     91  C         -4.5000   24.8670   30.5660 C.2   273  PHE273      0.2264
     92  O         -3.9690   25.3010   31.5920 O.2   273  PHE273     -0.2867
     93  CB        -4.0650   26.2570   28.4910 C.3   273  PHE273      0.0534
     94  CG        -3.5970   27.4930   29.2240 C.ar  273  PHE273     -0.0203
     95  CD1       -2.3210   27.9980   29.0200 C.ar  273  PHE273     -0.0042
     96  CD2       -4.4360   28.1530   30.1220 C.ar  273  PHE273     -0.0042
     97  CE1       -1.8830   29.1300   29.7080 C.ar  273  PHE273     -0.0003
     98  CE2       -3.9910   29.2760   30.8230 C.ar  273  PHE273     -0.0003
     99  CZ        -2.7200   29.7620   30.6070 C.ar  273  PHE273     -0.0000
    100  N         -2.8910   25.0400   34.5950 N.3   277  VAL277     -0.1245
    101  CA        -3.3990   25.8780   35.6970 C.3   277  VAL277      0.1561
    102  C         -3.8280   24.9590   36.8810 C.2   277  VAL277      0.2260
    103  O         -3.7980   25.3950   38.0360 O.2   277  VAL277     -0.2867
    104  CB        -4.5570   26.8520   35.2850 C.3   277  VAL277      0.0252
    105  CG1       -4.0960   27.8830   34.2580 C.3   277  VAL277      0.0019
    106  CG2       -5.7750   26.1090   34.7750 C.3   277  VAL277      0.0019
@<TRIPOS>BOND
     1    80    81    1
     2    84    81    1
     3    84    85    1
     4    87    86    2
     5    30    29    2
     6    81    82    1
     7    42    41    1
     8    29    28    1
     9    85    86    1
    10    86    88   am
    11    40    41   ar
    12    40    38   ar
    13    41    39   ar
    14    82    83    2
    15    38    36   ar
    16    22    21    2
    17    28    27    1
    18    39    37   ar
    19    21    27   am
    20    21    20    1
    21    36    37   ar
    22    36    35    1
    23    89    90    1
    24    31    32    1
    25    93    90    1
    26    93    94    1
    27    20    19    1
    28    20    23    1
    29    35    32    1
    30    95    94   ar
    31    95    97   ar
    32    90    91    1
    33    94    96   ar
    34    32    33    1
    35    97    99   ar
    36    17    16    2
    37    23    24    1
    38    96    98   ar
    39    26    24    1
    40    91    92    2
    41    99    98   ar
    42    16    15    1
    43    33    34    2
    44    49    48    1
    45    24    25    1
    46    48    50    1
    47    48    47    1
    48    11    10    2
    49    15    18    1
    50    15    14    1
    51    10    14   am
    52    10     9    1
    53    47    44    1
    54    43    44    1
    55     9     8    1
    56     9    12    1
    57    44    45    1
    58    58    56   am
    59   105   104    1
    60   100   101    1
    61    12    13    1
    62   106   104    1
    63    51    45   am
    64    51    52    1
    65    45    46    2
    66    56    57    2
    67    56    55    1
    68   104   101    1
    69     4     3    2
    70   101   102    1
    71    55    52    1
    72    52    53    1
    73     3     2    1
    74   102   103    2
    75    53    54    2
    76     2     1    1
    77     2     5    1
    78     6     5    1
    79    59    60    1
    80     5     7    1
    81    63    60    1
    82    71    69    1
    83    60    61    1
    84    69    68    1
    85    61    62    2
    86    68    70    1
    87    68    65    1
    88    64    65    1
    89    65    66    1
    90    78    77    1
    91    66    72   am
    92    66    67    2
    93    72    73    1
    94    77    79    1
    95    77    76    1
    96    76    73    1
    97    73    74    1
    98    74    75    2
