@<TRIPOS>MOLECULE
tmp/5vexB00.pdb
 194 187 0 0 0
SMALL
GASTEIGER

@<TRIPOS>ATOM
      1  N         35.1950   -6.8200  -59.0880 N.3    41  ARG41      -0.1245
      2  CA        36.5270   -6.7700  -58.4840 C.3    41  ARG41       0.1563
      3  C         36.6210   -5.6190  -57.4630 C.2    41  ARG41       0.2260
      4  O         37.1480   -5.8380  -56.3750 O.2    41  ARG41      -0.2867
      5  CB        37.6090   -6.6210  -59.5630 C.3    41  ARG41       0.0307
      6  CG        39.0370   -6.4280  -59.0250 C.3    41  ARG41       0.0489
      7  CD        40.0620   -6.2590  -60.1400 C.3    41  ARG41       0.2205
      8  NE        39.6670   -5.2430  -61.1250 N.pl3  41  ARG41      -0.0865
      9  CZ        39.9080   -3.9390  -61.0070 C.cat  41  ARG41       0.5346
     10  NH1       40.5250   -3.4640  -59.9290 N.pl3  41  ARG41       0.1354
     11  NH2       39.5090   -3.0980  -61.9510 N.pl3  41  ARG41       0.1354
     12  N         47.6110  -18.8570  -52.2350 N.3   331  PHE331     -0.1241
     13  CA        48.8340  -18.1010  -52.4860 C.3   331  PHE331      0.1605
     14  C         49.8190  -18.9220  -53.3420 C.2   331  PHE331      0.2264
     15  O         50.2900  -18.4270  -54.3640 O.2   331  PHE331     -0.2867
     16  CB        49.4750  -17.7100  -51.1400 C.3   331  PHE331      0.0534
     17  CG        50.8150  -17.0250  -51.2040 C.ar  331  PHE331     -0.0203
     18  CD1       50.9030  -15.6440  -51.2910 C.ar  331  PHE331     -0.0042
     19  CD2       51.9900  -17.7560  -51.0980 C.ar  331  PHE331     -0.0042
     20  CE1       52.1440  -15.0110  -51.3240 C.ar  331  PHE331     -0.0003
     21  CE2       53.2320  -17.1200  -51.1200 C.ar  331  PHE331     -0.0003
     22  CZ        53.3010  -15.7510  -51.2310 C.ar  331  PHE331     -0.0000
     23  N         50.5290  -18.4810  -57.5640 N.3   335  ILE335     -0.1245
     24  CA        51.9120  -18.2210  -57.9930 C.3   335  ILE335      0.1561
     25  C         52.3010  -19.2320  -59.1060 C.2   335  ILE335      0.2260
     26  O         52.9370  -18.8100  -60.0700 O.2   335  ILE335     -0.2867
     27  CB        52.9220  -18.2450  -56.8130 C.3   335  ILE335      0.0252
     28  CG1       52.6600  -17.0380  -55.8860 C.3   335  ILE335      0.0019
     29  CG2       54.3820  -18.2100  -57.3170 C.3   335  ILE335      0.0019
     30  CD1       53.5340  -16.9410  -54.6540 C.3   335  ILE335      0.0001
     31  N         50.2200  -17.9430  -62.3610 N.3   338  VAL338     -0.1231
     32  CA        50.7640  -16.6870  -62.8820 C.3   338  VAL338      0.1692
     33  C         52.1080  -16.9500  -63.6060 C.2   338  VAL338      0.2591
     34  O         52.2640  -16.4840  -64.7350 O.2   338  VAL338     -0.2718
     35  CB        50.9260  -15.6250  -61.7590 C.3   338  VAL338      0.0266
     36  CG1       51.6850  -14.3940  -62.2470 C.3   338  VAL338      0.0020
     37  CG2       49.5670  -15.2200  -61.1990 C.3   338  VAL338      0.0020
     38  N         53.0450  -17.7200  -62.9880 N.am  339  VAL339     -0.1980
     39  CA        54.3590  -17.9950  -63.5950 C.3   339  VAL339      0.1595
     40  C         54.1700  -18.9000  -64.8370 C.2   339  VAL339      0.2287
     41  O         54.9370  -18.7610  -65.7900 O.2   339  VAL339     -0.2864
     42  CB        55.4260  -18.5960  -62.6260 C.3   339  VAL339      0.0276
     43  CG1       55.7290  -17.6420  -61.4750 C.3   339  VAL339      0.0022
     44  CG2       55.0350  -19.9780  -62.1060 C.3   339  VAL339      0.0022
     45  N         52.6460  -16.5140  -67.6170 N.3   342  LEU342     -0.1245
     46  CA        53.6260  -15.5190  -68.0770 C.3   342  LEU342      0.1561
     47  C         54.6460  -16.1340  -69.0480 C.2   342  LEU342      0.2260
     48  O         54.9070  -15.5320  -70.0980 O.2   342  LEU342     -0.2867
     49  CB        54.3740  -14.8560  -66.9120 C.3   342  LEU342      0.0270
     50  CG        53.6090  -13.8280  -66.0900 C.3   342  LEU342      0.0019
     51  CD1       54.3540  -13.4900  -64.8390 C.3   342  LEU342      0.0001
     52  CD2       53.3280  -12.5660  -66.8950 C.3   342  LEU342      0.0001
     53  N         47.2470   -9.8560  -63.4120 N.3   354  PHE354     -0.1227
     54  CA        48.6100   -9.8210  -62.8940 C.3   354  PHE354      0.1736
     55  C         48.7560   -8.7030  -61.8660 C.2   354  PHE354      0.2595
     56  O         49.4640   -8.8910  -60.8740 O.2   354  PHE354     -0.2718
     57  CB        49.6530   -9.6570  -64.0110 C.3   354  PHE354      0.0547
     58  CG        51.0710   -9.6880  -63.4830 C.ar  354  PHE354     -0.0202
     59  CD1       51.6990  -10.8960  -63.2010 C.ar  354  PHE354     -0.0042
     60  CD2       51.7690   -8.5100  -63.2450 C.ar  354  PHE354     -0.0042
     61  CE1       52.9950  -10.9240  -62.6820 C.ar  354  PHE354     -0.0003
     62  CE2       53.0730   -8.5410  -62.7410 C.ar  354  PHE354     -0.0003
     63  CZ        53.6790   -9.7480  -62.4690 C.ar  354  PHE354     -0.0000
     64  N         48.1210   -7.5370  -62.1020 N.am  355  ARG355     -0.1966
     65  CA        48.1970   -6.4220  -61.1520 C.3   355  ARG355      0.1729
     66  C         47.4210   -6.7560  -59.8580 C.2   355  ARG355      0.2616
     67  O         47.8490   -6.3510  -58.7710 O.2   355  ARG355     -0.2715
     68  CB        47.6800   -5.1130  -61.7580 C.3   355  ARG355      0.0348
     69  CG        48.6160   -4.4690  -62.7870 C.3   355  ARG355      0.0492
     70  CD        48.0840   -3.1070  -63.1960 C.3   355  ARG355      0.2205
     71  NE        46.8360   -3.2170  -63.9520 N.pl3 355  ARG355     -0.0865
     72  CZ        46.7510   -3.0950  -65.2720 C.cat 355  ARG355      0.5346
     73  NH1       47.8170   -2.7480  -65.9840 N.pl3 355  ARG355      0.1354
     74  NH2       45.5830   -3.2350  -65.8820 N.pl3 355  ARG355      0.1354
     75  N         46.3070   -7.5200  -59.9730 N.am  356  LEU356     -0.1963
     76  CA        45.5300   -7.9620  -58.8130 C.3   356  LEU356      0.1728
     77  C         46.3230   -9.0190  -58.0570 C.2   356  LEU356      0.2616
     78  O         46.2550   -9.0600  -56.8290 O.2   356  LEU356     -0.2715
     79  CB        44.1490   -8.4930  -59.2330 C.3   356  LEU356      0.0311
     80  CG        43.1100   -8.7130  -58.1320 C.3   356  LEU356      0.0022
     81  CD1       42.7500   -7.3910  -57.4300 C.3   356  LEU356      0.0001
     82  CD2       41.8510   -9.3190  -58.7070 C.3   356  LEU356      0.0001
     83  N         47.1280   -9.8290  -58.7790 N.am  357  ALA357     -0.1963
     84  CA        48.0040  -10.8230  -58.1620 C.3   357  ALA357      0.1728
     85  C         49.1530  -10.1390  -57.3950 C.2   357  ALA357      0.2616
     86  O         49.5250  -10.6350  -56.3390 O.2   357  ALA357     -0.2715
     87  CB        48.5580  -11.7690  -59.2090 C.3   357  ALA357      0.0334
     88  N         49.6690   -8.9750  -57.8800 N.am  358  LYS358     -0.1963
     89  CA        50.7310   -8.2330  -57.1730 C.3   358  LYS358      0.1728
     90  C         50.2440   -7.6580  -55.8290 C.2   358  LYS358      0.2616
     91  O         51.0680   -7.4370  -54.9480 O.2   358  LYS358     -0.2715
     92  CB        51.3170   -7.0810  -58.0100 C.3   358  LYS358      0.0311
     93  CG        52.2770   -7.5200  -59.1130 C.3   358  LYS358      0.0038
     94  CD        53.0020   -6.3470  -59.8070 C.3   358  LYS358      0.0206
     95  CE        52.1080   -5.4490  -60.6390 C.3   358  LYS358      0.1093
     96  NZ        52.8670   -4.3300  -61.2600 N.3   358  LYS358     -0.1314
     97  N         48.9350   -7.3890  -55.6800 N.am  359  SER359     -0.1950
     98  CA        48.3910   -6.8360  -54.4440 C.3   359  SER359      0.1924
     99  C         47.9090   -7.9260  -53.5200 C.2   359  SER359      0.2314
    100  O         48.2550   -7.9140  -52.3330 O.2   359  SER359     -0.2863
    101  CB        47.2440   -5.8710  -54.7300 C.3   359  SER359      0.2116
    102  OG        47.6980   -4.7020  -55.3850 O.3   359  SER359     -0.2180
    103  N         48.5550  -11.2700  -53.5140 N.3   361  LEU361     -0.1231
    104  CA        49.6340  -12.1670  -53.0650 C.3   361  LEU361      0.1693
    105  C         50.6220  -11.4480  -52.1140 C.2   361  LEU361      0.2592
    106  O         51.4560  -12.1110  -51.5080 O.2   361  LEU361     -0.2718
    107  CB        50.4120  -12.7630  -54.2550 C.3   361  LEU361      0.0284
    108  CG        49.6200  -13.6570  -55.2100 C.3   361  LEU361      0.0019
    109  CD1       50.4320  -13.9870  -56.4170 C.3   361  LEU361      0.0001
    110  CD2       49.1250  -14.9240  -54.5240 C.3   361  LEU361      0.0001
    111  N         50.5240  -10.1160  -51.9810 N.am  362  THR362     -0.1953
    112  CA        51.3610   -9.3470  -51.0580 C.3   362  THR362      0.1897
    113  C         50.7000   -9.3410  -49.6780 C.2   362  THR362      0.2313
    114  O         51.3760   -9.5790  -48.6790 O.2   362  THR362     -0.2863
    115  CB        51.5910   -7.9250  -51.6000 C.3   362  THR362      0.1794
    116  OG1       52.4440   -8.0210  -52.7330 O.3   362  THR362     -0.2208
    117  CG2       52.2460   -7.0110  -50.5900 C.3   362  THR362      0.0378
    118  N         50.5910  -13.0330  -47.2730 N.3   365  PRO365     -0.2102
    119  CA        51.6640  -13.2800  -46.3010 C.3   365  PRO365      0.1504
    120  C         51.9900  -12.0370  -45.4630 C.2   365  PRO365      0.2575
    121  O         52.9920  -12.0390  -44.7520 O.2   365  PRO365     -0.2718
    122  CB        52.8450  -13.6650  -47.1900 C.3   365  PRO365      0.0282
    123  CG        52.6410  -12.8840  -48.4110 C.3   365  PRO365      0.0208
    124  CD        51.1510  -12.8200  -48.6230 C.3   365  PRO365      0.0893
    125  N         51.1760  -10.9730  -45.5570 N.am  366  LEU366     -0.1980
    126  CA        51.4290   -9.7450  -44.8040 C.3   366  LEU366      0.1596
    127  C         50.4200   -9.6150  -43.6690 C.2   366  LEU366      0.2287
    128  O         50.6960   -8.9520  -42.6670 O.2   366  LEU366     -0.2864
    129  CB        51.3620   -8.5300  -45.7490 C.3   366  LEU366      0.0297
    130  CG        51.9540   -7.1980  -45.2740 C.3   366  LEU366      0.0022
    131  CD1       53.4680   -7.3030  -45.0770 C.3   366  LEU366      0.0001
    132  CD2       51.6900   -6.1130  -46.2960 C.3   366  LEU366      0.0001
    133  N         52.1510   -2.4910  -37.3130 N.3   390  PHE390     -0.1241
    134  CA        51.7160   -3.1950  -38.5190 C.3   390  PHE390      0.1605
    135  C         50.2230   -3.5290  -38.4680 C.2   390  PHE390      0.2264
    136  O         49.6110   -3.6500  -39.5290 O.2   390  PHE390     -0.2867
    137  CB        52.5210   -4.4780  -38.7560 C.3   390  PHE390      0.0534
    138  CG        53.8560   -4.2230  -39.4170 C.ar  390  PHE390     -0.0203
    139  CD1       53.9700   -4.2030  -40.8050 C.ar  390  PHE390     -0.0042
    140  CD2       54.9930   -3.9720  -38.6560 C.ar  390  PHE390     -0.0042
    141  CE1       55.1990   -3.9480  -41.4190 C.ar  390  PHE390     -0.0003
    142  CE2       56.2230   -3.7180  -39.2720 C.ar  390  PHE390     -0.0003
    143  CZ        56.3180   -3.7110  -40.6500 C.ar  390  PHE390     -0.0000
    144  N         47.7690    0.0740  -45.9600 N.3   397  MET397     -0.1245
    145  CA        48.4090   -0.8220  -46.9270 C.3   397  MET397      0.1570
    146  C         47.3660   -1.4400  -47.8840 C.2   397  MET397      0.2261
    147  O         47.6450   -1.5760  -49.0760 O.2   397  MET397     -0.2867
    148  CB        49.1740   -1.9290  -46.1810 C.3   397  MET397      0.0387
    149  CG        50.1390   -2.7620  -47.0450 C.3   397  MET397      0.0595
    150  SD        51.7500   -2.0050  -47.4910 S.3   397  MET397     -0.1393
    151  CE        51.2710   -0.8500  -48.8010 C.3   397  MET397      0.0692
    152  N         47.4440   -0.5960  -51.9610 N.3   401  LEU401     -0.1231
    153  CA        47.5610   -1.6830  -52.9340 C.3   401  LEU401      0.1693
    154  C         46.2710   -1.8950  -53.7660 C.2   401  LEU401      0.2592
    155  O         46.3850   -2.3470  -54.9050 O.2   401  LEU401     -0.2718
    156  CB        47.9290   -3.0150  -52.2540 C.3   401  LEU401      0.0284
    157  CG        49.3080   -3.1010  -51.5620 C.3   401  LEU401      0.0019
    158  CD1       49.5290   -4.4750  -51.0000 C.3   401  LEU401      0.0001
    159  CD2       50.4490   -2.7940  -52.5230 C.3   401  LEU401      0.0001
    160  N         45.0690   -1.5890  -53.2300 N.am  402  TYR402     -0.1976
    161  CA        43.8430   -1.8170  -54.0040 C.3   402  TYR402      0.1639
    162  C         43.2020   -0.5170  -54.5270 C.2   402  TYR402      0.2290
    163  O         42.0680   -0.5740  -55.0160 O.2   402  TYR402     -0.2864
    164  CB        42.7780   -2.5800  -53.1940 C.3   402  TYR402      0.0560
    165  CG        43.1060   -4.0340  -52.9420 C.ar  402  TYR402     -0.0198
    166  CD1       43.5120   -4.8650  -53.9830 C.ar  402  TYR402     -0.0009
    167  CD2       42.8070   -4.6310  -51.7230 C.ar  402  TYR402     -0.0009
    168  CE1       43.7680   -6.2170  -53.7730 C.ar  402  TYR402      0.0417
    169  CE2       43.0120   -5.9930  -51.5140 C.ar  402  TYR402      0.0417
    170  CZ        43.5110   -6.7800  -52.5370 C.ar  402  TYR402      0.1957
    171  OH        43.7800   -8.1090  -52.3250 O.3   402  TYR402     -0.2866
    172  N         47.6070    2.5390  -56.0100 N.3   405  VAL405     -0.1231
    173  CA        48.6100    2.0540  -56.9800 C.3   405  VAL405      0.1692
    174  C         47.9010    1.4830  -58.2350 C.2   405  VAL405      0.2592
    175  O         48.5830    1.1360  -59.2060 O.2   405  VAL405     -0.2718
    176  CB        49.6120    1.0070  -56.4080 C.3   405  VAL405      0.0266
    177  CG1       50.4120    1.5760  -55.2430 C.3   405  VAL405      0.0020
    178  CG2       48.9230   -0.2990  -56.0230 C.3   405  VAL405      0.0020
    179  N         46.5490    1.3830  -58.2120 N.am  406  ASN406     -0.1960
    180  CA        45.7640    0.8390  -59.3290 C.3   406  ASN406      0.1819
    181  C         45.9020    1.7320  -60.5610 C.2   406  ASN406      0.2621
    182  O         45.7490    2.9490  -60.4620 O.2   406  ASN406     -0.2715
    183  CB        44.2800    0.6800  -58.9470 C.3   406  ASN406      0.1195
    184  CG        43.4070   -0.0020  -59.9880 C.2   406  ASN406      0.2630
    185  OD1       42.2300    0.3310  -60.1600 O.2   406  ASN406     -0.2716
    186  ND2       43.9580   -0.9610  -60.7150 N.am  406  ASN406     -0.0877
    187  N         46.2150    1.1240  -61.7140 N.am  407  ASN407     -0.1972
    188  CA        46.3980    1.8490  -62.9690 C.3   407  ASN407      0.1688
    189  C         45.0580    2.3710  -63.5070 C.2   407  ASN407      0.2292
    190  O         45.0340    3.4340  -64.1270 O.2   407  ASN407     -0.2864
    191  CB        47.0740    0.9610  -64.0250 C.3   407  ASN407      0.1181
    192  CG        48.4850    0.4780  -63.7050 C.2   407  ASN407      0.2629
    193  OD1       49.1500   -0.1190  -64.5570 O.2   407  ASN407     -0.2716
    194  ND2       48.9940    0.7280  -62.4950 N.am  407  ASN407     -0.0877
@<TRIPOS>BOND
     1    48    47    2
     2    47    46    1
     3    46    45    1
     4    46    49    1
     5    49    50    1
     6    52    50    1
     7    50    51    1
     8    73    72    1
     9    74    72    1
    10    41    40    2
    11    72    71    2
    12    40    39    1
    13    34    33    2
    14   193   192    2
    15   190   189    2
    16   191   192    1
    17   191   188    1
    18    57    58    1
    19    57    54    1
    20    71    70    1
    21   192   194   am
    22    33    38   am
    23    33    32    1
    24    39    38    1
    25    39    42    1
    26   189   188    1
    27    58    60   ar
    28    58    59   ar
    29    53    54    1
    30    60    62   ar
    31    59    61   ar
    32    70    69    1
    33   188   187    1
    34    54    55    1
    35    32    31    1
    36    32    35    1
    37    69    68    1
    38    62    63   ar
    39    61    63   ar
    40    42    44    1
    41    42    43    1
    42    36    35    1
    43    64    55   am
    44    64    65    1
    45    11     9    1
    46    55    56    2
    47    35    37    1
    48    68    65    1
    49   187   181   am
    50    96    95    1
    51    65    66    1
    52     8     9    2
    53     8     7    1
    54     9    10    1
    55   186   184   am
    56    95    94    1
    57   181   182    2
    58   181   180    1
    59   185   184    2
    60     7     6    1
    61    26    25    2
    62   184   183    1
    63    75    66   am
    64    75    76    1
    65    66    67    2
    66    94    93    1
    67     5     6    1
    68     5     2    1
    69   180   183    1
    70   180   179    1
    71    79    76    1
    72    79    80    1
    73    87    84    1
    74   175   174    2
    75    93    92    1
    76    25    24    1
    77     1     2    1
    78    76    77    1
    79    83    84    1
    80    83    77   am
    81    82    80    1
    82     2     3    1
    83   174   179   am
    84   174   173    1
    85    84    85    1
    86    80    81    1
    87    77    78    2
    88    92    89    1
    89    24    23    1
    90    24    27    1
    91    88    85   am
    92    88    89    1
    93     3     4    2
    94    85    86    2
    95    29    27    1
    96    89    90    1
    97   173   176    1
    98   173   172    1
    99    27    28    1
   100   109   108    1
   101   176   178    1
   102   176   177    1
   103    28    30    1
   104    90    97   am
   105    90    91    2
   106    97    98    1
   107   102   101    1
   108   108   110    1
   109   108   107    1
   110   163   162    2
   111   155   154    2
   112   101    98    1
   113   162   161    1
   114    98    99    1
   115    15    14    2
   116   107   104    1
   117   161   160    1
   118   161   164    1
   119   166   168   ar
   120   166   165   ar
   121   168   170   ar
   122   154   160   am
   123   154   153    1
   124    99   100    2
   125   103   104    1
   126    14    13    1
   127   164   165    1
   128   104   105    1
   129   165   167   ar
   130   153   156    1
   131   153   152    1
   132   116   115    1
   133   170   171    1
   134   170   169   ar
   135   159   157    1
   136    13    12    1
   137    13    16    1
   138   156   157    1
   139   105   111   am
   140   105   106    2
   141   111   112    1
   142   167   169   ar
   143   115   112    1
   144   115   117    1
   145   157   158    1
   146    20    18   ar
   147    20    22   ar
   148    18    17   ar
   149    22    21   ar
   150    17    16    1
   151    17    19   ar
   152    21    19   ar
   153   112   113    1
   154   113   114    2
   155   147   146    2
   156   151   150    1
   157   124   123    1
   158   124   118    1
   159   123   122    1
   160   146   145    1
   161   150   149    1
   162   118   119    1
   163   122   119    1
   164   149   148    1
   165   145   148    1
   166   145   144    1
   167   119   120    1
   168   132   130    1
   169   129   130    1
   170   129   126    1
   171   125   120   am
   172   125   126    1
   173   120   121    2
   174   130   131    1
   175   126   127    1
   176   127   128    2
   177   141   139   ar
   178   141   143   ar
   179   139   138   ar
   180   143   142   ar
   181   136   135    2
   182   138   137    1
   183   138   140   ar
   184   142   140   ar
   185   137   134    1
   186   134   135    1
   187   134   133    1
