@<TRIPOS>MOLECULE
tmp/5vfcA00.pdb
 215 210 0 0 0
SMALL
GASTEIGER

@<TRIPOS>ATOM
      1  N         11.6730  -10.0270   22.3150 N.3    17  ALA17      -0.1231
      2  CA        12.2190   -8.6770   22.1620 C.3    17  ALA17       0.1694
      3  C         12.9360   -8.4870   20.8210 C.2    17  ALA17       0.2592
      4  O         13.7080   -9.3590   20.3890 O.2    17  ALA17      -0.2718
      5  CB        13.2150   -8.4230   23.2790 C.3    17  ALA17       0.0304
      6  N         12.7240   -7.3250   20.1900 N.am   18  VAL18      -0.1966
      7  CA        13.4510   -7.0050   18.9580 C.3    18  VAL18       0.1727
      8  C         14.7790   -6.3740   19.4470 C.2    18  VAL18       0.2616
      9  O         14.7790   -5.7180   20.4990 O.2    18  VAL18      -0.2715
     10  CB        12.6690   -6.0190   18.0490 C.3    18  VAL18       0.0290
     11  CG1       13.4690   -5.6840   16.7900 C.3    18  VAL18       0.0023
     12  CG2       11.3000   -6.5880   17.6670 C.3    18  VAL18       0.0023
     13  N         15.9010   -6.6040   18.7430 N.am   19  SER19      -0.1950
     14  CA        17.1850   -6.0490   19.1810 C.3    19  SER19       0.1924
     15  C         17.7410   -4.9330   18.2950 C.2    19  SER19       0.2314
     16  O         18.4510   -4.0610   18.7850 O.2    19  SER19      -0.2863
     17  CB        18.2310   -7.1600   19.2590 C.3    19  SER19       0.2116
     18  OG        18.3150   -7.8150   17.9960 O.3    19  SER19      -0.2180
     19  N         15.7300  -11.4350   19.7780 N.3    35  ALA35      -0.1245
     20  CA        16.1050  -12.4920   20.7190 C.3    35  ALA35       0.1562
     21  C         15.4420  -13.8470   20.2920 C.2    35  ALA35       0.2260
     22  O         15.8350  -14.8940   20.8050 O.2    35  ALA35      -0.2867
     23  CB        15.6390  -12.1200   22.1300 C.3    35  ALA35       0.0290
     24  N         19.7500  -16.0640   20.2830 N.3    59  GLY59      -0.1210
     25  CA        19.2870  -14.7240   19.9230 C.3    59  GLY59       0.1956
     26  C         20.3090  -13.8810   19.1930 C.2    59  GLY59       0.2612
     27  O         21.5160  -14.0810   19.3440 O.2    59  GLY59      -0.2717
     28  N         19.8150  -12.9020   18.4230 N.am   60  ILE60      -0.1965
     29  CA        20.6410  -12.0230   17.6110 C.3    60  ILE60       0.1727
     30  C         20.5830  -10.6260   18.2100 C.2    60  ILE60       0.2617
     31  O         19.4850  -10.1200   18.4590 O.2    60  ILE60      -0.2715
     32  CB        20.0880  -12.0080   16.1610 C.3    60  ILE60       0.0290
     33  CG1       20.1100  -13.4350   15.5580 C.3    60  ILE60       0.0022
     34  CG2       20.9400  -11.0660   15.2900 C.3    60  ILE60       0.0023
     35  CD1       19.2850  -13.5650   14.2910 C.3    60  ILE60       0.0001
     36  N         21.7470  -10.0190   18.4520 N.am   61  SER61      -0.1936
     37  CA        21.8300   -8.6480   19.0020 C.3    61  SER61       0.2055
     38  C         21.9630   -7.5260   17.9610 C.2    61  SER61       0.2643
     39  O         21.7720   -6.3510   18.3060 O.2    61  SER61      -0.2714
     40  CB        22.9960   -8.5230   19.9820 C.3    61  SER61       0.2130
     41  OG        22.6870   -9.2100   21.1900 O.3    61  SER61      -0.2179
     42  N         22.3310   -7.8540   16.7030 N.am   62  ASP62      -0.1971
     43  CA        22.4930   -6.8070   15.7060 C.3    62  ASP62       0.1709
     44  C         22.4370   -7.4000   14.3310 C.2    62  ASP62       0.2293
     45  O         22.6920   -8.5930   14.1440 O.2    62  ASP62      -0.2864
     46  CB        23.8570   -6.1180   15.9040 C.3    62  ASP62       0.1436
     47  CG        23.9780   -4.7170   15.3130 C.2    62  ASP62       0.3671
     48  OD1       22.9340   -4.1620   14.8280 O.co2  62  ASP62      -0.2456
     49  OD2       25.0900   -4.1550   15.3670 O.co2  62  ASP62      -0.2456
     50  N         24.3320  -14.3950   20.0930 N.3    77  ASP77      -0.1239
     51  CA        24.8010  -14.9700   21.3470 C.3    77  ASP77       0.1674
     52  C         25.4640  -16.3450   21.0970 C.2    77  ASP77       0.2266
     53  O         26.1740  -16.8190   21.9720 O.2    77  ASP77      -0.2867
     54  CB        23.6090  -15.1970   22.2730 C.3    77  ASP77       0.1410
     55  CG        23.1440  -14.0020   23.0610 C.2    77  ASP77       0.3668
     56  OD1       23.6120  -12.8550   22.7660 O.co2  77  ASP77      -0.2456
     57  OD2       22.2750  -14.1880   23.9530 O.co2  77  ASP77      -0.2456
     58  N         29.4350  -13.8490   23.2730 N.3   101  TYR101     -0.1227
     59  CA        28.3960  -13.2560   22.4280 C.3   101  TYR101      0.1736
     60  C         28.9210  -12.2460   21.4360 C.2   101  TYR101      0.2595
     61  O         29.7460  -11.4010   21.8210 O.2   101  TYR101     -0.2718
     62  CB        27.3630  -12.5110   23.2800 C.3   101  TYR101      0.0548
     63  CG        26.9070  -13.1790   24.5460 C.ar  101  TYR101     -0.0200
     64  CD1       26.5330  -14.5250   24.5550 C.ar  101  TYR101     -0.0009
     65  CD2       26.7110  -12.4390   25.7100 C.ar  101  TYR101     -0.0009
     66  CE1       26.0460  -15.1320   25.7130 C.ar  101  TYR101      0.0417
     67  CE2       26.2020  -13.0310   26.8660 C.ar  101  TYR101      0.0417
     68  CZ        25.8810  -14.3750   26.8630 C.ar  101  TYR101      0.1957
     69  OH        25.4020  -14.9790   27.9920 O.3   101  TYR101     -0.2866
     70  N         28.4270  -12.2850   20.1860 N.am  102  VAL102     -0.1966
     71  CA        28.7800  -11.2310   19.2390 C.3   102  VAL102      0.1727
     72  C         27.6400  -10.2210   19.4100 C.2   102  VAL102      0.2616
     73  O         26.4550  -10.5890   19.3530 O.2   102  VAL102     -0.2715
     74  CB        28.9480  -11.6860   17.7770 C.3   102  VAL102      0.0290
     75  CG1       29.6250  -10.5740   16.9700 C.3   102  VAL102      0.0023
     76  CG2       29.7770  -12.9720   17.7120 C.3   102  VAL102      0.0023
     77  N         28.0060   -8.9580   19.6310 N.am  103  PHE103     -0.1960
     78  CA        27.0310   -7.9420   20.0070 C.3   103  PHE103      0.1771
     79  C         26.7100   -6.9200   18.9460 C.2   103  PHE103      0.2619
     80  O         25.6200   -6.3390   18.9590 O.2   103  PHE103     -0.2715
     81  CB        27.6320   -7.2010   21.2070 C.3   103  PHE103      0.0574
     82  CG        26.6340   -6.4090   22.0070 C.ar  103  PHE103     -0.0200
     83  CD1       25.8180   -7.0380   22.9440 C.ar  103  PHE103     -0.0042
     84  CD2       26.5210   -5.0390   21.8420 C.ar  103  PHE103     -0.0042
     85  CE1       24.9360   -6.2980   23.7380 C.ar  103  PHE103     -0.0003
     86  CE2       25.5860   -4.3040   22.5950 C.ar  103  PHE103     -0.0003
     87  CZ        24.8070   -4.9360   23.5420 C.ar  103  PHE103     -0.0000
     88  N         27.6860   -6.6170   18.0910 N.am  104  CYS104     -0.1968
     89  CA        27.5620   -5.5510   17.1230 C.3   104  CYS104      0.1712
     90  C         28.2830   -5.9130   15.8490 C.2   104  CYS104      0.2296
     91  O         29.2800   -6.6180   15.8990 O.2   104  CYS104     -0.2864
     92  CB        28.1030   -4.2440   17.7090 C.3   104  CYS104      0.0983
     93  SG        29.7090   -4.3970   18.5320 S.3   104  CYS104     -0.0798
     94  N         31.3170   -9.6870   23.4990 N.3   119  PHE119     -0.1241
     95  CA        31.4780   -9.7520   24.9530 C.3   119  PHE119      0.1605
     96  C         32.8510  -10.3420   25.3060 C.2   119  PHE119      0.2264
     97  O         33.2800  -10.2290   26.4620 O.2   119  PHE119     -0.2867
     98  CB        30.3450  -10.5700   25.5840 C.3   119  PHE119      0.0534
     99  CG        29.2290   -9.7210   26.1400 C.ar  119  PHE119     -0.0203
    100  CD1       28.8250   -9.8610   27.4660 C.ar  119  PHE119     -0.0042
    101  CD2       28.5490   -8.8050   25.3310 C.ar  119  PHE119     -0.0042
    102  CE1       27.7640   -9.1030   27.9720 C.ar  119  PHE119     -0.0003
    103  CE2       27.5200   -8.0110   25.8590 C.ar  119  PHE119     -0.0003
    104  CZ        27.1320   -8.1800   27.1700 C.ar  119  PHE119     -0.0000
    105  N         30.4020   -2.6400   22.8650 N.3   145  SER145     -0.1202
    106  CA        28.9880   -2.3280   22.6030 C.3   145  SER145      0.2020
    107  C         28.6680   -1.9080   21.1740 C.2   145  SER145      0.2618
    108  O         27.5180   -2.0380   20.7530 O.2   145  SER145     -0.2717
    109  CB        28.5190   -1.2580   23.5860 C.3   145  SER145      0.2103
    110  OG        29.3910   -0.1320   23.5170 O.3   145  SER145     -0.2182
    111  N         29.6330   -1.3260   20.4390 N.am  146  ALA146     -0.1979
    112  CA        29.3820   -0.8990   19.0660 C.3   146  ALA146      0.1597
    113  C         30.6560   -0.8230   18.2950 C.2   146  ALA146      0.2287
    114  O         31.7340   -0.6110   18.8750 O.2   146  ALA146     -0.2864
    115  CB        28.6900    0.4780   19.0580 C.3   146  ALA146      0.0319
    116  N         31.8640   -1.0520   27.4810 N.3   161  TYR161     -0.1241
    117  CA        31.5220   -0.9180   28.8970 C.3   161  TYR161      0.1605
    118  C         32.7170   -0.4490   29.7180 C.2   161  TYR161      0.2264
    119  O         32.5220   -0.0110   30.8440 O.2   161  TYR161     -0.2867
    120  CB        31.0420   -2.2730   29.4220 C.3   161  TYR161      0.0534
    121  CG        29.5530   -2.4680   29.2460 C.ar  161  TYR161     -0.0201
    122  CD1       29.0330   -2.9920   28.0690 C.ar  161  TYR161     -0.0009
    123  CD2       28.6670   -2.1660   30.2750 C.ar  161  TYR161     -0.0009
    124  CE1       27.6540   -3.1950   27.9100 C.ar  161  TYR161      0.0417
    125  CE2       27.2930   -2.3320   30.1160 C.ar  161  TYR161      0.0417
    126  CZ        26.7910   -2.8360   28.9310 C.ar  161  TYR161      0.1957
    127  OH        25.4320   -3.0330   28.8160 O.3   161  TYR161     -0.2866
    128  N         27.7590    2.8480   25.6750 N.3   188  SER188     -0.1202
    129  CA        26.8010    1.8590   25.2040 C.3   188  SER188      0.2020
    130  C         26.5350    1.8660   23.7020 C.2   188  SER188      0.2618
    131  O         25.8910    0.9360   23.1790 O.2   188  SER188     -0.2717
    132  CB        25.5030    2.0560   25.9670 C.3   188  SER188      0.2103
    133  OG        25.0830    3.4130   25.8820 O.3   188  SER188     -0.2182
    134  N         27.0270    2.8980   23.0030 N.am  189  PHE189     -0.1975
    135  CA        26.8530    2.9890   21.5480 C.3   189  PHE189      0.1639
    136  C         27.7490    4.0380   21.0050 C.2   189  PHE189      0.2290
    137  O         28.0050    5.0290   21.6800 O.2   189  PHE189     -0.2864
    138  CB        25.3760    3.3430   21.1860 C.3   189  PHE189      0.0560
    139  CG        25.1350    3.3990   19.6970 C.ar  189  PHE189     -0.0200
    140  CD1       25.1130    2.2380   18.9390 C.ar  189  PHE189     -0.0042
    141  CD2       25.0810    4.6230   19.0300 C.ar  189  PHE189     -0.0042
    142  CE1       25.0130    2.2980   17.5350 C.ar  189  PHE189     -0.0003
    143  CE2       24.9720    4.6760   17.6230 C.ar  189  PHE189     -0.0003
    144  CZ        24.9310    3.5190   16.9040 C.ar  189  PHE189     -0.0000
    145  N         20.9210    1.2430   31.4100 N.3   229  LYS229     -0.1231
    146  CA        21.0280   -0.2040   31.4460 C.3   229  LYS229      0.1693
    147  C         21.2760   -0.8670   30.0910 C.2   229  LYS229      0.2592
    148  O         22.0410   -1.8370   30.0140 O.2   229  LYS229     -0.2718
    149  CB        19.7480   -0.7850   32.0760 C.3   229  LYS229      0.0285
    150  CG        19.8610   -2.2600   32.3450 C.3   229  LYS229      0.0035
    151  CD        18.9300   -2.7610   33.4710 C.3   229  LYS229      0.0206
    152  CE        17.5390   -3.0700   32.9690 C.3   229  LYS229      0.1093
    153  NZ        16.5950   -3.5040   34.0490 N.3   229  LYS229     -0.1314
    154  N         20.5320   -0.4460   29.0720 N.am  230  TYR230     -0.1962
    155  CA        20.6120   -1.1040   27.7590 C.3   230  TYR230      0.1771
    156  C         21.4570   -0.3710   26.7460 C.2   230  TYR230      0.2620
    157  O         21.5850    0.8620   26.7900 O.2   230  TYR230     -0.2715
    158  CB        19.1830   -1.2510   27.1790 C.3   230  TYR230      0.0574
    159  CG        18.3130   -2.1720   27.9900 C.ar  230  TYR230     -0.0198
    160  CD1       18.4170   -3.5610   27.8570 C.ar  230  TYR230     -0.0009
    161  CD2       17.3990   -1.6680   28.9100 C.ar  230  TYR230     -0.0009
    162  CE1       17.6190   -4.4190   28.6170 C.ar  230  TYR230      0.0417
    163  CE2       16.5700   -2.5140   29.6440 C.ar  230  TYR230      0.0417
    164  CZ        16.7200   -3.8910   29.5340 C.ar  230  TYR230      0.1957
    165  OH        15.9150   -4.7470   30.2590 O.3   230  TYR230     -0.2866
    166  N         22.0200   -1.1320   25.7790 N.am  231  CYS231     -0.1954
    167  CA        22.7990   -0.5280   24.7030 C.3   231  CYS231      0.1843
    168  C         21.8360   -0.1640   23.5750 C.2   231  CYS231      0.2625
    169  O         21.4310   -0.9950   22.7580 O.2   231  CYS231     -0.2714
    170  CB        23.8840   -1.4840   24.2470 C.3   231  CYS231      0.0997
    171  SG        25.1780   -1.6990   25.4910 S.3   231  CYS231     -0.0797
    172  N         21.4230    1.0920   23.5960 N.am  232  ILE232     -0.1963
    173  CA        20.4340    1.6620   22.6720 C.3   232  ILE232      0.1727
    174  C         21.1070    2.3680   21.5260 C.2   232  ILE232      0.2616
    175  O         22.0000    3.1940   21.7190 O.2   232  ILE232     -0.2715
    176  CB        19.4990    2.6230   23.4590 C.3   232  ILE232      0.0290
    177  CG1       18.7470    1.8580   24.5780 C.3   232  ILE232      0.0022
    178  CG2       18.5130    3.3530   22.5530 C.3   232  ILE232      0.0023
    179  CD1       17.7950    2.7170   25.4720 C.3   232  ILE232      0.0001
    180  N         20.6330    2.0780   20.3220 N.am  233  PHE233     -0.1974
    181  CA        21.1540    2.6960   19.1170 C.3   233  PHE233      0.1639
    182  C         20.7360    4.1630   19.0550 C.2   233  PHE233      0.2290
    183  O         19.6560    4.5340   19.5110 O.2   233  PHE233     -0.2864
    184  CB        20.5700    1.9940   17.8720 C.3   233  PHE233      0.0560
    185  CG        21.0750    0.5970   17.6330 C.ar  233  PHE233     -0.0200
    186  CD1       22.1690    0.3660   16.7960 C.ar  233  PHE233     -0.0042
    187  CD2       20.4460   -0.4980   18.2200 C.ar  233  PHE233     -0.0042
    188  CE1       22.6130   -0.9360   16.5510 C.ar  233  PHE233     -0.0003
    189  CE2       20.9090   -1.7980   17.9960 C.ar  233  PHE233     -0.0003
    190  CZ        21.9970   -2.0070   17.1650 C.ar  233  PHE233     -0.0000
    191  N         14.8060   -0.0320   22.1580 N.3   275  ILE275     -0.1245
    192  CA        16.2250   -0.4150   22.0940 C.3   275  ILE275      0.1561
    193  C         16.9080    0.0330   20.8200 C.2   275  ILE275      0.2260
    194  O         18.1310    0.1430   20.7770 O.2   275  ILE275     -0.2867
    195  CB        16.2920   -1.9790   22.2150 C.3   275  ILE275      0.0252
    196  CG1       17.7360   -2.5000   22.4300 C.3   275  ILE275      0.0019
    197  CG2       15.6480   -2.6810   20.9890 C.3   275  ILE275      0.0019
    198  CD1       18.3230   -2.1820   23.7980 C.3   275  ILE275      0.0001
    199  N         11.5260   -3.8400   23.4680 N.3   291  LEU291     -0.1231
    200  CA        11.8600   -5.0600   24.1780 C.3   291  LEU291      0.1693
    201  C         10.6490   -5.9550   24.5120 C.2   291  LEU291      0.2591
    202  O          9.6290   -5.8660   23.8340 O.2   291  LEU291     -0.2718
    203  CB        12.7360   -4.7440   25.3870 C.3   291  LEU291      0.0284
    204  CG        14.0790   -4.0800   25.0790 C.3   291  LEU291      0.0019
    205  CD1       14.8730   -3.9400   26.3710 C.3   291  LEU291      0.0001
    206  CD2       14.9030   -4.8700   24.0200 C.3   291  LEU291      0.0001
    207  N         10.8140   -6.8900   25.4740 N.am  292  GLU292     -0.1979
    208  CA         9.9520   -8.0470   25.6960 C.3   292  GLU292      0.1602
    209  C          8.4540   -7.7510   25.9220 C.2   292  GLU292      0.2287
    210  O          7.6330   -8.5940   25.5270 O.2   292  GLU292     -0.2864
    211  CB        10.5210   -8.9460   26.7980 C.3   292  GLU292      0.0415
    212  CG        10.4100   -8.4000   28.2120 C.3   292  GLU292      0.1163
    213  CD        11.6360   -7.7110   28.7830 C.2   292  GLU292      0.3649
    214  OE1       12.2940   -6.9240   28.0600 O.co2 292  GLU292     -0.2457
    215  OE2       11.9100   -7.9350   29.9840 O.co2 292  GLU292     -0.2457
@<TRIPOS>BOND
     1    45    44    2
     2    35    33    1
     3    44    43    1
     4    48    47   ar
     5    34    32    1
     6    47    49   ar
     7    47    46    1
     8    33    32    1
     9    43    46    1
    10    43    42    1
    11    90    91    2
    12    90    89    1
    13    32    29    1
    14   188   186   ar
    15   188   190   ar
    16    42    38   am
    17    11    10    1
    18   186   185   ar
    19   144   142   ar
    20   144   143   ar
    21    75    74    1
    22    89    92    1
    23    89    88    1
    24   190   189   ar
    25   142   140   ar
    26    29    30    1
    27    29    28    1
    28   143   141   ar
    29   185   184    1
    30   185   187   ar
    31    12    10    1
    32    92    93    1
    33    76    74    1
    34    74    71    1
    35   184   181    1
    36    38    39    2
    37    38    37    1
    38    18    17    1
    39   189   187   ar
    40    10     7    1
    41    88    79   am
    42    30    36   am
    43    30    31    2
    44   113   114    2
    45   113   112    1
    46    15    16    2
    47    15    14    1
    48    28    26   am
    49    36    37    1
    50    13    14    1
    51    13     8   am
    52   140   139   ar
    53    79    80    2
    54    79    78    1
    55     7     8    1
    56     7     6    1
    57    37    40    1
    58   141   139   ar
    59   182   181    1
    60   182   183    2
    61   115   112    1
    62   112   111    1
    63   181   180    1
    64    14    17    1
    65    26    27    2
    66    26    25    1
    67    71    72    1
    68    71    70    1
    69    73    72    2
    70    72    77   am
    71     8     9    2
    72    77    78    1
    73   139   138    1
    74    19    20    1
    75    25    24    1
    76    40    41    1
    77    78    81    1
    78    50    51    1
    79    70    60   am
    80     6     3   am
    81    21    20    1
    82    21    22    2
    83   180   174   am
    84     4     3    2
    85   111   107   am
    86    20    23    1
    87   108   107    2
    88   194   193    2
    89   193   192    1
    90     3     2    1
    91   197   195    1
    92   136   135    1
    93   136   137    2
    94    52    51    1
    95    52    53    2
    96   107   106    1
    97   138   135    1
    98    81    82    1
    99    51    54    1
   100    60    61    2
   101    60    59    1
   102   174   175    2
   103   174   173    1
   104   135   134    1
   105    84    82   ar
   106    84    86   ar
   107    82    83   ar
   108   192   191    1
   109   192   195    1
   110     2     1    1
   111     2     5    1
   112   195   196    1
   113    54    55    1
   114    59    58    1
   115    59    62    1
   116   196   198    1
   117   178   176    1
   118    86    87   ar
   119   106   105    1
   120   106   109    1
   121   173   176    1
   122   173   172    1
   123   169   168    2
   124    56    55   ar
   125    83    85   ar
   126   134   130   am
   127    55    57   ar
   128   131   130    2
   129    62    63    1
   130   176   177    1
   131   199   200    1
   132    94    95    1
   133   110   109    1
   134    87    85   ar
   135   168   172   am
   136   168   167    1
   137   130   129    1
   138   202   201    2
   139   206   204    1
   140   200   201    1
   141   200   203    1
   142   170   167    1
   143   170   171    1
   144   201   207   am
   145    63    64   ar
   146    63    65   ar
   147    64    66   ar
   148   177   179    1
   149   167   166    1
   150    95    96    1
   151    95    98    1
   152   204   203    1
   153   204   205    1
   154   129   128    1
   155   129   132    1
   156    96    97    2
   157   101   103   ar
   158   101    99   ar
   159   207   208    1
   160   210   209    2
   161    98    99    1
   162   208   209    1
   163   208   211    1
   164    65    67   ar
   165    66    68   ar
   166   166   156   am
   167   103   104   ar
   168   133   132    1
   169    99   100   ar
   170   156   157    2
   171   156   155    1
   172   211   212    1
   173    68    67   ar
   174    68    69    1
   175   104   102   ar
   176   158   155    1
   177   158   159    1
   178   100   102   ar
   179   116   117    1
   180   155   154    1
   181   160   159   ar
   182   160   162   ar
   183   124   122   ar
   184   124   126   ar
   185   159   161   ar
   186   214   213   ar
   187   122   121   ar
   188   212   213    1
   189   162   164   ar
   190   213   215   ar
   191   127   126    1
   192   117   120    1
   193   117   118    1
   194   161   163   ar
   195   126   125   ar
   196   154   147   am
   197   121   120    1
   198   121   123   ar
   199   164   163   ar
   200   164   165    1
   201   118   119    2
   202   148   147    2
   203   147   146    1
   204   125   123   ar
   205   145   146    1
   206   146   149    1
   207   149   150    1
   208   150   151    1
   209   152   151    1
   210   152   153    1
