@<TRIPOS>MOLECULE
tmp/5vfdA00.pdb
 126 123 0 0 0
SMALL
GASTEIGER

@<TRIPOS>ATOM
      1  N        -26.2460   -3.3800    3.8900 N.3    49  ALA49      -0.1231
      2  CA       -27.0910   -2.3830    4.5570 C.3    49  ALA49       0.1694
      3  C        -26.4560   -2.0590    5.9320 C.2    49  ALA49       0.2592
      4  O        -25.2250   -1.9550    5.9880 O.2    49  ALA49      -0.2718
      5  CB       -28.5440   -2.8670    4.6650 C.3    49  ALA49       0.0304
      6  N        -27.2450   -1.9630    7.0220 N.am   50  SER50      -0.1952
      7  CA       -26.7610   -1.5950    8.3650 C.3    50  SER50       0.1924
      8  C        -25.8020   -2.5700    9.0230 C.2    50  SER50       0.2314
      9  O        -25.1860   -2.1930   10.0190 O.2    50  SER50      -0.2863
     10  CB       -27.9220   -1.3270    9.3070 C.3    50  SER50       0.2116
     11  OG       -28.6560   -0.2000    8.8570 O.3    50  SER50      -0.2180
     12  N        -36.8360    8.9580   11.6490 N.3    80  TYR80      -0.1241
     13  CA       -37.2650    8.4530   12.9600 C.3    80  TYR80       0.1605
     14  C        -36.9360    9.4210   14.0970 C.2    80  TYR80       0.2264
     15  O        -35.7910    9.8830   14.1890 O.2    80  TYR80      -0.2867
     16  CB       -36.6570    7.0640   13.2310 C.3    80  TYR80       0.0534
     17  CG       -36.8900    6.0830   12.1020 C.ar   80  TYR80      -0.0201
     18  CD1      -38.0900    5.3830   11.9960 C.ar   80  TYR80      -0.0009
     19  CD2      -35.9320    5.8910   11.1100 C.ar   80  TYR80      -0.0009
     20  CE1      -38.3220    4.4980   10.9420 C.ar   80  TYR80       0.0417
     21  CE2      -36.1570    5.0160   10.0470 C.ar   80  TYR80       0.0417
     22  CZ       -37.3460    4.3070    9.9770 C.ar   80  TYR80       0.1957
     23  OH       -37.5680    3.4260    8.9420 O.3    80  TYR80      -0.2866
     24  N        -33.7480    9.2660   16.2510 N.3    83  TRP83      -0.1241
     25  CA       -32.4770    9.6380   15.6120 C.3    83  TRP83       0.1605
     26  C        -32.2240   11.1290   15.7510 C.2    83  TRP83       0.2264
     27  O        -31.1230   11.5940   15.4600 O.2    83  TRP83      -0.2867
     28  CB       -32.4660    9.2580   14.1270 C.3    83  TRP83       0.0550
     29  CG       -32.4430    7.7870   13.8380 C.ar   83  TRP83       0.0003
     30  CD1      -32.5040    6.7620   14.7360 C.ar   83  TRP83       0.0946
     31  CD2      -32.4230    7.1860   12.5380 C.ar   83  TRP83       0.0152
     32  NE1      -32.5350    5.5550   14.0730 N.ar   83  TRP83      -0.2442
     33  CE2      -32.4670    5.7850   12.7220 C.ar   83  TRP83       0.0810
     34  CE3      -32.3620    7.6970   11.2260 C.ar   83  TRP83       0.0012
     35  CZ2      -32.4470    4.8870   11.6480 C.ar   83  TRP83       0.0191
     36  CZ3      -32.3350    6.8020   10.1630 C.ar   83  TRP83       0.0001
     37  CH2      -32.3670    5.4180   10.3800 C.ar   83  TRP83       0.0015
     38  N        -29.4740    1.9380   17.9480 N.3    95  LEU95      -0.1231
     39  CA       -30.5880    2.5850   17.2710 C.3    95  LEU95       0.1693
     40  C        -30.4820    2.4780   15.7670 C.2    95  LEU95       0.2592
     41  O        -31.4180    2.8580   15.0560 O.2    95  LEU95      -0.2718
     42  CB       -30.6690    4.0630   17.6970 C.3    95  LEU95       0.0284
     43  CG       -31.1170    4.3240   19.1340 C.3    95  LEU95       0.0019
     44  CD1      -30.9990    5.7900   19.4620 C.3    95  LEU95       0.0001
     45  CD2      -32.5480    3.8560   19.3660 C.3    95  LEU95       0.0001
     46  N        -29.3440    1.9420   15.2770 N.am   96  SER96      -0.1952
     47  CA       -29.0020    1.8050   13.8570 C.3    96  SER96       0.1924
     48  C        -29.1950    3.1620   13.1260 C.2    96  SER96       0.2314
     49  O        -29.7510    3.2180   12.0250 O.2    96  SER96      -0.2863
     50  CB       -29.7800    0.6550   13.2160 C.3    96  SER96       0.2116
     51  OG       -29.1970    0.2720   11.9820 O.3    96  SER96      -0.2180
     52  N        -28.3610    5.7910   10.8770 N.3    98  VAL98      -0.1245
     53  CA       -27.5990    5.9970    9.6340 C.3    98  VAL98       0.1561
     54  C        -26.8310    7.3350    9.6170 C.2    98  VAL98       0.2260
     55  O        -25.6630    7.3120    9.2330 O.2    98  VAL98      -0.2867
     56  CB       -28.4780    5.8740    8.3460 C.3    98  VAL98       0.0252
     57  CG1      -27.6280    5.9440    7.0710 C.3    98  VAL98       0.0019
     58  CG2      -29.3040    4.6090    8.3560 C.3    98  VAL98       0.0019
     59  N        -25.4530    0.8210    1.3770 N.3   136  LEU136     -0.1245
     60  CA       -26.9120    0.8870    1.3600 C.3   136  LEU136      0.1561
     61  C        -27.5220    0.5930    0.0000 C.2   136  LEU136      0.2260
     62  O        -28.5750   -0.0420   -0.0600 O.2   136  LEU136     -0.2867
     63  CB       -27.3880    2.2780    1.8420 C.3   136  LEU136      0.0270
     64  CG       -26.9820    2.7070    3.2570 C.3   136  LEU136      0.0019
     65  CD1      -27.1770    4.2020    3.4460 C.3   136  LEU136      0.0001
     66  CD2      -27.7380    1.9070    4.3350 C.3   136  LEU136      0.0001
     67  N        -25.9480   -7.4870   14.7410 N.3   186  LYS186     -0.1231
     68  CA       -26.3520   -6.2530   14.0820 C.3   186  LYS186      0.1693
     69  C        -27.3300   -6.6270   12.9970 C.2   186  LYS186      0.2593
     70  O        -27.0470   -7.4980   12.1740 O.2   186  LYS186     -0.2718
     71  CB       -25.1550   -5.4770   13.4900 C.3   186  LYS186      0.0285
     72  CG       -25.5580   -4.1440   12.8140 C.3   186  LYS186      0.0035
     73  CD       -26.0770   -3.1090   13.8310 C.3   186  LYS186      0.0206
     74  CE       -26.8570   -1.9760   13.2050 C.3   186  LYS186      0.1093
     75  NZ       -28.2480   -2.3920   12.8460 N.3   186  LYS186     -0.1314
     76  N        -28.4700   -5.9580   12.9840 N.am  187  SER187     -0.1938
     77  CA       -29.4840   -6.1630   11.9570 C.3   187  SER187      0.2055
     78  C        -29.1830   -5.2640   10.7500 C.2   187  SER187      0.2644
     79  O        -28.3510   -4.3550   10.8290 O.2   187  SER187     -0.2714
     80  CB       -30.8690   -5.8600   12.5210 C.3   187  SER187      0.2130
     81  OG       -30.9270   -4.5070   12.9420 O.3   187  SER187     -0.2179
     82  N        -29.8600   -5.5430    9.6410 N.am  188  GLY188     -0.1939
     83  CA       -29.7270   -4.7840    8.4060 C.3   188  GLY188      0.2014
     84  C        -31.0190   -4.8810    7.6290 C.2   188  GLY188      0.2639
     85  O        -31.7120   -5.8990    7.7060 O.2   188  GLY188     -0.2714
     86  N        -31.3740   -3.8040    6.9180 N.am  189  TRP189     -0.1959
     87  CA       -32.5990   -3.7450    6.1260 C.3   189  TRP189      0.1771
     88  C        -32.3200   -2.8690    4.9010 C.2   189  TRP189      0.2620
     89  O        -32.3000   -1.6390    4.9950 O.2   189  TRP189     -0.2715
     90  CB       -33.7680   -3.2090    6.9830 C.3   189  TRP189      0.0590
     91  CG       -35.1420   -3.3620    6.3850 C.ar  189  TRP189      0.0006
     92  CD1      -35.4650   -3.4690    5.0610 C.ar  189  TRP189      0.0946
     93  CD2      -36.3850   -3.3400    7.1010 C.ar  189  TRP189      0.0152
     94  NE1      -36.8310   -3.5150    4.9090 N.ar  189  TRP189     -0.2442
     95  CE2      -37.4210   -3.4460    6.1470 C.ar  189  TRP189      0.0810
     96  CE3      -36.7250   -3.2410    8.4650 C.ar  189  TRP189      0.0012
     97  CZ2      -38.7750   -3.4640    6.5100 C.ar  189  TRP189      0.0191
     98  CZ3      -38.0680   -3.2470    8.8240 C.ar  189  TRP189      0.0001
     99  CH2      -39.0740   -3.3570    7.8550 C.ar  189  TRP189      0.0015
    100  N        -32.0390   -3.5170    3.7800 N.am  190  GLY190     -0.1940
    101  CA       -31.7370   -2.8310    2.5300 C.3   190  GLY190      0.2014
    102  C        -32.9820   -2.2380    1.9090 C.2   190  GLY190      0.2639
    103  O        -33.5890   -2.8560    1.0400 O.2   190  GLY190     -0.2714
    104  N        -33.3750   -1.0450    2.3600 N.am  191  MET191     -0.1963
    105  CA       -34.5740   -0.3440    1.8800 C.3   191  MET191      0.1736
    106  C        -34.4010    0.3590    0.5320 C.2   191  MET191      0.2617
    107  O        -35.3950    0.6440   -0.1320 O.2   191  MET191     -0.2715
    108  CB       -35.0820    0.6410    2.9390 C.3   191  MET191      0.0427
    109  CG       -35.8370   -0.0230    4.0600 C.3   191  MET191      0.0599
    110  SD       -36.2580    1.1810    5.3240 S.3   191  MET191     -0.1393
    111  CE       -36.9680    0.1250    6.5660 C.3   191  MET191      0.0692
    112  N        -33.1590    0.6350    0.1460 N.am  192  GLY192     -0.1955
    113  CA       -32.8490    1.3300   -1.1010 C.3   192  GLY192      0.1869
    114  C        -32.5690    0.4310   -2.2870 C.2   192  GLY192      0.2309
    115  O        -32.0400    0.8940   -3.3030 O.2   192  GLY192     -0.2863
    116  N        -36.8790  -10.7020   12.1480 N.3   229  ARG229     -0.1245
    117  CA       -35.5000  -11.1710   11.9670 C.3   229  ARG229      0.1563
    118  C        -34.9830  -11.7200   13.2940 C.2   229  ARG229      0.2260
    119  O        -34.4230  -12.8110   13.3230 O.2   229  ARG229     -0.2867
    120  CB       -34.5940  -10.0400   11.4580 C.3   229  ARG229      0.0307
    121  CG       -34.9620   -9.5490   10.0610 C.3   229  ARG229      0.0489
    122  CD       -34.3330   -8.2020    9.7770 C.3   229  ARG229      0.2205
    123  NE       -34.7210   -7.1960   10.7760 N.pl3 229  ARG229     -0.0865
    124  CZ       -34.2830   -5.9470   10.7760 C.cat 229  ARG229      0.5346
    125  NH1      -34.6700   -5.1010   11.7210 N.pl3 229  ARG229      0.1354
    126  NH2      -33.4550   -5.5300    9.8330 N.pl3 229  ARG229      0.1354
@<TRIPOS>BOND
     1   115   114    2
     2   114   113    1
     3   113   112    1
     4   107   106    2
     5    62    61    2
     6    61    60    1
     7   112   106   am
     8   106   105    1
     9   103   102    2
    10    60    59    1
    11    60    63    1
    12    63    64    1
    13   105   104    1
    14   105   108    1
    15   102   104   am
    16   102   101    1
    17   101   100    1
    18   108   109    1
    19    64    65    1
    20    64    66    1
    21   100    88   am
    22     1     2    1
    23   109   110    1
    24     2     5    1
    25     2     3    1
    26    88    89    2
    27    88    87    1
    28    94    92   ar
    29    94    95   ar
    30    92    91   ar
    31   110   111    1
    32     3     4    2
    33     3     6   am
    34    87    86    1
    35    87    90    1
    36    95    97   ar
    37    95    93   ar
    38    91    90    1
    39    91    93   ar
    40    97    99   ar
    41    86    84   am
    42     6     7    1
    43    57    56    1
    44    93    96   ar
    45    84    85    2
    46    84    83    1
    47    99    98   ar
    48    56    58    1
    49    56    53    1
    50     7     8    1
    51     7    10    1
    52    83    82    1
    53    96    98   ar
    54    11    10    1
    55    23    22    1
    56     8     9    2
    57    55    54    2
    58    54    53    1
    59    53    52    1
    60    82    78   am
    61   122   121    1
    62   122   123    1
    63   126   124    1
    64    22    21   ar
    65    22    20   ar
    66    21    19   ar
    67   121   120    1
    68    36    37   ar
    69    36    34   ar
    70    37    35   ar
    71    78    79    2
    72    78    77    1
    73   124   123    2
    74   124   125    1
    75    20    18   ar
    76    19    17   ar
    77    34    31   ar
    78   120   117    1
    79    35    33   ar
    80    12    13    1
    81    77    80    1
    82    77    76    1
    83   117   116    1
    84   117   118    1
    85    51    50    1
    86    18    17   ar
    87    49    48    2
    88    17    16    1
    89    70    69    2
    90    80    81    1
    91    31    33   ar
    92    31    29   ar
    93    33    32   ar
    94    72    71    1
    95    72    73    1
    96    75    74    1
    97    13    16    1
    98    13    14    1
    99    76    69   am
   100    69    68    1
   101    48    47    1
   102    74    73    1
   103    50    47    1
   104   118   119    2
   105    71    68    1
   106    29    28    1
   107    29    30   ar
   108    47    46    1
   109    32    30   ar
   110    68    67    1
   111    14    15    2
   112    28    25    1
   113    41    40    2
   114    46    40   am
   115    27    26    2
   116    25    26    1
   117    25    24    1
   118    40    39    1
   119    39    42    1
   120    39    38    1
   121    42    43    1
   122    43    45    1
   123    43    44    1
