@<TRIPOS>MOLECULE
tmp/5vfmA00.pdb
 90 87 0 0 0
SMALL
GASTEIGER

@<TRIPOS>ATOM
      1  N         -7.0160   18.6640  130.1740 N.3     2  LEU2       -0.1231
      2  CA        -7.1520   17.7040  129.0790 C.3     2  LEU2        0.1693
      3  C         -7.1680   18.4170  127.7310 C.2     2  LEU2        0.2592
      4  O         -6.7890   17.8370  126.7150 O.2     2  LEU2       -0.2718
      5  CB        -8.4210   16.8640  129.2420 C.3     2  LEU2        0.0284
      6  CG        -8.4300   15.8690  130.4100 C.3     2  LEU2        0.0019
      7  CD1       -9.7960   15.2190  130.5610 C.3     2  LEU2        0.0001
      8  CD2       -7.3710   14.8140  130.2050 C.3     2  LEU2        0.0001
      9  N         -7.6090   19.6740  127.7190 N.am    3  PHE3       -0.1976
     10  CA        -7.5670   20.4530  126.4870 C.3     3  PHE3        0.1639
     11  C         -6.1140   20.6860  126.0180 C.2     3  PHE3        0.2290
     12  O         -5.7850   20.3540  124.8830 O.2     3  PHE3       -0.2864
     13  CB        -8.3130   21.7710  126.6670 C.3     3  PHE3        0.0560
     14  CG        -9.7990   21.5940  126.8500 C.ar    3  PHE3       -0.0200
     15  CD1      -10.5920   21.1550  125.7990 C.ar    3  PHE3       -0.0042
     16  CD2      -10.4000   21.8470  128.0740 C.ar    3  PHE3       -0.0042
     17  CE1      -11.9660   20.9760  125.9650 C.ar    3  PHE3       -0.0003
     18  CE2      -11.7700   21.6700  128.2460 C.ar    3  PHE3       -0.0003
     19  CZ       -12.5520   21.2380  127.1880 C.ar    3  PHE3       -0.0000
     20  N         -3.2920   19.1310  127.0240 N.3     5  LEU5       -0.1231
     21  CA        -2.6980   17.8090  126.8300 C.3     5  LEU5        0.1693
     22  C         -3.0620   17.2180  125.4690 C.2     5  LEU5        0.2593
     23  O         -2.2020   16.7030  124.7410 O.2     5  LEU5       -0.2718
     24  CB        -3.1490   16.8550  127.9420 C.3     5  LEU5        0.0284
     25  CG        -2.7530   15.3890  127.7310 C.3     5  LEU5        0.0019
     26  CD1       -1.2350   15.2620  127.6060 C.3     5  LEU5        0.0001
     27  CD2       -3.2890   14.5010  128.8650 C.3     5  LEU5        0.0001
     28  N         -4.3420   17.2990  125.1300 N.am    6  GLY6       -0.1942
     29  CA        -4.8200   16.7770  123.8640 C.3     6  GLY6        0.2014
     30  C         -4.2770   17.5210  122.6590 C.2     6  GLY6        0.2638
     31  O         -3.9380   16.9070  121.6400 O.2     6  GLY6       -0.2714
     32  N         -4.1990   18.8430  122.7640 N.am    7  LYS7       -0.1977
     33  CA        -3.6510   19.6270  121.6700 C.3     7  LYS7        0.1596
     34  C         -2.1720   19.2730  121.4870 C.2     7  LYS7        0.2287
     35  O         -1.7000   19.0940  120.3570 O.2     7  LYS7       -0.2864
     36  CB        -3.8270   21.1240  121.9220 C.3     7  LYS7        0.0298
     37  CG        -3.7040   21.9760  120.6500 C.3     7  LYS7        0.0038
     38  CD        -3.6520   23.4640  120.9730 C.3     7  LYS7        0.0206
     39  CE        -4.9100   24.1850  120.5420 C.3     7  LYS7        0.1093
     40  NZ        -4.8860   25.6230  120.9560 N.3     7  LYS7       -0.1314
     41  N         -0.6480   16.4660  122.1260 N.3     9  ILE9       -0.1245
     42  CA        -0.5060   15.1440  121.5230 C.3     9  ILE9        0.1561
     43  C         -0.8140   15.2060  120.0350 C.2     9  ILE9        0.2260
     44  O         -0.1330   14.5760  119.2230 O.2     9  ILE9       -0.2867
     45  CB        -1.4190   14.1240  122.2140 C.3     9  ILE9        0.0252
     46  CG1       -0.9380   13.8930  123.6490 C.3     9  ILE9        0.0019
     47  CG2       -1.4840   12.8080  121.4190 C.3     9  ILE9        0.0019
     48  CD1       -1.8240   12.9450  124.4670 C.3     9  ILE9        0.0001
     49  N         -6.0860   12.7350  119.2800 N.3    17  PRO17      -0.2102
     50  CA        -5.5900   12.3560  120.6020 C.3    17  PRO17       0.1504
     51  C         -6.5810   11.4490  121.3160 C.2    17  PRO17       0.2575
     52  O         -6.2240   10.3520  121.7160 O.2    17  PRO17      -0.2718
     53  CB        -5.4390   13.6970  121.3220 C.3    17  PRO17       0.0282
     54  CG        -6.4100   14.6190  120.6260 C.3    17  PRO17       0.0208
     55  CD        -6.4660   14.1580  119.1970 C.3    17  PRO17       0.0893
     56  N         -7.8260   11.8970  121.4490 N.am   18  ALA18      -0.1980
     57  CA        -8.8130   11.1360  122.1930 C.3    18  ALA18       0.1597
     58  C         -8.9710    9.7260  121.6200 C.2    18  ALA18       0.2287
     59  O         -9.0280    8.7570  122.3710 O.2    18  ALA18      -0.2864
     60  CB       -10.1480   11.8670  122.2040 C.3    18  ALA18       0.0319
     61  N         -5.2940    7.7350  122.0550 N.3    21  TYR21      -0.1227
     62  CA        -4.6810    7.6770  123.3710 C.3    21  TYR21       0.1736
     63  C         -5.6340    7.8560  124.5580 C.2    21  TYR21       0.2596
     64  O         -5.1880    7.8700  125.7080 O.2    21  TYR21      -0.2718
     65  CB        -3.5740    8.7390  123.4500 C.3    21  TYR21       0.0548
     66  CG        -2.5120    8.5520  122.3890 C.ar   21  TYR21      -0.0200
     67  CD1       -1.5250    7.5800  122.5300 C.ar   21  TYR21      -0.0009
     68  CD2       -2.5160    9.3270  121.2300 C.ar   21  TYR21      -0.0009
     69  CE1       -0.5460    7.4010  121.5540 C.ar   21  TYR21       0.0417
     70  CE2       -1.5610    9.1540  120.2510 C.ar   21  TYR21       0.0417
     71  CZ        -0.5740    8.1890  120.4180 C.ar   21  TYR21       0.1957
     72  OH         0.3830    8.0100  119.4440 O.3    21  TYR21      -0.2866
     73  N         -6.9330    7.9890  124.2930 N.am   22  GLY22      -0.1957
     74  CA        -7.8910    8.2170  125.3600 C.3    22  GLY22       0.1869
     75  C         -8.1120    7.0300  126.2880 C.2    22  GLY22       0.2309
     76  O         -8.5320    7.1990  127.4390 O.2    22  GLY22      -0.2863
     77  N         -4.7790    7.8490  129.2330 N.3    29  GLY29      -0.1225
     78  CA        -6.1430    8.3420  129.3180 C.3    29  GLY29       0.1811
     79  C         -6.7840    8.2170  130.6850 C.2    29  GLY29       0.2280
     80  O         -6.1750    8.5640  131.7020 O.2    29  GLY29      -0.2866
     81  N          4.0450    9.6420  132.6920 N.3    47  HIS47      -0.1241
     82  CA         3.1440   10.7900  132.6830 C.3    47  HIS47       0.1621
     83  C          2.3190   10.8780  133.9760 C.2    47  HIS47       0.2264
     84  O          2.3240   11.9080  134.6520 O.2    47  HIS47      -0.2867
     85  CB         2.3050   10.6620  131.4080 C.3    47  HIS47       0.0745
     86  CG         1.0290   11.4410  131.3780 C.ar   47  HIS47       0.0817
     87  ND1       -0.1270   10.9210  130.8270 N.ar   47  HIS47      -0.2268
     88  CD2        0.7330   12.7090  131.7480 C.ar   47  HIS47       0.1154
     89  CE1       -1.0900   11.8240  130.8930 C.ar   47  HIS47       0.1986
     90  NE2       -0.5940   12.9170  131.4450 N.ar   47  HIS47      -0.2212
@<TRIPOS>BOND
     1    55    49    1
     2    55    54    1
     3    44    43    2
     4    49    50    1
     5    72    71    1
     6    43    42    1
     7    70    71   ar
     8    70    68   ar
     9    35    34    2
    10    71    69   ar
    11    39    40    1
    12    39    38    1
    13    50    51    1
    14    50    53    1
    15    54    53    1
    16    37    38    1
    17    37    36    1
    18    68    66   ar
    19    51    56   am
    20    51    52    2
    21    47    45    1
    22    56    57    1
    23    34    33    1
    24    42    41    1
    25    42    45    1
    26    69    67   ar
    27    58    57    1
    28    58    59    2
    29    31    30    2
    30    33    36    1
    31    33    32    1
    32    61    62    1
    33    57    60    1
    34    45    46    1
    35    66    67   ar
    36    66    65    1
    37    30    32   am
    38    30    29    1
    39    62    65    1
    40    62    63    1
    41    46    48    1
    42    29    28    1
    43    73    63   am
    44    73    74    1
    45    63    64    2
    46    23    22    2
    47    12    11    2
    48    28    22   am
    49    74    75    1
    50    22    21    1
    51    15    17   ar
    52    15    14   ar
    53    17    19   ar
    54    11    10    1
    55    75    76    2
    56    10    13    1
    57    10     9    1
    58    13    14    1
    59     4     3    2
    60    21    20    1
    61    21    24    1
    62    14    16   ar
    63    19    18   ar
    64    26    25    1
    65     9     3   am
    66    25    24    1
    67    25    27    1
    68     3     2    1
    69    16    18   ar
    70     2     5    1
    71     2     1    1
    72    77    78    1
    73     5     6    1
    74    78    79    1
    75     8     6    1
    76     6     7    1
    77    79    80    2
    78    87    89   ar
    79    87    86   ar
    80    89    90   ar
    81    86    85    1
    82    86    88   ar
    83    85    82    1
    84    90    88   ar
    85    82    81    1
    86    82    83    1
    87    83    84    2
