@<TRIPOS>MOLECULE
tmp/5vfnA01.pdb
 80 77 0 0 0
SMALL
GASTEIGER

@<TRIPOS>ATOM
      1  N         39.0010   16.7800  130.7700 N.3     2  LEU2       -0.1231
      2  CA        38.9280   15.7940  129.7010 C.3     2  LEU2        0.1693
      3  C         38.9590   16.4600  128.3300 C.2     2  LEU2        0.2592
      4  O         39.2820   15.8210  127.3320 O.2     2  LEU2       -0.2718
      5  CB        37.6690   14.9350  129.8450 C.3     2  LEU2        0.0284
      6  CG        37.6830   13.9350  131.0060 C.3     2  LEU2        0.0019
      7  CD1       36.4130   13.1120  131.0260 C.3     2  LEU2        0.0001
      8  CD2       38.9010   13.0310  130.9270 C.3     2  LEU2        0.0001
      9  N         38.6340   17.7470  128.2820 N.am    3  PHE3       -0.1976
     10  CA        38.6210   18.4720  127.0180 C.3     3  PHE3        0.1639
     11  C         40.0310   18.7610  126.5170 C.2     3  PHE3        0.2290
     12  O         40.3350   18.5330  125.3460 O.2     3  PHE3       -0.2864
     13  CB        37.8290   19.7720  127.1510 C.3     3  PHE3        0.0560
     14  CG        36.3640   19.5600  127.4220 C.ar    3  PHE3       -0.0200
     15  CD1       35.5320   19.0630  126.4350 C.ar    3  PHE3       -0.0042
     16  CD2       35.8210   19.8590  128.6590 C.ar    3  PHE3       -0.0042
     17  CE1       34.1910   18.8660  126.6760 C.ar    3  PHE3       -0.0003
     18  CE2       34.4800   19.6650  128.9040 C.ar    3  PHE3       -0.0003
     19  CZ        33.6640   19.1680  127.9110 C.ar    3  PHE3       -0.0000
     20  N         42.7390   17.2450  127.5560 N.3     5  LEU5       -0.1231
     21  CA        43.3580   15.9390  127.3860 C.3     5  LEU5        0.1693
     22  C         43.0090   15.3570  126.0210 C.2     5  LEU5        0.2593
     23  O         43.8840   14.8980  125.2930 O.2     5  LEU5       -0.2718
     24  CB        42.9170   14.9850  128.5000 C.3     5  LEU5        0.0284
     25  CG        43.3170   13.5140  128.3310 C.3     5  LEU5        0.0019
     26  CD1       44.8370   13.3420  128.2340 C.3     5  LEU5        0.0001
     27  CD2       42.7340   12.6700  129.4590 C.3     5  LEU5        0.0001
     28  N         41.7280   15.3960  125.6700 N.am    6  GLY6       -0.1942
     29  CA        41.2810   14.8640  124.3980 C.3     6  GLY6        0.2014
     30  C         41.8280   15.6390  123.2140 C.2     6  GLY6        0.2638
     31  O         42.1200   15.0720  122.1620 O.2     6  GLY6       -0.2714
     32  N         41.9720   16.9470  123.3840 N.am    7  LYS7       -0.1977
     33  CA        42.4980   17.7790  122.3170 C.3     7  LYS7        0.1596
     34  C         43.9680   17.4470  122.0770 C.2     7  LYS7        0.2287
     35  O         44.4260   17.3870  120.9360 O.2     7  LYS7       -0.2864
     36  CB        42.3600   19.2570  122.6690 C.3     7  LYS7        0.0298
     37  CG        42.6450   20.1930  121.5120 C.3     7  LYS7        0.0038
     38  CD        42.1950   21.6070  121.8260 C.3     7  LYS7        0.0206
     39  CE        41.5670   22.2870  120.6320 C.3     7  LYS7        0.1093
     40  NZ        40.8410   23.5150  121.0670 N.3     7  LYS7       -0.1314
     41  N         45.5080   14.5760  122.6660 N.3     9  ILE9       -0.1245
     42  CA        45.5660   13.2970  122.0440 C.3     9  ILE9        0.1561
     43  C         45.2400   13.3660  120.5700 C.2     9  ILE9        0.2260
     44  O         45.8170   12.6770  119.8070 O.2     9  ILE9       -0.2867
     45  CB        44.6720   12.2970  122.7620 C.3     9  ILE9        0.0252
     46  CG1       45.1190   12.1430  124.1890 C.3     9  ILE9        0.0019
     47  CG2       44.7560   10.9670  122.0860 C.3     9  ILE9        0.0019
     48  CD1       44.3740   11.0900  124.9600 C.3     9  ILE9        0.0001
     49  N         40.0220   10.8900  119.9660 N.3    17  PRO17      -0.2102
     50  CA        40.4500   10.4250  121.2640 C.3    17  PRO17       0.1504
     51  C         39.4650    9.5710  122.0050 C.2    17  PRO17       0.2575
     52  O         39.8650    8.6060  122.5960 O.2    17  PRO17      -0.2718
     53  CB        40.7170   11.7070  122.0130 C.3    17  PRO17       0.0282
     54  CG        39.9550   12.7170  121.3060 C.3    17  PRO17       0.0208
     55  CD        40.0540   12.3450  119.8960 C.3    17  PRO17       0.0893
     56  N         38.2050    9.9380  121.9950 N.am   18  ALA18      -0.1980
     57  CA        37.2380    9.2230  122.7620 C.3    18  ALA18       0.1597
     58  C         37.0800    7.8670  122.1900 C.2    18  ALA18       0.2287
     59  O         36.8730    6.9440  122.9050 O.2    18  ALA18      -0.2864
     60  CB        35.9120    9.9450  122.7630 C.3    18  ALA18       0.0319
     61  N         40.8250    5.9420  122.6230 N.3    21  TYR21      -0.1227
     62  CA        41.4700    5.8620  123.9270 C.3    21  TYR21       0.1736
     63  C         40.5140    6.0070  125.1110 C.2    21  TYR21       0.2596
     64  O         40.9440    5.9920  126.2650 O.2    21  TYR21      -0.2718
     65  CB        42.5710    6.9260  124.0100 C.3    21  TYR21       0.0548
     66  CG        43.6080    6.7780  122.9230 C.ar   21  TYR21      -0.0200
     67  CD1       44.5940    5.8010  123.0110 C.ar   21  TYR21      -0.0009
     68  CD2       43.5910    7.5950  121.7990 C.ar   21  TYR21      -0.0009
     69  CE1       45.5410    5.6500  122.0210 C.ar   21  TYR21       0.0417
     70  CE2       44.5410    7.4510  120.7980 C.ar   21  TYR21       0.0417
     71  CZ        45.5130    6.4750  120.9170 C.ar   21  TYR21       0.1957
     72  OH        46.4690    6.3120  119.9360 O.3    21  TYR21      -0.2866
     73  N         39.2220    6.1370  124.8280 N.am   22  GLY22      -0.1957
     74  CA        38.2360    6.3010  125.8790 C.3    22  GLY22       0.1869
     75  C         38.0330    5.0530  126.7130 C.2    22  GLY22       0.2309
     76  O         37.7000    5.1360  127.8960 O.2    22  GLY22      -0.2863
     77  N         41.3510    5.8400  129.6680 N.3    29  GLY29      -0.1225
     78  CA        40.0220    6.4180  129.7280 C.3    29  GLY29       0.1811
     79  C         39.3600    6.2360  131.0800 C.2    29  GLY29       0.2280
     80  O         39.9790    6.4550  132.1260 O.2    29  GLY29      -0.2866
@<TRIPOS>BOND
     1    44    43    2
     2    55    49    1
     3    55    54    1
     4    72    71    1
     5    49    50    1
     6    43    42    1
     7    39    40    1
     8    39    38    1
     9    70    71   ar
    10    70    68   ar
    11    71    69   ar
    12    35    34    2
    13    50    51    1
    14    50    53    1
    15    54    53    1
    16    37    38    1
    17    37    36    1
    18    68    66   ar
    19    56    51   am
    20    56    57    1
    21    51    52    2
    22    69    67   ar
    23    42    41    1
    24    42    45    1
    25    34    33    1
    26    47    45    1
    27    31    30    2
    28    58    57    1
    29    58    59    2
    30    33    36    1
    31    33    32    1
    32    61    62    1
    33    45    46    1
    34    57    60    1
    35    66    67   ar
    36    66    65    1
    37    30    32   am
    38    30    29    1
    39    62    65    1
    40    62    63    1
    41    46    48    1
    42    29    28    1
    43    73    63   am
    44    73    74    1
    45    63    64    2
    46    23    22    2
    47    12    11    2
    48    28    22   am
    49    74    75    1
    50    22    21    1
    51    15    17   ar
    52    15    14   ar
    53    11    10    1
    54    17    19   ar
    55    75    76    2
    56    10    13    1
    57    10     9    1
    58    13    14    1
    59     4     3    2
    60    21    20    1
    61    21    24    1
    62    14    16   ar
    63    19    18   ar
    64    26    25    1
    65     9     3   am
    66     3     2    1
    67    25    24    1
    68    25    27    1
    69    16    18   ar
    70    77    78    1
    71     2     5    1
    72     2     1    1
    73    78    79    1
    74     5     6    1
    75     8     6    1
    76     6     7    1
    77    79    80    2
