@<TRIPOS>MOLECULE
tmp/5vg3C00.pdb
 78 73 0 0 0
SMALL
GASTEIGER

@<TRIPOS>ATOM
      1  N         64.9770   24.4300   86.8400 N.3    99  TYR99      -0.1227
      2  CA        64.7250   25.6190   86.0310 C.3    99  TYR99       0.1736
      3  C         65.4620   26.7940   86.6600 C.2    99  TYR99       0.2595
      4  O         65.2840   27.0780   87.8500 O.2    99  TYR99      -0.2718
      5  CB        63.2230   25.9270   85.9810 C.3    99  TYR99       0.0548
      6  CG        62.8970   27.1400   85.1620 C.ar   99  TYR99      -0.0200
      7  CD1       62.7770   27.0520   83.7850 C.ar   99  TYR99      -0.0009
      8  CD2       62.7030   28.3770   85.7660 C.ar   99  TYR99      -0.0009
      9  CE1       62.4830   28.1680   83.0220 C.ar   99  TYR99       0.0417
     10  CE2       62.4090   29.4950   85.0080 C.ar   99  TYR99       0.0417
     11  CZ        62.2960   29.3770   83.6410 C.ar   99  TYR99       0.1957
     12  OH        62.0000   30.4750   82.8670 O.3    99  TYR99      -0.2866
     13  N         66.2800   27.4900   85.8650 N.am  100  MET100     -0.1965
     14  CA        67.0630   28.6270   86.3520 C.3   100  MET100      0.1736
     15  C         66.2130   29.8930   86.2600 C.2   100  MET100      0.2616
     16  O         65.9480   30.3920   85.1610 O.2   100  MET100     -0.2715
     17  CB        68.3500   28.7670   85.5380 C.3   100  MET100      0.0427
     18  CG        69.3180   29.8410   86.0480 C.3   100  MET100      0.0599
     19  SD        69.9630   29.5740   87.7270 S.3   100  MET100     -0.1393
     20  CE        70.8980   28.0620   87.5050 C.3   100  MET100      0.0692
     21  N         65.7910   30.4140   87.4130 N.am  101  ILE101     -0.1977
     22  CA        64.9290   31.5940   87.4590 C.3   101  ILE101      0.1596
     23  C         65.7530   32.8670   87.3900 C.2   101  ILE101      0.2287
     24  O         65.3730   33.8190   86.7050 O.2   101  ILE101     -0.2864
     25  CB        64.0490   31.5710   88.7220 C.3   101  ILE101      0.0276
     26  CG1       63.2690   30.2610   88.8140 C.3   101  ILE101      0.0022
     27  CG2       63.0820   32.7680   88.7390 C.3   101  ILE101      0.0022
     28  CD1       62.6100   30.0780   90.1700 C.3   101  ILE101      0.0001
     29  N         69.3540   32.0170   82.7900 N.3   123  GLU123     -0.1231
     30  CA        67.9230   32.1840   83.0110 C.3   123  GLU123      0.1699
     31  C         67.1260   31.5650   81.8720 C.2   123  GLU123      0.2592
     32  O         67.4050   31.8050   80.6920 O.2   123  GLU123     -0.2718
     33  CB        67.5880   33.6720   83.1440 C.3   123  GLU123      0.0402
     34  CG        68.1440   34.2710   84.4250 C.3   123  GLU123      0.1161
     35  CD        67.9820   35.7740   84.5250 C.2   123  GLU123      0.3649
     36  OE1       67.3630   36.3750   83.6180 O.co2 123  GLU123     -0.2457
     37  OE2       68.4650   36.3490   85.5280 O.co2 123  GLU123     -0.2457
     38  N         66.1240   30.7640   82.2310 N.am  124  GLY124     -0.1957
     39  CA        65.3030   30.0820   81.2590 C.3   124  GLY124      0.1869
     40  C         65.8370   28.7400   80.8150 C.2   124  GLY124      0.2309
     41  O         65.1730   28.0630   80.0190 O.2   124  GLY124     -0.2863
     42  N         63.8830   28.5380   76.9430 N.3   226  LEU226     -0.1245
     43  CA        63.3340   29.7830   76.4110 C.3   226  LEU226      0.1561
     44  C         63.8830   30.1360   75.0400 C.2   226  LEU226      0.2260
     45  O         63.3600   31.0630   74.4080 O.2   226  LEU226     -0.2867
     46  CB        63.5490   30.9390   77.3880 C.3   226  LEU226      0.0270
     47  CG        62.7450   30.8290   78.6800 C.3   226  LEU226      0.0019
     48  CD1       62.8990   32.0820   79.5260 C.3   226  LEU226      0.0001
     49  CD2       61.2770   30.5820   78.3610 C.3   226  LEU226      0.0001
     50  N         56.8160   25.5970   80.6310 N.3   256  LEU256     -0.1245
     51  CA        56.6990   26.9450   81.1570 C.3   256  LEU256      0.1561
     52  C         55.5350   27.6070   80.4390 C.2   256  LEU256      0.2260
     53  O         55.4830   27.6050   79.2050 O.2   256  LEU256     -0.2867
     54  CB        57.9900   27.7220   80.9050 C.3   256  LEU256      0.0270
     55  CG        58.1270   29.1410   81.4640 C.3   256  LEU256      0.0019
     56  CD1       57.2860   30.1400   80.6730 C.3   256  LEU256      0.0001
     57  CD2       57.8180   29.2020   82.9500 C.3   256  LEU256      0.0001
     58  N         55.9260   31.0860   89.3010 N.3   280  ILE280     -0.1231
     59  CA        57.0900   31.9680   89.2740 C.3   280  ILE280      0.1692
     60  C         56.6870   33.4080   89.5620 C.2   280  ILE280      0.2592
     61  O         57.3340   34.0950   90.3570 O.2   280  ILE280     -0.2718
     62  CB        57.8260   31.8410   87.9290 C.3   280  ILE280      0.0266
     63  CG1       58.3850   30.4250   87.7550 C.3   280  ILE280      0.0019
     64  CG2       58.9380   32.8930   87.8340 C.3   280  ILE280      0.0020
     65  CD1       58.8600   30.1170   86.3350 C.3   280  ILE280      0.0001
     66  N         55.6300   33.8940   88.9120 N.am  281  SER281     -0.1952
     67  CA        55.1920   35.2680   89.1200 C.3   281  SER281      0.1924
     68  C         53.7180   35.3880   88.7640 C.2   281  SER281      0.2314
     69  O         53.1570   34.5660   88.0360 O.2   281  SER281     -0.2863
     70  CB        56.0240   36.2550   88.2910 C.3   281  SER281      0.2116
     71  OG        55.8250   36.0280   86.9130 O.3   281  SER281     -0.2180
     72  N         53.1310   33.5700   85.2980 N.3   325  VAL325     -0.1245
     73  CA        54.1720   32.6960   84.7670 C.3   325  VAL325      0.1561
     74  C         54.3080   31.5110   85.7110 C.2   325  VAL325      0.2260
     75  O         54.5570   31.6950   86.9070 O.2   325  VAL325     -0.2867
     76  CB        55.5150   33.4340   84.6140 C.3   325  VAL325      0.0252
     77  CG1       56.5600   32.5230   84.0150 C.3   325  VAL325      0.0019
     78  CG2       55.3370   34.6640   83.7370 C.3   325  VAL325      0.0019
@<TRIPOS>BOND
     1    45    44    2
     2    44    43    1
     3    43    42    1
     4    43    46    1
     5    46    47    1
     6    49    47    1
     7    47    48    1
     8    53    52    2
     9    41    40    2
    10    52    51    1
    11    50    51    1
    12    56    55    1
    13    32    31    2
    14    40    39    1
    15    54    51    1
    16    54    55    1
    17    39    38    1
    18    55    57    1
    19    31    38   am
    20    31    30    1
    21    29    30    1
    22    12    11    1
    23    30    33    1
    24     9    11   ar
    25     9     7   ar
    26    33    34    1
    27    36    35   ar
    28    11    10   ar
    29    78    76    1
    30     7     6   ar
    31    77    76    1
    32    34    35    1
    33    35    37   ar
    34    76    73    1
    35    73    72    1
    36    73    74    1
    37    10     8   ar
    38    16    15    2
    39     6     8   ar
    40     6     5    1
    41    17    18    1
    42    17    14    1
    43    74    75    2
    44    13    14    1
    45    13     3   am
    46     5     2    1
    47     2     3    1
    48     2     1    1
    49    18    19    1
    50    15    14    1
    51    15    21   am
    52    65    63    1
    53     3     4    2
    54    24    23    2
    55    71    70    1
    56    23    22    1
    57    21    22    1
    58    22    25    1
    59    20    19    1
    60    63    62    1
    61    64    62    1
    62    62    59    1
    63    69    68    2
    64    70    67    1
    65    25    27    1
    66    25    26    1
    67    68    67    1
    68    26    28    1
    69    66    67    1
    70    66    60   am
    71    59    58    1
    72    59    60    1
    73    60    61    2
