@<TRIPOS>MOLECULE
tmp/5vg6C01.pdb
 93 89 0 0 0
SMALL
GASTEIGER

@<TRIPOS>ATOM
      1  N         90.6120   75.0020   29.3880 N.3    11  VAL11      -0.1231
      2  CA        90.2120   73.8600   30.2100 C.3    11  VAL11       0.1692
      3  C         90.1380   74.1650   31.7190 C.2    11  VAL11       0.2592
      4  O         89.9640   73.2610   32.5400 O.2    11  VAL11      -0.2718
      5  CB        91.1270   72.6220   29.9790 C.3    11  VAL11       0.0266
      6  CG1       90.9780   72.0890   28.5640 C.3    11  VAL11       0.0020
      7  CG2       92.5780   72.9420   30.2650 C.3    11  VAL11       0.0020
      8  N         90.2810   75.4290   32.0860 N.am   12  ASP12      -0.1974
      9  CA        90.1310   75.8640   33.4790 C.3    12  ASP12       0.1709
     10  C         89.1140   77.0100   33.4550 C.2    12  ASP12       0.2293
     11  O         89.0420   77.7730   32.5020 O.2    12  ASP12      -0.2864
     12  CB        91.4570   76.3490   34.0510 C.3    12  ASP12       0.1436
     13  CG        92.5180   75.2430   34.1060 C.2    12  ASP12       0.3671
     14  OD1       92.5170   74.4420   35.0510 O.co2  12  ASP12      -0.2456
     15  OD2       93.3870   75.1570   33.1840 O.co2  12  ASP12      -0.2456
     16  N         97.6180   78.1500   30.4870 N.3    53  TRP53      -0.1241
     17  CA        97.7580   76.7420   30.1140 C.3    53  TRP53       0.1605
     18  C         97.6380   76.6760   28.6020 C.2    53  TRP53       0.2264
     19  O         96.5700   76.9900   28.0430 O.2    53  TRP53      -0.2867
     20  CB        96.6730   75.8810   30.7530 C.3    53  TRP53       0.0550
     21  CG        96.7960   74.4330   30.4070 C.ar   53  TRP53       0.0003
     22  CD1       95.9920   73.7100   29.5830 C.ar   53  TRP53       0.0946
     23  CD2       97.8130   73.5370   30.8520 C.ar   53  TRP53       0.0152
     24  NE1       96.4430   72.4120   29.4870 N.ar   53  TRP53      -0.2442
     25  CE2       97.5520   72.2770   30.2640 C.ar   53  TRP53       0.0810
     26  CE3       98.8870   73.6560   31.7470 C.ar   53  TRP53       0.0012
     27  CZ2       98.3470   71.1490   30.5130 C.ar   53  TRP53       0.0191
     28  CZ3       99.6880   72.5260   31.9810 C.ar   53  TRP53       0.0001
     29  CH2       99.3980   71.2950   31.3800 C.ar   53  TRP53       0.0015
     30  N         99.6210   76.9090   34.6830 N.3    72  LEU72      -0.1231
     31  CA        98.5440   76.3530   35.4870 C.3    72  LEU72       0.1693
     32  C         98.6670   74.8570   35.7900 C.2    72  LEU72       0.2593
     33  O         97.6840   74.2130   36.1890 O.2    72  LEU72      -0.2718
     34  CB        97.2070   76.6060   34.7470 C.3    72  LEU72       0.0284
     35  CG        96.5760   77.9710   34.9410 C.3    72  LEU72       0.0019
     36  CD1       95.6560   78.2800   33.8050 C.3    72  LEU72       0.0001
     37  CD2       95.8690   77.9960   36.2700 C.3    72  LEU72       0.0001
     38  N         99.8240   74.2880   35.6770 N.am   73  GLY73      -0.1942
     39  CA       100.0840   72.9100   36.1380 C.3    73  GLY73       0.2014
     40  C        101.3900   72.8970   36.8990 C.2    73  GLY73       0.2639
     41  O        102.1540   73.8730   36.8890 O.2    73  GLY73      -0.2714
     42  N        101.6390   71.7760   37.5500 N.am   74  ALA74      -0.1963
     43  CA       102.9350   71.4770   38.1260 C.3    74  ALA74       0.1728
     44  C        103.9810   71.1290   37.0600 C.2    74  ALA74       0.2616
     45  O        105.1550   71.3270   37.2790 O.2    74  ALA74      -0.2715
     46  CB       102.7940   70.3690   39.1440 C.3    74  ALA74       0.0334
     47  N        103.5420   70.5860   35.9320 N.am   75  GLY75      -0.1955
     48  CA       104.3910   70.2860   34.7870 C.3    75  GLY75       0.1869
     49  C        104.5010   71.4720   33.8410 C.2    75  GLY75       0.2309
     50  O        103.5460   72.2520   33.6830 O.2    75  GLY75      -0.2863
     51  N         97.8710   70.3430   46.4400 N.3    98  MET98      -0.1245
     52  CA        98.1800   69.4940   45.2790 C.3    98  MET98       0.1570
     53  C         99.0530   68.3130   45.6630 C.2    98  MET98       0.2261
     54  O         98.8410   67.2020   45.2050 O.2    98  MET98      -0.2867
     55  CB        98.9530   70.2760   44.2270 C.3    98  MET98       0.0387
     56  CG        98.1440   70.7050   43.0440 C.3    98  MET98       0.0595
     57  SD        99.1460   71.4540   41.7450 S.3    98  MET98      -0.1393
     58  CE        99.8090   69.9470   41.0620 C.3    98  MET98       0.0692
     59  N        104.3360   61.8170   33.3290 N.3   230  ARG230     -0.1245
     60  CA       104.0110   62.1480   31.9470 C.3   230  ARG230      0.1563
     61  C        104.1950   60.8740   31.1480 C.2   230  ARG230      0.2260
     62  O        105.1340   60.0940   31.4020 O.2   230  ARG230     -0.2867
     63  CB       104.9580   63.2260   31.4370 C.3   230  ARG230      0.0307
     64  CG       104.6450   64.6250   31.9610 C.3   230  ARG230      0.0489
     65  CD       103.4700   65.2200   31.2580 C.3   230  ARG230      0.2205
     66  NE       103.1490   66.5770   31.6920 N.pl3 230  ARG230     -0.0865
     67  CZ       102.3950   66.8810   32.7610 C.cat 230  ARG230      0.5346
     68  NH1      101.8450   65.9290   33.5490 N.pl3 230  ARG230      0.1354
     69  NH2      102.1710   68.1570   33.0380 N.pl3 230  ARG230      0.1354
     70  N         94.2490   60.9650   33.2400 N.3   278  HIS278     -0.1241
     71  CA        95.1200   62.1000   33.5940 C.3   278  HIS278      0.1621
     72  C         94.4510   63.0390   34.5890 C.2   278  HIS278      0.2264
     73  O         94.0900   64.1670   34.2570 O.2   278  HIS278     -0.2867
     74  CB        95.6320   62.8400   32.3310 C.3   278  HIS278      0.0745
     75  CG        96.8120   63.7260   32.5890 C.ar  278  HIS278      0.0817
     76  ND1       97.6530   64.1680   31.5840 N.ar  278  HIS278     -0.2268
     77  CD2       97.3210   64.2260   33.7440 C.ar  278  HIS278      0.1154
     78  CE1       98.6180   64.9120   32.1100 C.ar  278  HIS278      0.1986
     79  NE2       98.4370   64.9630   33.4200 N.ar  278  HIS278     -0.2212
     80  N         96.2930   64.3610   40.3080 N.3   281  SER281     -0.1202
     81  CA        96.1700   65.5250   41.1720 C.3   281  SER281      0.2020
     82  C         95.8090   66.7550   40.3540 C.2   281  SER281      0.2618
     83  O         96.1390   66.8280   39.1800 O.2   281  SER281     -0.2717
     84  CB        97.4670   65.7380   41.9120 C.3   281  SER281      0.2103
     85  OG        97.2790   66.7210   42.8930 O.3   281  SER281     -0.2182
     86  N         95.1840   67.7290   40.9970 N.am  282  ILE282     -0.1979
     87  CA        94.8430   69.0050   40.3680 C.3   282  ILE282      0.1595
     88  C         95.0960   70.1710   41.3070 C.2   282  ILE282      0.2287
     89  O         95.0340   70.0110   42.5240 O.2   282  ILE282     -0.2864
     90  CB        93.3850   69.0670   39.8920 C.3   282  ILE282      0.0276
     91  CG1       92.4230   68.7190   41.0100 C.3   282  ILE282      0.0022
     92  CG2       93.1600   68.1100   38.7370 C.3   282  ILE282      0.0022
     93  CD1       90.9980   69.2240   40.8360 C.3   282  ILE282      0.0001
@<TRIPOS>BOND
     1    19    18    2
     2     6     5    1
     3    18    17    1
     4     1     2    1
     5    24    22   ar
     6    24    25   ar
     7    22    21   ar
     8     5     2    1
     9     5     7    1
    10    17    16    1
    11    17    20    1
    12     2     3    1
    13    25    27   ar
    14    25    23   ar
    15    21    20    1
    16    21    23   ar
    17    27    29   ar
    18    23    26   ar
    19    61    62    2
    20    61    60    1
    21    65    66    1
    22    65    64    1
    23    29    28   ar
    24    63    60    1
    25    63    64    1
    26    76    78   ar
    27    76    75   ar
    28    66    67    2
    29     3     8   am
    30     3     4    2
    31    26    28   ar
    32    60    59    1
    33     8     9    1
    34    78    79   ar
    35    74    75    1
    36    74    71    1
    37    11    10    2
    38    75    77   ar
    39    67    69    1
    40    67    68    1
    41    15    13   ar
    42    70    71    1
    43    79    77   ar
    44    10     9    1
    45     9    12    1
    46    71    72    1
    47    50    49    2
    48    36    35    1
    49    49    48    1
    50    12    13    1
    51    13    14   ar
    52    73    72    2
    53    30    31    1
    54    34    35    1
    55    34    31    1
    56    48    47    1
    57    35    37    1
    58    31    32    1
    59    38    32   am
    60    38    39    1
    61    32    33    2
    62    47    44   am
    63    39    40    1
    64    41    40    2
    65    40    42   am
    66    44    45    2
    67    44    43    1
    68    42    43    1
    69    43    46    1
    70    92    90    1
    71    83    82    2
    72    90    87    1
    73    90    91    1
    74    80    81    1
    75    82    86   am
    76    82    81    1
    77    87    86    1
    78    87    88    1
    79    93    91    1
    80    58    57    1
    81    81    84    1
    82    88    89    2
    83    57    56    1
    84    84    85    1
    85    56    55    1
    86    55    52    1
    87    54    53    2
    88    52    53    1
    89    52    51    1
