@<TRIPOS>MOLECULE
tmp/5vgeA00.pdb
 74 67 0 0 0
SMALL
GASTEIGER

@<TRIPOS>ATOM
      1  N         34.9030  -50.8890   15.4790 N.3    76  SER76      -0.1217
      2  CA        35.1180  -50.5760   14.0600 C.3    76  SER76       0.1889
      3  C         35.7740  -49.2320   13.8400 C.2    76  SER76       0.2288
      4  O         36.5500  -49.0880   12.9040 O.2    76  SER76      -0.2866
      5  CB        33.8120  -50.6000   13.2700 C.3    76  SER76       0.2089
      6  OG        33.3510  -51.9260   13.1070 O.3    76  SER76      -0.2183
      7  N         39.5540  -48.5840   12.3490 N.3    80  LEU80      -0.1245
      8  CA        39.7050  -47.7140   11.1650 C.3    80  LEU80       0.1561
      9  C         40.5600  -46.4860   11.4450 C.2    80  LEU80       0.2260
     10  O         41.2990  -46.0340   10.5620 O.2    80  LEU80      -0.2867
     11  CB        38.3460  -47.2900   10.5910 C.3    80  LEU80       0.0270
     12  CG        37.8560  -48.0490    9.3580 C.3    80  LEU80       0.0019
     13  CD1       37.5260  -49.4920    9.6930 C.3    80  LEU80       0.0001
     14  CD2       36.6450  -47.3370    8.7820 C.3    80  LEU80       0.0001
     15  N         31.4040  -43.0530   11.6240 N.3    94  LEU94      -0.1245
     16  CA        31.0150  -44.2240   10.8300 C.3    94  LEU94       0.1561
     17  C         29.4950  -44.2070   10.6150 C.2    94  LEU94       0.2260
     18  O         28.7320  -44.0200   11.5670 O.2    94  LEU94      -0.2867
     19  CB        31.4330  -45.5090   11.5440 C.3    94  LEU94       0.0270
     20  CG        31.1310  -46.8470   10.8630 C.3    94  LEU94       0.0019
     21  CD1       31.6550  -46.9020    9.4310 C.3    94  LEU94       0.0001
     22  CD2       31.7350  -47.9570   11.7060 C.3    94  LEU94       0.0001
     23  N         26.1240  -46.1960    8.4440 N.3    96  ARG96      -0.1245
     24  CA        25.6770  -47.4190    7.7660 C.3    96  ARG96       0.1563
     25  C         24.1900  -47.3850    7.3800 C.2    96  ARG96       0.2260
     26  O         23.3410  -46.9670    8.1590 O.2    96  ARG96      -0.2867
     27  CB        25.9430  -48.6460    8.6440 C.3    96  ARG96       0.0307
     28  CG        25.6210  -49.9970    8.0000 C.3    96  ARG96       0.0489
     29  CD        25.4760  -51.0940    9.0410 C.3    96  ARG96       0.2205
     30  NE        26.7130  -51.2210    9.8240 N.pl3  96  ARG96      -0.0865
     31  CZ        26.8920  -50.8380   11.0930 C.cat  96  ARG96       0.5346
     32  NH1       25.9050  -50.3110   11.8330 N.pl3  96  ARG96       0.1354
     33  NH2       28.0890  -50.9990   11.6320 N.pl3  96  ARG96       0.1354
     34  N         28.4910  -48.6740    4.0170 N.3   115  SER115     -0.1217
     35  CA        29.0840  -47.8490    5.0480 C.3   115  SER115      0.1889
     36  C         29.8590  -46.6920    4.4520 C.2   115  SER115      0.2288
     37  O         30.1060  -46.6360    3.2340 O.2   115  SER115     -0.2866
     38  CB        30.0140  -48.6730    5.9390 C.3   115  SER115      0.2089
     39  OG        29.3910  -49.8640    6.3610 O.3   115  SER115     -0.2183
     40  N         33.0410  -46.1670    2.2050 N.3   122  TYR122     -0.1227
     41  CA        34.1110  -47.0150    2.7200 C.3   122  TYR122      0.1736
     42  C         33.9580  -48.4700    2.2850 C.2   122  TYR122      0.2595
     43  O         34.9100  -49.0530    1.7700 O.2   122  TYR122     -0.2718
     44  CB        34.1760  -46.9280    4.2400 C.3   122  TYR122      0.0548
     45  CG        35.2180  -47.8350    4.8600 C.ar  122  TYR122     -0.0200
     46  CD1       36.5520  -47.4450    4.9300 C.ar  122  TYR122     -0.0009
     47  CD2       34.8710  -49.0930    5.3810 C.ar  122  TYR122     -0.0009
     48  CE1       37.5150  -48.2710    5.4990 C.ar  122  TYR122      0.0417
     49  CE2       35.8320  -49.9230    5.9490 C.ar  122  TYR122      0.0417
     50  CZ        37.1520  -49.5030    6.0030 C.ar  122  TYR122      0.1957
     51  OH        38.1140  -50.2950    6.5660 O.3   122  TYR122     -0.2866
     52  N         32.7900  -49.0660    2.5190 N.am  123  ILE123     -0.1980
     53  CA        32.5410  -50.4580    2.1000 C.3   123  ILE123      0.1595
     54  C         31.0540  -50.7580    1.9500 C.2   123  ILE123      0.2287
     55  O         30.2370  -50.2750    2.7330 O.2   123  ILE123     -0.2864
     56  CB        33.2070  -51.4790    3.0720 C.3   123  ILE123      0.0276
     57  CG1       33.3550  -52.8590    2.4090 C.3   123  ILE123      0.0022
     58  CG2       32.4620  -51.5830    4.4020 C.3   123  ILE123      0.0022
     59  CD1       34.3200  -53.7770    3.1310 C.3   123  ILE123      0.0001
     60  N         39.2640  -54.6640    5.5630 N.3   142  THR142     -0.1218
     61  CA        37.9420  -55.0450    6.0610 C.3   142  THR142      0.1862
     62  C         37.3230  -56.1560    5.2070 C.2   142  THR142      0.2287
     63  O         36.7570  -57.1080    5.7530 O.2   142  THR142     -0.2866
     64  CB        36.9850  -53.8330    6.0860 C.3   142  THR142      0.1770
     65  OG1       37.6420  -52.7140    6.6880 O.3   142  THR142     -0.2211
     66  CG2       35.7070  -54.1520    6.8660 C.3   142  THR142      0.0375
     67  N         35.7160  -59.5060    6.5590 N.3   146  LEU146     -0.1245
     68  CA        34.2940  -59.8490    6.3660 C.3   146  LEU146      0.1561
     69  C         34.0530  -61.1090    5.5190 C.2   146  LEU146      0.2260
     70  O         33.0380  -61.7810    5.7010 O.2   146  LEU146     -0.2867
     71  CB        33.5180  -58.6770    5.7330 C.3   146  LEU146      0.0270
     72  CG        33.3800  -57.3550    6.5020 C.3   146  LEU146      0.0019
     73  CD1       32.6380  -56.3470    5.6430 C.3   146  LEU146      0.0001
     74  CD2       32.6720  -57.5230    7.8380 C.3   146  LEU146      0.0001
@<TRIPOS>BOND
     1    43    42    2
     2    54    53    1
     3    54    55    2
     4    53    52    1
     5    53    56    1
     6    40    41    1
     7    42    52   am
     8    42    41    1
     9    57    56    1
    10    57    59    1
    11    41    44    1
    12    56    58    1
    13    37    36    2
    14    34    35    1
    15    44    45    1
    16    36    35    1
    17    45    46   ar
    18    45    47   ar
    19    46    48   ar
    20    35    38    1
    21    62    63    2
    22    62    61    1
    23    47    49   ar
    24    48    50   ar
    25    69    70    2
    26    69    68    1
    27    60    61    1
    28    73    72    1
    29    71    68    1
    30    71    72    1
    31    38    39    1
    32    49    50   ar
    33    50    51    1
    34    61    64    1
    35    64    65    1
    36    64    66    1
    37    68    67    1
    38    72    74    1
    39    25    24    1
    40    25    26    2
    41    24    23    1
    42    24    27    1
    43    28    27    1
    44    28    29    1
    45    14    12    1
    46    29    30    1
    47    12    13    1
    48    12    11    1
    49    21    20    1
    50    30    31    2
    51    10     9    2
    52    11     8    1
    53    17    16    1
    54    17    18    2
    55    16    19    1
    56    16    15    1
    57    20    19    1
    58    20    22    1
    59    31    33    1
    60    31    32    1
    61     8     9    1
    62     8     7    1
    63     4     3    2
    64     6     5    1
    65     5     2    1
    66     3     2    1
    67     2     1    1
