@<TRIPOS>MOLECULE
tmp/5vgiB00.pdb
 223 212 0 0 0
SMALL
GASTEIGER

@<TRIPOS>ATOM
      1  N        -46.7090  -27.6570   90.4400 N.3    63  ILE63      -0.1245
      2  CA       -48.0270  -27.8170   89.8490 C.3    63  ILE63       0.1561
      3  C        -47.8720  -28.3700   88.4540 C.2    63  ILE63       0.2260
      4  O        -47.1160  -27.8130   87.5830 O.2    63  ILE63      -0.2867
      5  CB       -48.8310  -26.4630   89.8390 C.3    63  ILE63       0.0252
      6  CG1      -47.9670  -25.2370   89.3560 C.3    63  ILE63       0.0019
      7  CG2      -49.4090  -26.1950   91.2620 C.3    63  ILE63       0.0019
      8  CD1      -48.7650  -24.1370   88.6380 C.3    63  ILE63       0.0001
      9  N        -49.5110  -28.7780   84.9480 N.3    65  GLN65      -0.1245
     10  CA       -50.4340  -27.7890   84.2830 C.3    65  GLN65       0.1566
     11  C        -51.2140  -28.5290   83.2560 C.2    65  GLN65       0.2260
     12  O        -50.6960  -28.8700   82.1910 O.2    65  GLN65      -0.2867
     13  CB       -49.6040  -26.7290   83.6370 C.3    65  GLN65       0.0367
     14  CG       -48.9640  -25.8930   84.7520 C.3    65  GLN65       0.0905
     15  CD       -48.4590  -24.5570   84.2250 C.2    65  GLN65       0.2608
     16  OE1      -47.6960  -24.5560   83.2470 O.2    65  GLN65      -0.2717
     17  NE2      -48.8470  -23.4600   84.8520 N.am   65  GLN65      -0.0878
     18  N        -56.6270  -23.7610   81.9280 N.3    76  GLN76      -0.1245
     19  CA       -55.4650  -24.3780   82.5540 C.3    76  GLN76       0.1566
     20  C        -55.8310  -24.7150   84.0180 C.2    76  GLN76       0.2260
     21  O        -56.2960  -23.8350   84.7660 O.2    76  GLN76      -0.2867
     22  CB       -54.2700  -23.4180   82.5190 C.3    76  GLN76       0.0367
     23  CG       -52.9520  -24.0510   82.9940 C.3    76  GLN76       0.0905
     24  CD       -51.7730  -23.0810   82.9650 C.2    76  GLN76       0.2608
     25  OE1      -50.7850  -23.3190   82.2540 O.2    76  GLN76      -0.2717
     26  NE2      -51.8140  -22.0790   83.7620 N.am   76  GLN76      -0.0878
     27  N        -54.3840  -26.3130   87.4770 N.3    78  ASN78      -0.1240
     28  CA       -53.0870  -26.3440   88.0480 C.3    78  ASN78       0.1653
     29  C        -53.1170  -27.3250   89.1780 C.2    78  ASN78       0.2266
     30  O        -53.6350  -26.9540   90.1980 O.2    78  ASN78      -0.2867
     31  CB       -52.7390  -24.9510   88.5050 C.3    78  ASN78       0.1155
     32  CG       -52.2110  -24.1490   87.3820 C.2    78  ASN78       0.2627
     33  OD1      -51.3060  -24.6060   86.6520 O.2    78  ASN78      -0.2716
     34  ND2      -52.7640  -22.9630   87.1860 N.am   78  ASN78      -0.0877
     35  N        -44.7470  -27.0780   86.6980 N.3   124  TYR124     -0.1241
     36  CA       -44.1710  -25.7270   86.8590 C.3   124  TYR124      0.1605
     37  C        -43.7660  -25.5860   88.3540 C.2   124  TYR124      0.2264
     38  O        -44.6570  -25.8080   89.2460 O.2   124  TYR124     -0.2867
     39  CB       -45.2620  -24.6170   86.5690 C.3   124  TYR124      0.0534
     40  CG       -44.7360  -23.2330   86.2610 C.ar  124  TYR124     -0.0201
     41  CD1      -43.4040  -22.8930   86.3950 C.ar  124  TYR124     -0.0009
     42  CD2      -45.5540  -22.2770   85.7260 C.ar  124  TYR124     -0.0009
     43  CE1      -42.9210  -21.6250   86.0700 C.ar  124  TYR124      0.0417
     44  CE2      -45.0830  -21.0300   85.4150 C.ar  124  TYR124      0.0417
     45  CZ       -43.7260  -20.7010   85.5870 C.ar  124  TYR124      0.1957
     46  OH       -43.2100  -19.4440   85.2110 O.3   124  TYR124     -0.2866
     47  N        -43.7180  -23.3520   90.5500 N.3   126  ALA126     -0.1231
     48  CA       -44.2310  -21.9450   90.6720 C.3   126  ALA126      0.1694
     49  C        -44.4000  -21.4150   92.1360 C.2   126  ALA126      0.2592
     50  O        -44.4620  -22.2650   93.0970 O.2   126  ALA126     -0.2718
     51  CB       -45.5510  -21.8230   89.9370 C.3   126  ALA126      0.0304
     52  N        -44.4100  -20.0710   92.3150 N.am  127  ASP127     -0.1974
     53  CA       -44.8230  -19.4860   93.6430 C.3   127  ASP127      0.1709
     54  C        -43.9730  -19.9800   94.8390 C.2   127  ASP127      0.2293
     55  O        -44.4470  -20.0670   95.9780 O.2   127  ASP127     -0.2864
     56  CB       -46.3160  -19.7880   93.9220 C.3   127  ASP127      0.1436
     57  CG       -47.2740  -19.1440   92.8710 C.2   127  ASP127      0.3671
     58  OD1      -46.8040  -18.4160   91.9660 O.co2 127  ASP127     -0.2456
     59  OD2      -48.5060  -19.3650   92.9340 O.co2 127  ASP127     -0.2456
     60  N        -39.8460  -18.9170   90.3710 N.3   169  TYR169     -0.1241
     61  CA       -40.5600  -19.7010   89.3810 C.3   169  TYR169      0.1605
     62  C        -39.4960  -20.5030   88.6520 C.2   169  TYR169      0.2264
     63  O        -38.6920  -19.9450   87.8940 O.2   169  TYR169     -0.2867
     64  CB       -41.3390  -18.8140   88.3930 C.3   169  TYR169      0.0534
     65  CG       -42.4160  -17.9570   89.0410 C.ar  169  TYR169     -0.0201
     66  CD1      -42.1090  -16.6850   89.6520 C.ar  169  TYR169     -0.0009
     67  CD2      -43.7240  -18.3800   89.0110 C.ar  169  TYR169     -0.0009
     68  CE1      -43.1300  -15.9330   90.2650 C.ar  169  TYR169      0.0417
     69  CE2      -44.7340  -17.6550   89.6290 C.ar  169  TYR169      0.0417
     70  CZ       -44.4440  -16.4460   90.2480 C.ar  169  TYR169      0.1957
     71  OH       -45.5250  -15.7840   90.8090 O.3   169  TYR169     -0.2866
     72  N        -46.8050  -22.4410   81.5540 N.3   176  SER176     -0.1202
     73  CA       -47.5200  -21.2220   81.0590 C.3   176  SER176      0.2020
     74  C        -48.0480  -20.3660   82.1650 C.2   176  SER176      0.2619
     75  O        -48.3460  -20.9050   83.1860 O.2   176  SER176     -0.2717
     76  CB       -48.8280  -21.6040   80.2820 C.3   176  SER176      0.2103
     77  OG       -48.4180  -22.0090   79.0860 O.3   176  SER176     -0.2182
     78  N        -48.2600  -19.0620   81.8730 N.am  177  PHE177     -0.1961
     79  CA       -49.0360  -18.1750   82.7720 C.3   177  PHE177      0.1771
     80  C        -50.1980  -17.5780   81.8920 C.2   177  PHE177      0.2616
     81  O        -50.0140  -17.2040   80.7210 O.2   177  PHE177     -0.2715
     82  CB       -48.1220  -17.1350   83.5170 C.3   177  PHE177      0.0574
     83  CG       -47.2060  -16.3400   82.6280 C.ar  177  PHE177     -0.0200
     84  CD1      -46.0230  -16.8480   82.1440 C.ar  177  PHE177     -0.0042
     85  CD2      -47.5570  -15.0300   82.2660 C.ar  177  PHE177     -0.0042
     86  CE1      -45.1250  -16.0530   81.3350 C.ar  177  PHE177     -0.0003
     87  CE2      -46.7320  -14.2210   81.4350 C.ar  177  PHE177     -0.0003
     88  CZ       -45.4970  -14.7260   80.9720 C.ar  177  PHE177     -0.0000
     89  N        -51.4020  -17.7530   82.3560 N.am  178  ALA178     -0.2030
     90  CA       -52.5340  -17.3060   81.7120 C.3   178  ALA178      0.1283
     91  C        -52.5670  -15.7200   81.6660 C.3   178  ALA178      0.2036
     92  O        -51.7270  -14.9900   82.3650 O.3   178  ALA178     -0.2185
     93  CB       -53.7260  -17.9140   82.4390 C.3   178  ALA178      0.0262
     94  N        -53.7340  -12.1990   82.5970 N.3   180  HIS180     -0.1241
     95  CA       -54.1780  -11.5800   83.8770 C.3   180  HIS180      0.1621
     96  C        -53.5080  -10.2410   83.9520 C.2   180  HIS180      0.2264
     97  O        -52.4820  -10.0060   83.2660 O.2   180  HIS180     -0.2867
     98  CB       -53.7780  -12.5110   85.0800 C.3   180  HIS180      0.0745
     99  CG       -52.3080  -12.6380   85.2490 C.ar  180  HIS180      0.0817
    100  ND1      -51.5390  -13.4350   84.4290 N.ar  180  HIS180     -0.2268
    101  CD2      -51.4400  -11.9800   86.0630 C.ar  180  HIS180      0.1154
    102  CE1      -50.2640  -13.2810   84.7500 C.ar  180  HIS180      0.1986
    103  NE2      -50.1720  -12.4360   85.7550 N.ar  180  HIS180     -0.2212
    104  N        -52.0860   -7.8400   87.3410 N.3   182  GLU182     -0.1245
    105  CA       -51.6150   -8.2310   88.6760 C.3   182  GLU182      0.1567
    106  C        -52.7180   -7.9900   89.7610 C.2   182  GLU182      0.2260
    107  O        -53.7160   -7.3190   89.4980 O.2   182  GLU182     -0.2867
    108  CB       -50.4150   -7.3760   89.0430 C.3   182  GLU182      0.0388
    109  CG       -49.2470   -7.5060   88.1050 C.3   182  GLU182      0.1160
    110  CD       -48.8520   -8.9540   88.0030 C.2   182  GLU182      0.3649
    111  OE1      -48.3360   -9.5410   88.9550 O.co2 182  GLU182     -0.2457
    112  OE2      -49.0920   -9.5330   86.9420 O.co2 182  GLU182     -0.2457
    113  N        -40.0680   -8.8640   86.9520 N.3   190  ASN190     -0.1240
    114  CA       -39.7420  -10.2540   86.7240 C.3   190  ASN190      0.1653
    115  C        -38.2740  -10.2600   86.2120 C.2   190  ASN190      0.2266
    116  O        -37.9740   -9.7310   85.1260 O.2   190  ASN190     -0.2867
    117  CB       -40.7200  -10.9870   85.7770 C.3   190  ASN190      0.1155
    118  CG       -40.3470  -12.5350   85.5290 C.2   190  ASN190      0.2627
    119  OD1      -39.3150  -12.9110   84.8280 O.2   190  ASN190     -0.2716
    120  ND2      -41.2270  -13.4630   86.0060 N.am  190  ASN190     -0.0877
    121  N        -38.1650  -16.9000   78.4420 N.3   198  LYS198     -0.1245
    122  CA       -39.6050  -16.8120   78.7460 C.3   198  LYS198      0.1561
    123  C        -40.1950  -15.8280   77.7700 C.2   198  LYS198      0.2260
    124  O        -39.7160  -14.7240   77.7210 O.2   198  LYS198     -0.2867
    125  CB       -39.7920  -16.3260   80.2140 C.3   198  LYS198      0.0271
    126  CG       -41.2450  -16.1210   80.6220 C.3   198  LYS198      0.0035
    127  CD       -41.3690  -15.4660   81.9890 C.3   198  LYS198      0.0206
    128  CE       -40.5660  -16.1370   83.1740 C.3   198  LYS198      0.1093
    129  NZ       -41.1290  -17.4480   83.6520 N.3   198  LYS198     -0.1314
    130  N        -43.6220  -13.7390   76.1480 N.3   200  TRP200     -0.1241
    131  CA       -44.6800  -12.9290   76.8160 C.3   200  TRP200      0.1605
    132  C        -45.5200  -12.3970   75.6910 C.2   200  TRP200      0.2264
    133  O        -44.9300  -12.0420   74.6470 O.2   200  TRP200     -0.2867
    134  CB       -44.0160  -11.7030   77.4610 C.3   200  TRP200      0.0550
    135  CG       -43.1290  -11.9940   78.7230 C.ar  200  TRP200      0.0003
    136  CD1      -41.9270  -12.6180   78.7640 C.ar  200  TRP200      0.0946
    137  CD2      -43.4570  -11.6600   80.0840 C.ar  200  TRP200      0.0152
    138  NE1      -41.4460  -12.6340   80.0720 N.ar  200  TRP200     -0.2442
    139  CE2      -42.3710  -12.0460   80.8920 C.ar  200  TRP200      0.0810
    140  CE3      -44.5480  -11.0350   80.6830 C.ar  200  TRP200      0.0012
    141  CZ2      -42.3670  -11.8570   82.3120 C.ar  200  TRP200      0.0191
    142  CZ3      -44.5590  -10.8070   82.0690 C.ar  200  TRP200      0.0001
    143  CH2      -43.4850  -11.2190   82.8890 C.ar  200  TRP200      0.0015
    144  N        -58.7960  -13.1140   86.7920 N.3   231  ARG231     -0.1231
    145  CA       -57.8970  -13.1170   88.0130 C.3   231  ARG231      0.1694
    146  C        -57.6800  -14.5700   88.5780 C.2   231  ARG231      0.2592
    147  O        -56.7140  -14.8080   89.3110 O.2   231  ARG231     -0.2718
    148  CB       -58.3220  -12.1740   89.1590 C.3   231  ARG231      0.0321
    149  CG       -58.4620  -10.7270   88.7550 C.3   231  ARG231      0.0489
    150  CD       -58.4840   -9.9070   90.0260 C.3   231  ARG231      0.2205
    151  NE       -58.7050   -8.5150   89.6650 N.pl3 231  ARG231     -0.0865
    152  CZ       -57.7180   -7.7170   89.2790 C.cat 231  ARG231      0.5346
    153  NH1      -56.4830   -8.1810   89.2800 N.pl3 231  ARG231      0.1354
    154  NH2      -57.9440   -6.4460   88.9650 N.pl3 231  ARG231      0.1354
    155  N        -58.5390  -15.5110   88.1600 N.am  232  HIS232     -0.1962
    156  CA       -58.3190  -16.9460   88.4800 C.3   232  HIS232      0.1787
    157  C        -57.1240  -17.4910   87.7820 C.2   232  HIS232      0.2620
    158  O        -56.6930  -18.5610   88.1510 O.2   232  HIS232     -0.2715
    159  CB       -59.5310  -17.7840   88.1490 C.3   232  HIS232      0.0785
    160  CG       -60.7790  -17.2810   88.7790 C.ar  232  HIS232      0.0821
    161  ND1      -62.0250  -17.6620   88.3340 N.ar  232  HIS232     -0.2267
    162  CD2      -60.9880  -16.3640   89.7670 C.ar  232  HIS232      0.1154
    163  CE1      -62.9520  -17.0540   89.0670 C.ar  232  HIS232      0.1986
    164  NE2      -62.3470  -16.2700   89.9480 N.ar  232  HIS232     -0.2212
    165  N        -56.5170  -16.7140   86.8560 N.am  233  LYS233     -0.1963
    166  CA       -55.3050  -17.1620   86.0970 C.3   233  LYS233      0.1728
    167  C        -55.4130  -18.5560   85.5060 C.2   233  LYS233      0.2616
    168  O        -54.4990  -19.3650   85.5920 O.2   233  LYS233     -0.2715
    169  CB       -54.0010  -16.9920   86.8590 C.3   233  LYS233      0.0311
    170  CG       -53.7840  -15.5630   87.4070 C.3   233  LYS233      0.0038
    171  CD       -52.5180  -15.5230   88.2700 C.3   233  LYS233      0.0206
    172  CE       -52.4030  -14.3190   89.2120 C.3   233  LYS233      0.1093
    173  NZ       -50.9550  -13.9130   89.0250 N.3   233  LYS233     -0.1314
    174  N        -56.5420  -18.8670   84.8640 N.am  234  MET234     -0.1977
    175  CA       -56.6630  -20.1780   84.2530 C.3   234  MET234      0.1605
    176  C        -56.9690  -19.9910   82.7080 C.2   234  MET234      0.2287
    177  O        -57.2410  -20.9430   81.9830 O.2   234  MET234     -0.2864
    178  CB       -57.8180  -20.9310   84.9370 C.3   234  MET234      0.0413
    179  CG       -57.6720  -21.1650   86.4380 C.3   234  MET234      0.0598
    180  SD       -59.2770  -21.7530   87.0630 S.3   234  MET234     -0.1393
    181  CE       -59.5450  -23.3970   86.4090 C.3   234  MET234      0.0692
    182  N        -44.2870   -5.1290   84.2200 N.3   262  THR262     -0.1218
    183  CA       -45.6270   -5.0800   83.7850 C.3   262  THR262      0.1862
    184  C        -46.1920   -3.8640   84.5810 C.2   262  THR262      0.2287
    185  O        -45.7500   -3.6380   85.7340 O.2   262  THR262     -0.2866
    186  CB       -46.4390   -6.3630   84.0660 C.3   262  THR262      0.1770
    187  OG1      -46.8920   -6.3870   85.4580 O.3   262  THR262     -0.2211
    188  CG2      -45.6480   -7.6460   83.7660 C.3   262  THR262      0.0375
    189  N        -51.1210   -9.6970   80.6120 N.3   268  HIS268     -0.1297
    190  CA       -49.9900  -10.4330   79.9340 C.3   268  HIS268      0.1306
    191  C        -50.2730  -11.9030   80.1120 C.3   268  HIS268      0.2013
    192  O        -51.1050  -12.3050   81.0100 O.3   268  HIS268     -0.2188
    193  CB       -48.6550  -10.0520   80.5980 C.3   268  HIS268      0.0691
    194  CG       -48.7350   -9.9870   82.1050 C.ar  268  HIS268      0.0814
    195  ND1      -49.3500   -8.9470   82.7640 N.ar  268  HIS268     -0.2268
    196  CD2      -48.1580  -10.7530   83.0730 C.ar  268  HIS268      0.1154
    197  CE1      -49.2140   -9.1100   84.0800 C.ar  268  HIS268      0.1986
    198  NE2      -48.5010  -10.2060   84.2830 N.ar  268  HIS268     -0.2212
    199  N        -39.9040  -12.8810   90.9750 N.3   280  SER280     -0.1217
    200  CA       -40.7150  -11.6720   90.7370 C.3   280  SER280      0.1889
    201  C        -41.4160  -11.1090   92.0110 C.2   280  SER280      0.2288
    202  O        -41.4810  -11.8300   93.0180 O.2   280  SER280     -0.2866
    203  CB       -41.7500  -11.9490   89.6330 C.3   280  SER280      0.2089
    204  OG       -42.7400  -12.7150   90.2010 O.3   280  SER280     -0.2183
    205  N        -64.3730  -15.7670   95.5790 N.3   301  ARG301     -0.1245
    206  CA       -63.4230  -16.4780   96.4640 C.3   301  ARG301      0.1563
    207  C        -63.0870  -15.5800   97.6310 C.2   301  ARG301      0.2260
    208  O        -63.0090  -14.3560   97.4520 O.2   301  ARG301     -0.2867
    209  CB       -62.1230  -16.8470   95.7410 C.3   301  ARG301      0.0307
    210  CG       -62.2690  -17.9410   94.6960 C.3   301  ARG301      0.0489
    211  CD       -61.0090  -18.1390   93.9060 C.3   301  ARG301      0.2205
    212  NE       -61.1880  -18.9660   92.6980 N.pl3 301  ARG301     -0.0865
    213  CZ       -60.2230  -19.2380   91.8050 C.cat 301  ARG301      0.5346
    214  NH1      -58.9880  -18.7430   91.9290 N.pl3 301  ARG301      0.1354
    215  NH2      -60.4820  -20.0020   90.7570 N.pl3 301  ARG301      0.1354
    216  N        -58.9170  -14.0980   98.1460 N.3   304  MET304     -0.1245
    217  CA       -58.2440  -13.4170   97.0300 C.3   304  MET304      0.1570
    218  C        -57.6040  -12.1650   97.5950 C.2   304  MET304      0.2261
    219  O        -57.9400  -11.7300   98.7130 O.2   304  MET304     -0.2867
    220  CB       -59.1910  -13.1020   95.8630 C.3   304  MET304      0.0387
    221  CG       -59.4970  -14.2950   94.9540 C.3   304  MET304      0.0595
    222  SD       -58.3490  -14.7590   93.5800 S.3   304  MET304     -0.1393
    223  CE       -57.7590  -13.1910   92.8160 C.3   304  MET304      0.0692
@<TRIPOS>BOND
     1   133   132    2
     2   132   131    1
     3   130   131    1
     4   131   134    1
     5   134   135    1
     6   124   123    2
     7   123   122    1
     8   121   122    1
     9   135   136   ar
    10   135   137   ar
    11   122   125    1
    12   136   138   ar
    13    77    76    1
    14   190   191    1
    15   190   193    1
    16   190   189    1
    17   138   139   ar
    18   137   140   ar
    19   137   139   ar
    20   191   192    1
    21   125   126    1
    22    76    73    1
    23   193   194    1
    24   126   127    1
    25   140   142   ar
    26    81    80    2
    27   139   141   ar
    28    88    86   ar
    29    88    87   ar
    30    73    72    1
    31    73    74    1
    32    86    84   ar
    33    87    85   ar
    34    91    90    1
    35    91    92    1
    36    90    89    1
    37    90    93    1
    38    78    74   am
    39    78    79    1
    40    80    89   am
    41    80    79    1
    42    18    19    1
    43   177   176    2
    44   127   128    1
    45   142   143   ar
    46   194   195   ar
    47   194   196   ar
    48    84    83   ar
    49    74    75    2
    50    12    11    2
    51    25    24    2
    52    85    83   ar
    53   141   143   ar
    54    22    19    1
    55    22    23    1
    56    19    20    1
    57    94    95    1
    58    83    82    1
    59   176   175    1
    60   195   197   ar
    61    79    82    1
    62    24    23    1
    63    24    26   am
    64   196   198   ar
    65   128   129    1
    66    16    15    2
    67    11    10    1
    68    97    96    2
    69    13    10    1
    70    13    14    1
    71   188   186    1
    72   183   186    1
    73   183   182    1
    74   183   184    1
    75    95    96    1
    76    95    98    1
    77    20    21    2
    78   186   187    1
    79   197   198   ar
    80    15    14    1
    81    15    17   am
    82   175   174    1
    83   175   178    1
    84    10     9    1
    85   100   102   ar
    86   100    99   ar
    87   184   185    2
    88   102   103   ar
    89   119   118    2
    90   174   167   am
    91   178   179    1
    92    98    99    1
    93   116   115    2
    94    46    45    1
    95    99   101   ar
    96    44    45   ar
    97    44    42   ar
    98   167   168    2
    99   167   166    1
   100   118   117    1
   101   118   120   am
   102    45    43   ar
   103    42    40   ar
   104   103   101   ar
   105   117   114    1
   106    43    41   ar
   107   166   165    1
   108   166   169    1
   109   115   114    1
   110    40    41   ar
   111    40    39    1
   112   181   180    1
   113   179   180    1
   114    39    36    1
   115    33    32    2
   116    35    36    1
   117   114   113    1
   118   144   145    1
   119   165   157   am
   120   169   170    1
   121    36    37    1
   122   112   110   ar
   123    34    32   am
   124   104   105    1
   125    32    31    1
   126   170   171    1
   127    27    28    1
   128     4     3    2
   129   157   158    2
   130   157   156    1
   131    63    62    2
   132   110   109    1
   133   110   111   ar
   134   145   146    1
   135   145   148    1
   136    28    31    1
   137    28    29    1
   138   109   108    1
   139   159   156    1
   140   159   160    1
   141   155   156    1
   142   155   146   am
   143   171   172    1
   144   161   160   ar
   145   161   163   ar
   146    37    38    2
   147    64    65    1
   148    64    61    1
   149     3     2    1
   150   146   147    2
   151     8     6    1
   152    62    61    1
   153   105   108    1
   154   105   106    1
   155   149   148    1
   156   149   150    1
   157   160   162   ar
   158   154   152    1
   159    67    65   ar
   160    67    69   ar
   161   173   172    1
   162    65    66   ar
   163   163   164   ar
   164    29    30    2
   165   152   153    1
   166   152   151    2
   167     6     5    1
   168    61    60    1
   169   107   106    2
   170    69    70   ar
   171   203   204    1
   172   203   200    1
   173    66    68   ar
   174   151   150    1
   175   162   164   ar
   176     5     2    1
   177     5     7    1
   178     2     1    1
   179    51    48    1
   180    70    68   ar
   181    70    71    1
   182    47    48    1
   183    48    49    1
   184   200   199    1
   185   200   201    1
   186   215   213    1
   187   213   214    1
   188   213   212    2
   189    58    57   ar
   190   201   202    2
   191    49    52   am
   192    49    50    2
   193    52    53    1
   194   212   211    1
   195   223   222    1
   196    57    59   ar
   197    57    56    1
   198   222   221    1
   199    53    56    1
   200    53    54    1
   201   211   210    1
   202   210   209    1
   203    54    55    2
   204   221   220    1
   205   205   206    1
   206   209   206    1
   207   220   217    1
   208   206   207    1
   209   217   218    1
   210   217   216    1
   211   208   207    2
   212   218   219    2
