@<TRIPOS>MOLECULE
tmp/5vgjB04.pdb
 85 86 0 0 0
SMALL
GASTEIGER

@<TRIPOS>ATOM
      1  N         27.9590  215.9860  125.2820 N.3    32  ASN32      -0.1240
      2  CA        28.8160  214.8170  125.3980 C.3    32  ASN32       0.1653
      3  C         28.4640  213.9970  126.6300 C.2    32  ASN32       0.2266
      4  O         28.0510  214.5320  127.6630 O.2    32  ASN32      -0.2867
      5  CB        30.2890  215.2250  125.4740 C.3    32  ASN32       0.1155
      6  CG        30.8260  215.7210  124.1530 C.2    32  ASN32       0.2627
      7  OD1       30.8420  216.9220  123.8850 O.2    32  ASN32      -0.2716
      8  ND2       31.2760  214.7960  123.3180 N.am   32  ASN32      -0.0877
      9  N         35.9090  212.7870  128.8870 N.3    97  ARG97      -0.1231
     10  CA        34.9420  213.2400  127.8960 C.3    97  ARG97       0.1694
     11  C         34.6690  212.1180  126.9020 C.2    97  ARG97       0.2593
     12  O         35.5840  211.6580  126.2090 O.2    97  ARG97      -0.2718
     13  CB        35.4640  214.4810  127.1750 C.3    97  ARG97       0.0321
     14  CG        34.5290  215.0220  126.1050 C.3    97  ARG97       0.0489
     15  CD        35.2650  215.9440  125.1470 C.3    97  ARG97       0.2205
     16  NE        34.3480  216.6940  124.2940 N.pl3  97  ARG97      -0.0865
     17  CZ        34.7240  217.4020  123.2340 C.cat  97  ARG97       0.5346
     18  NH1       36.0030  217.4510  122.8860 N.pl3  97  ARG97       0.1354
     19  NH2       33.8210  218.0570  122.5170 N.pl3  97  ARG97       0.1354
     20  N         33.4160  211.6780  126.8290 N.am   98  GLY98      -0.1943
     21  CA        33.0330  210.6230  125.9230 C.3    98  GLY98       0.1998
     22  C         32.4050  211.1560  124.6520 C.2    98  GLY98       0.2481
     23  O         32.4030  212.3630  124.3880 O.2    98  GLY98      -0.2729
     24  N         31.8590  210.2600  123.8350 N.am   99  PRO99      -0.2715
     25  CA        31.2060  210.6890  122.5940 C.3    99  PRO99       0.1536
     26  C         29.9140  211.4370  122.8860 C.2    99  PRO99       0.2598
     27  O         29.4230  211.4830  124.0150 O.2    99  PRO99      -0.2715
     28  CB        30.9380  209.3710  121.8630 C.3    99  PRO99       0.0310
     29  CG        30.8140  208.3650  122.9630 C.3    99  PRO99       0.0237
     30  CD        31.7930  208.8000  124.0210 C.3    99  PRO99       0.0939
     31  N         29.3610  212.0370  121.8360 N.am  100  GLU100     -0.1978
     32  CA        28.0810  212.7190  121.9670 C.3   100  GLU100      0.1602
     33  C         26.9820  211.7000  122.2450 C.2   100  GLU100      0.2287
     34  O         26.9150  210.6500  121.5990 O.2   100  GLU100     -0.2864
     35  CB        27.7740  213.5260  120.7070 C.3   100  GLU100      0.0415
     36  CG        28.7780  214.6430  120.4540 C.3   100  GLU100      0.1163
     37  CD        28.2200  215.7570  119.5910 C.2   100  GLU100      0.3649
     38  OE1       27.1790  215.5440  118.9350 O.co2 100  GLU100     -0.2457
     39  OE2       28.8230  216.8510  119.5760 O.co2 100  GLU100     -0.2457
     40  N         28.7320  207.7450  114.9940 N.3   107  TYR107     -0.1227
     41  CA        29.9880  208.4550  115.2100 C.3   107  TYR107      0.1736
     42  C         30.5600  208.0410  116.5590 C.2   107  TYR107      0.2595
     43  O         30.0460  208.4500  117.6050 O.2   107  TYR107     -0.2718
     44  CB        29.7840  209.9720  115.1630 C.3   107  TYR107      0.0548
     45  CG        29.0800  210.4940  113.9290 C.ar  107  TYR107     -0.0200
     46  CD1       29.7070  210.4900  112.6910 C.ar  107  TYR107     -0.0009
     47  CD2       27.7960  211.0200  114.0110 C.ar  107  TYR107     -0.0009
     48  CE1       29.0690  210.9780  111.5640 C.ar  107  TYR107      0.0417
     49  CE2       27.1510  211.5110  112.8900 C.ar  107  TYR107      0.0417
     50  CZ        27.7910  211.4880  111.6690 C.ar  107  TYR107      0.1957
     51  OH        27.1500  211.9760  110.5530 O.3   107  TYR107     -0.2866
     52  N         31.6220  207.2370  116.5390 N.am  108  TYR108     -0.1962
     53  CA        32.3740  206.9210  117.7490 C.3   108  TYR108      0.1771
     54  C         33.8570  207.0020  117.4320 C.2   108  TYR108      0.2620
     55  O         34.3330  206.3300  116.5120 O.2   108  TYR108     -0.2715
     56  CB        32.0190  205.5370  118.3010 C.3   108  TYR108      0.0574
     57  CG        32.8030  205.1870  119.5460 C.ar  108  TYR108     -0.0198
     58  CD1       32.8250  206.0480  120.6350 C.ar  108  TYR108     -0.0009
     59  CD2       33.5230  204.0030  119.6340 C.ar  108  TYR108     -0.0009
     60  CE1       33.5410  205.7430  121.7760 C.ar  108  TYR108      0.0417
     61  CE2       34.2420  203.6870  120.7730 C.ar  108  TYR108      0.0417
     62  CZ        34.2470  204.5610  121.8400 C.ar  108  TYR108      0.1957
     63  OH        34.9590  204.2540  122.9760 O.3   108  TYR108     -0.2866
     64  N         34.5860  207.8180  118.1960 N.am  109  TRP109     -0.1960
     65  CA        36.0100  208.0390  117.9680 C.3   109  TRP109      0.1771
     66  C         36.8430  207.7560  119.2120 C.2   109  TRP109      0.2620
     67  O         38.0010  208.1790  119.2890 O.2   109  TRP109     -0.2715
     68  CB        36.2560  209.4690  117.4830 C.3   109  TRP109      0.0590
     69  CG        35.3000  209.9170  116.4210 C.ar  109  TRP109      0.0006
     70  CD1       34.3200  210.8590  116.5440 C.ar  109  TRP109      0.0946
     71  CD2       35.2250  209.4360  115.0740 C.ar  109  TRP109      0.0152
     72  NE1       33.6440  210.9980  115.3570 N.ar  109  TRP109     -0.2442
     73  CE2       34.1790  210.1350  114.4380 C.ar  109  TRP109      0.0810
     74  CE3       35.9410  208.4840  114.3430 C.ar  109  TRP109      0.0012
     75  CZ2       33.8330  209.9130  113.1070 C.ar  109  TRP109      0.0191
     76  CZ3       35.5960  208.2650  113.0210 C.ar  109  TRP109      0.0001
     77  CH2       34.5510  208.9760  112.4180 C.ar  109  TRP109      0.0015
     78  N         36.2800  207.0500  120.1860 N.am  110  GLY110     -0.1954
     79  CA        36.9960  206.7510  121.4090 C.3   110  GLY110      0.1869
     80  C         36.8490  207.8380  122.4530 C.2   110  GLY110      0.2309
     81  O         36.2340  208.8890  122.2440 O.2   110  GLY110     -0.2863
     82  N         38.5220  210.5720  124.0950 N.3   112  GLY112     -0.1225
     83  CA        39.6580  211.4070  123.7620 C.3   112  GLY112      0.1811
     84  C         40.2870  212.1690  124.9100 C.2   112  GLY112      0.2280
     85  O         41.5160  212.2140  125.0150 O.2   112  GLY112     -0.2866
@<TRIPOS>BOND
     1    51    50    1
     2    48    50   ar
     3    48    46   ar
     4    50    49   ar
     5    77    76   ar
     6    77    75   ar
     7    46    45   ar
     8    49    47   ar
     9    76    74   ar
    10    75    73   ar
    11    45    47   ar
    12    45    44    1
    13    74    71   ar
    14    73    71   ar
    15    73    72   ar
    16    40    41    1
    17    71    69   ar
    18    44    41    1
    19    41    42    1
    20    72    70   ar
    21    69    70   ar
    22    69    68    1
    23    55    54    2
    24    52    42   am
    25    52    53    1
    26    42    43    2
    27    54    53    1
    28    54    64   am
    29    68    65    1
    30    53    56    1
    31    65    64    1
    32    65    66    1
    33    56    57    1
    34    38    37   ar
    35    66    67    2
    36    66    78   am
    37    57    59   ar
    38    57    58   ar
    39    39    37   ar
    40    37    36    1
    41    59    61   ar
    42    78    79    1
    43    36    35    1
    44    58    60   ar
    45    35    32    1
    46    61    62   ar
    47    79    80    1
    48    34    33    2
    49    60    62   ar
    50    31    32    1
    51    31    26   am
    52    62    63    1
    53    28    25    1
    54    28    29    1
    55    32    33    1
    56    81    80    2
    57    19    17    1
    58    25    26    1
    59    25    24    1
    60    26    27    2
    61    18    17    1
    62    29    30    1
    63    17    16    2
    64     8     6   am
    65    83    82    1
    66    83    84    1
    67    24    30    1
    68    24    22   am
    69     7     6    2
    70     6     5    1
    71    16    15    1
    72    23    22    2
    73    22    21    1
    74    84    85    2
    75    15    14    1
    76     1     2    1
    77     2     5    1
    78     2     3    1
    79    21    20    1
    80    14    13    1
    81    12    11    2
    82     3     4    2
    83    20    11   am
    84    11    10    1
    85    13    10    1
    86    10     9    1
