@<TRIPOS>MOLECULE
tmp/5vgoA01.pdb
 81 75 0 0 0
SMALL
GASTEIGER

@<TRIPOS>ATOM
      1  N        -40.6950   31.4800  -15.3260 N.3    15  LEU15      -0.1245
      2  CA       -40.2340   30.1780  -14.8330 C.3    15  LEU15       0.1561
      3  C        -41.3450   29.3660  -14.2040 C.2    15  LEU15       0.2260
      4  O        -41.0970   28.2920  -13.6580 O.2    15  LEU15      -0.2867
      5  CB       -39.1070   30.3360  -13.8210 C.3    15  LEU15       0.0270
      6  CG       -37.8110   30.9700  -14.3120 C.3    15  LEU15       0.0019
      7  CD1      -36.8270   31.1370  -13.1580 C.3    15  LEU15       0.0001
      8  CD2      -37.1850   30.1660  -15.4570 C.3    15  LEU15       0.0001
      9  N        -44.9710   28.9620  -11.6830 N.3    17  THR17      -0.1218
     10  CA       -45.5770   29.4300  -10.4490 C.3    17  THR17       0.1862
     11  C        -45.2210   28.4830   -9.3040 C.2    17  THR17       0.2287
     12  O        -45.1720   27.2650   -9.4900 O.2    17  THR17      -0.2866
     13  CB       -47.1200   29.5410  -10.5900 C.3    17  THR17       0.1770
     14  OG1      -47.4400   30.4770  -11.6290 O.3    17  THR17      -0.2211
     15  CG2      -47.7570   30.0100   -9.2880 C.3    17  THR17       0.0375
     16  N        -30.8670   24.3780  -14.9560 N.3    86  ASN86      -0.1225
     17  CA       -31.4980   23.0880  -15.2470 C.3    86  ASN86       0.1785
     18  C        -32.7330   22.7890  -14.3890 C.2    86  ASN86       0.2598
     19  O        -33.3250   21.7110  -14.4760 O.2    86  ASN86      -0.2718
     20  CB       -30.4640   21.9630  -15.1210 C.3    86  ASN86       0.1169
     21  CG       -29.7470   21.6900  -16.4330 C.2    86  ASN86       0.2627
     22  OD1      -30.3790   21.6160  -17.4860 O.2    86  ASN86      -0.2716
     23  ND2      -28.4310   21.5380  -16.3770 N.am   86  ASN86      -0.0877
     24  N        -33.1410   23.7510  -13.5770 N.am   87  GLY87      -0.1942
     25  CA       -34.4050   23.6440  -12.8840 C.3    87  GLY87       0.2014
     26  C        -34.4050   22.6180  -11.7700 C.2    87  GLY87       0.2639
     27  O        -33.3600   22.2710  -11.2300 O.2    87  GLY87      -0.2714
     28  N        -35.5860   22.1300  -11.4180 N.am   88  CYS88      -0.1967
     29  CA       -35.6670   21.3570  -10.1870 C.3    88  CYS88       0.1712
     30  C        -35.1510   19.9340  -10.3990 C.2    88  CYS88       0.2296
     31  O        -35.2460   19.3600  -11.4890 O.2    88  CYS88      -0.2864
     32  CB       -37.0860   21.3460   -9.6400 C.3    88  CYS88       0.0983
     33  SG       -38.2020   20.2600  -10.5180 S.3    88  CYS88      -0.0798
     34  N        -37.5460   16.9510  -11.7340 N.3    91  ASN91      -0.1225
     35  CA       -37.7320   16.8850  -13.1820 C.3    91  ASN91       0.1785
     36  C        -36.4500   16.4480  -13.8800 C.2    91  ASN91       0.2597
     37  O        -36.4900   15.7040  -14.8640 O.2    91  ASN91      -0.2718
     38  CB       -38.2000   18.2320  -13.7510 C.3    91  ASN91       0.1169
     39  CG       -39.6370   18.5750  -13.3760 C.2    91  ASN91       0.2627
     40  OD1      -40.0720   19.7200  -13.5390 O.2    91  ASN91      -0.2716
     41  ND2      -40.3760   17.5970  -12.8730 N.am   91  ASN91      -0.0877
     42  N        -35.3130   16.8980  -13.3560 N.am   92  TYR92      -0.1976
     43  CA       -34.0110   16.6030  -13.9440 C.3    92  TYR92       0.1639
     44  C        -33.7260   15.1070  -13.9010 C.2    92  TYR92       0.2290
     45  O        -33.2440   14.5270  -14.8740 O.2    92  TYR92      -0.2864
     46  CB       -32.9210   17.3830  -13.2030 C.3    92  TYR92       0.0560
     47  CG       -31.5310   17.3180  -13.7990 C.ar   92  TYR92      -0.0198
     48  CD1      -31.1920   18.0970  -14.8940 C.ar   92  TYR92      -0.0009
     49  CD2      -30.5450   16.5140  -13.2380 C.ar   92  TYR92      -0.0009
     50  CE1      -29.9110   18.0610  -15.4240 C.ar   92  TYR92       0.0417
     51  CE2      -29.2690   16.4740  -13.7570 C.ar   92  TYR92       0.0417
     52  CZ       -28.9580   17.2480  -14.8510 C.ar   92  TYR92       0.1957
     53  OH       -27.6780   17.2110  -15.3690 O.3    92  TYR92      -0.2866
     54  N        -35.9990   13.3240  -16.4720 N.3    95  GLU95      -0.1245
     55  CA       -35.7230   13.6320  -17.8780 C.3    95  GLU95       0.1567
     56  C        -34.4000   13.0760  -18.4020 C.2    95  GLU95       0.2260
     57  O        -34.1710   13.0440  -19.6130 O.2    95  GLU95      -0.2867
     58  CB       -35.7590   15.1500  -18.0940 C.3    95  GLU95       0.0388
     59  CG       -37.1610   15.7380  -18.0080 C.3    95  GLU95       0.1160
     60  CD       -37.1820   17.2440  -18.1910 C.2    95  GLU95       0.3649
     61  OE1      -36.2260   17.7890  -18.7840 O.co2  95  GLU95      -0.2457
     62  OE2      -38.1560   17.8820  -17.7370 O.co2  95  GLU95      -0.2457
     63  N        -38.0500   18.0010   -5.1920 N.3   132  ARG132     -0.1245
     64  CA       -38.7600   19.1120   -5.8320 C.3   132  ARG132      0.1563
     65  C        -38.2000   20.4440   -5.3610 C.2   132  ARG132      0.2260
     66  O        -38.3590   21.4600   -6.0430 O.2   132  ARG132     -0.2867
     67  CB       -40.2670   19.0470   -5.5580 C.3   132  ARG132      0.0307
     68  CG       -40.6270   19.1700   -4.0890 C.3   132  ARG132      0.0489
     69  CD       -42.1280   19.1880   -3.7980 C.3   132  ARG132      0.2205
     70  NE       -42.2760   19.1930   -2.3480 N.pl3 132  ARG132     -0.0865
     71  CZ       -42.1950   18.0920   -1.6080 C.cat 132  ARG132      0.5346
     72  NH1      -42.2710   18.1630   -0.2860 N.pl3 132  ARG132      0.1354
     73  NH2      -42.0360   16.9170   -2.2000 N.pl3 132  ARG132      0.1354
     74  N        -32.4300   22.2980   -6.8300 N.3   135  LEU135     -0.1245
     75  CA       -32.2960   22.7740   -8.1990 C.3   135  LEU135      0.1561
     76  C        -30.9460   22.3520   -8.7510 C.2   135  LEU135      0.2260
     77  O        -30.0390   22.0080   -7.9840 O.2   135  LEU135     -0.2867
     78  CB       -32.4390   24.2980   -8.2620 C.3   135  LEU135      0.0270
     79  CG       -33.7790   24.8670   -7.7880 C.3   135  LEU135      0.0019
     80  CD1      -33.7020   26.3870   -7.6370 C.3   135  LEU135      0.0001
     81  CD2      -34.8730   24.5130   -8.7690 C.3   135  LEU135      0.0001
@<TRIPOS>BOND
     1    57    56    2
     2    61    60   ar
     3    56    55    1
     4    60    59    1
     5    60    62   ar
     6    58    59    1
     7    58    55    1
     8    55    54    1
     9    22    21    2
    10    21    23   am
    11    21    20    1
    12     8     6    1
    13    50    48   ar
    14    50    52   ar
    15    53    52    1
    16     1     2    1
    17    17    20    1
    18    17    16    1
    19    17    18    1
    20    48    47   ar
    21    45    44    2
    22    37    36    2
    23    52    51   ar
    24     2     3    1
    25     2     5    1
    26    19    18    2
    27    18    24   am
    28     6     5    1
    29     6     7    1
    30     3     4    2
    31    43    44    1
    32    43    42    1
    33    43    46    1
    34    36    42   am
    35    36    35    1
    36    47    49   ar
    37    47    46    1
    38    51    49   ar
    39    38    39    1
    40    38    35    1
    41    24    25    1
    42    40    39    2
    43    39    41   am
    44    35    34    1
    45    25    26    1
    46    26    28   am
    47    26    27    2
    48     9    10    1
    49    14    13    1
    50    31    30    2
    51    28    29    1
    52    13    10    1
    53    13    15    1
    54    33    32    1
    55    10    11    1
    56    30    29    1
    57    29    32    1
    58    12    11    2
    59    81    79    1
    60    76    75    1
    61    76    77    2
    62    78    75    1
    63    78    79    1
    64    75    74    1
    65    79    80    1
    66    66    65    2
    67    64    67    1
    68    64    65    1
    69    64    63    1
    70    67    68    1
    71    68    69    1
    72    69    70    1
    73    70    71    2
    74    73    71    1
    75    71    72    1
