@<TRIPOS>MOLECULE
tmp/5vgrA00.pdb
 186 187 0 0 0
SMALL
GASTEIGER

@<TRIPOS>ATOM
      1  N        129.4070    8.1500   31.0140 N.3    43  PHE43      -0.1227
      2  CA       130.1890    7.0980   31.6500 C.3    43  PHE43       0.1736
      3  C        129.3340    5.8510   31.8510 C.2    43  PHE43       0.2595
      4  O        128.1180    5.9290   32.0440 O.2    43  PHE43      -0.2718
      5  CB       130.7350    7.6080   32.9930 C.3    43  PHE43       0.0547
      6  CG       131.4630    6.5640   33.8120 C.ar   43  PHE43      -0.0202
      7  CD1      132.5700    5.8970   33.3030 C.ar   43  PHE43      -0.0042
      8  CD2      131.0570    6.2790   35.1120 C.ar   43  PHE43      -0.0042
      9  CE1      133.2440    4.9480   34.0670 C.ar   43  PHE43      -0.0003
     10  CE2      131.7240    5.3330   35.8810 C.ar   43  PHE43      -0.0003
     11  CZ       132.8160    4.6650   35.3590 C.ar   43  PHE43      -0.0000
     12  N        129.9810    4.6910   31.7680 N.am   44  ARG44      -0.1966
     13  CA       129.3630    3.4080   32.0960 C.3    44  ARG44       0.1729
     14  C        128.2090    3.0480   31.1570 C.2    44  ARG44       0.2616
     15  O        127.2430    2.4040   31.5660 O.2    44  ARG44      -0.2715
     16  CB       128.8860    3.3920   33.5490 C.3    44  ARG44       0.0348
     17  CG       129.4140    2.2270   34.3410 C.3    44  ARG44       0.0492
     18  CD       129.3180    2.4780   35.8250 C.3    44  ARG44       0.2205
     19  NE       130.2190    1.5930   36.5500 N.pl3  44  ARG44      -0.0865
     20  CZ       130.1710    1.3710   37.8550 C.cat  44  ARG44       0.5346
     21  NH1      129.2530    1.9690   38.6100 N.pl3  44  ARG44       0.1354
     22  NH2      131.0470    0.5450   38.4020 N.pl3  44  ARG44       0.1354
     23  N        128.2990    3.4250   29.8840 N.am   45  LYS45      -0.1963
     24  CA       127.2630    3.1040   28.9100 C.3    45  LYS45       0.1728
     25  C        127.7450    2.1140   27.8430 C.2    45  LYS45       0.2617
     26  O        127.0920    1.9640   26.8040 O.2    45  LYS45      -0.2715
     27  CB       126.7450    4.3850   28.2540 C.3    45  LYS45       0.0311
     28  CG       126.0140    5.3180   29.2030 C.3    45  LYS45       0.0038
     29  CD       124.7410    4.6680   29.7300 C.3    45  LYS45       0.0206
     30  CE       124.0430    5.5450   30.7490 C.3    45  LYS45       0.1093
     31  NZ       122.9290    4.8070   31.4440 N.3    45  LYS45      -0.1314
     32  N        128.8770    1.4420   28.0700 N.am   46  GLY46      -0.1940
     33  CA       129.3690    0.4750   27.1010 C.3    46  GLY46       0.2014
     34  C        130.2160    1.0310   25.9700 C.2    46  GLY46       0.2639
     35  O        130.4340    0.3250   24.9750 O.2    46  GLY46      -0.2714
     36  N        130.6940    2.2780   26.0820 N.am   47  LYS47      -0.1963
     37  CA       131.5080    2.8530   25.0140 C.3    47  LYS47       0.1728
     38  C        132.7760    2.0400   24.7730 C.2    47  LYS47       0.2617
     39  O        133.1370    1.7650   23.6260 O.2    47  LYS47      -0.2715
     40  CB       131.8630    4.3050   25.3440 C.3    47  LYS47       0.0311
     41  CG       130.6540    5.2510   25.4070 C.3    47  LYS47       0.0038
     42  CD       131.0900    6.7060   25.5650 C.3    47  LYS47       0.0206
     43  CE       132.0570    6.8580   26.7370 C.3    47  LYS47       0.1093
     44  NZ       131.4320    6.4540   28.0380 N.3    47  LYS47      -0.1314
     45  N        133.4520    1.6270   25.8420 N.am   48  SER48      -0.1936
     46  CA       134.7320    0.9500   25.6750 C.3    48  SER48       0.2055
     47  C        134.5700   -0.4880   25.2030 C.2    48  SER48       0.2643
     48  O        135.4900   -1.0340   24.5880 O.2    48  SER48      -0.2714
     49  CB       135.5310    1.0010   26.9830 C.3    48  SER48       0.2130
     50  OG       135.0260    0.0880   27.9340 O.3    48  SER48      -0.2179
     51  N        133.4210   -1.1160   25.4840 N.am   49  PHE49      -0.1973
     52  CA       133.1210   -2.4150   24.8900 C.3    49  PHE49       0.1639
     53  C        133.1040   -2.3370   23.3710 C.2    49  PHE49       0.2290
     54  O        133.6260   -3.2290   22.6900 O.2    49  PHE49      -0.2864
     55  CB       131.7690   -2.9310   25.3950 C.3    49  PHE49       0.0560
     56  CG       131.6550   -4.4300   25.4190 C.ar   49  PHE49      -0.0200
     57  CD1      132.6300   -5.2050   26.0310 C.ar   49  PHE49      -0.0042
     58  CD2      130.5550   -5.0660   24.8580 C.ar   49  PHE49      -0.0042
     59  CE1      132.5200   -6.5950   26.0700 C.ar   49  PHE49      -0.0003
     60  CE2      130.4350   -6.4560   24.8920 C.ar   49  PHE49      -0.0003
     61  CZ       131.4200   -7.2230   25.4990 C.ar   49  PHE49      -0.0000
     62  N        139.8320    1.9930   30.1920 N.3    81  ARG81      -0.1245
     63  CA       139.4300    2.4740   31.5090 C.3    81  ARG81       0.1563
     64  C        140.4350    2.0870   32.5880 C.2    81  ARG81       0.2260
     65  O        140.0740    1.9580   33.7580 O.2    81  ARG81      -0.2867
     66  CB       138.0470    1.9450   31.8920 C.3    81  ARG81       0.0307
     67  CG       136.9580    2.2200   30.8660 C.3    81  ARG81       0.0489
     68  CD       136.4230    3.6380   30.9940 C.3    81  ARG81       0.2205
     69  NE       135.5740    3.9760   29.8520 N.pl3  81  ARG81      -0.0865
     70  CZ       135.9040    4.8510   28.9080 C.cat  81  ARG81       0.5346
     71  NH1      137.0620    5.5050   28.9630 N.pl3  81  ARG81       0.1354
     72  NH2      135.0680    5.0810   27.9140 N.pl3  81  ARG81       0.1354
     73  N        134.4390   10.9190   26.7730 N.3   116  GLN116     -0.1245
     74  CA       133.6610   10.6390   27.9740 C.3   116  GLN116      0.1566
     75  C        133.3260   11.9170   28.7270 C.2   116  GLN116      0.2260
     76  O        134.1970   12.7620   28.9560 O.2   116  GLN116     -0.2867
     77  CB       134.3870    9.6800   28.9190 C.3   116  GLN116      0.0367
     78  CG       133.4460    9.1620   30.0140 C.3   116  GLN116      0.0905
     79  CD       133.9660    7.9320   30.7280 C.2   116  GLN116      0.2608
     80  OE1      133.6710    6.7970   30.3400 O.2   116  GLN116     -0.2717
     81  NE2      134.7200    8.1480   31.8000 N.am  116  GLN116     -0.0878
     82  N        121.8180    1.7170   22.4550 N.3   183  ARG183     -0.1231
     83  CA       122.2110    0.4560   23.0660 C.3   183  ARG183      0.1694
     84  C        121.0070   -0.2230   23.7170 C.2   183  ARG183      0.2592
     85  O        120.0170    0.4210   24.0810 O.2   183  ARG183     -0.2718
     86  CB       123.3360    0.6800   24.0940 C.3   183  ARG183      0.0321
     87  CG       124.6250    1.3140   23.4980 C.3   183  ARG183      0.0489
     88  CD       125.3170    0.3920   22.4730 C.3   183  ARG183      0.2205
     89  NE       126.1000   -0.6620   23.1250 N.pl3 183  ARG183     -0.0865
     90  CZ       127.3490   -0.5320   23.5590 C.cat 183  ARG183      0.5346
     91  NH1      127.9440   -1.5720   24.1430 N.pl3 183  ARG183      0.1354
     92  NH2      128.0170    0.6130   23.3810 N.pl3 183  ARG183      0.1354
     93  N        121.1060   -1.5470   23.8570 N.am  184  ASP184     -0.1974
     94  CA       120.0800   -2.4240   24.4450 C.3   184  ASP184      0.1709
     95  C        118.6820   -2.0890   23.9270 C.2   184  ASP184      0.2293
     96  O        117.7130   -2.0480   24.6900 O.2   184  ASP184     -0.2864
     97  CB       120.0900   -2.3710   25.9810 C.3   184  ASP184      0.1436
     98  CG       121.4890   -2.4980   26.5770 C.2   184  ASP184      0.3671
     99  OD1      121.7580   -1.9090   27.6420 O.co2 184  ASP184     -0.2456
    100  OD2      122.3290   -3.1770   25.9570 O.co2 184  ASP184     -0.2456
    101  N        121.3140   -4.6220   19.8870 N.3   236  PRO236     -0.2102
    102  CA       120.6530   -5.3950   20.9470 C.3   236  PRO236      0.1504
    103  C        121.4740   -5.4400   22.2270 C.2   236  PRO236      0.2576
    104  O        122.6000   -4.9540   22.3070 O.2   236  PRO236     -0.2718
    105  CB       120.5010   -6.7990   20.3510 C.3   236  PRO236      0.0282
    106  CG       121.4320   -6.8390   19.1720 C.3   236  PRO236      0.0208
    107  CD       121.6250   -5.4330   18.6990 C.3   236  PRO236      0.0893
    108  N        120.8550   -6.0410   23.2390 N.am  237  HIS237     -0.1963
    109  CA       121.4830   -6.2520   24.5280 C.3   237  HIS237      0.1772
    110  C        122.5470   -7.3430   24.4160 C.2   237  HIS237      0.2462
    111  O        122.3390   -8.3580   23.7520 O.2   237  HIS237     -0.2730
    112  CB       120.3980   -6.6520   25.5430 C.3   237  HIS237      0.0785
    113  CG       120.8100   -6.5310   26.9750 C.ar  237  HIS237      0.0821
    114  ND1      121.6390   -7.4440   27.5910 N.ar  237  HIS237     -0.2267
    115  CD2      120.4610   -5.6330   27.9270 C.ar  237  HIS237      0.1154
    116  CE1      121.7890   -7.1080   28.8610 C.ar  237  HIS237      0.1986
    117  NE2      121.0870   -6.0130   29.0900 N.ar  237  HIS237     -0.2212
    118  N        123.7170   -7.1560   25.0600 N.am  238  PRO238     -0.2727
    119  CA       124.7780   -8.1700   24.9990 C.3   238  PRO238      0.1402
    120  C        124.5670   -9.3730   25.9040 C.2   238  PRO238      0.2269
    121  O        125.3950  -10.2900   25.8740 O.2   238  PRO238     -0.2865
    122  CB       126.0130   -7.3780   25.4550 C.3   238  PRO238      0.0296
    123  CG       125.4400   -6.3870   26.4260 C.3   238  PRO238      0.0237
    124  CD       124.1680   -5.9320   25.7280 C.3   238  PRO238      0.0939
    125  N        127.5190   -9.8780   30.3570 N.3   242  VAL242     -0.1231
    126  CA       128.2100   -8.6390   30.0070 C.3   242  VAL242      0.1692
    127  C        127.6630   -7.4830   30.8350 C.2   242  VAL242      0.2592
    128  O        128.4260   -6.6810   31.3850 O.2   242  VAL242     -0.2718
    129  CB       128.1010   -8.3360   28.4980 C.3   242  VAL242      0.0266
    130  CG1      128.5770   -6.9120   28.2150 C.3   242  VAL242      0.0020
    131  CG2      128.9140   -9.3330   27.6600 C.3   242  VAL242      0.0020
    132  N        126.3330   -7.4030   30.9670 N.am  243  ALA243     -0.1966
    133  CA       125.6940   -6.2570   31.6120 C.3   243  ALA243      0.1728
    134  C        126.1130   -6.1020   33.0690 C.2   243  ALA243      0.2617
    135  O        126.2190   -4.9790   33.5740 O.2   243  ALA243     -0.2715
    136  CB       124.1700   -6.3900   31.5310 C.3   243  ALA243      0.0334
    137  N        126.3080   -7.2140   33.7760 N.am  244  THR244     -0.1937
    138  CA       126.5370   -7.1720   35.2120 C.3   244  THR244      0.2028
    139  C        127.9910   -7.3960   35.5830 C.2   244  THR244      0.2643
    140  O        128.2970   -7.5300   36.7690 O.2   244  THR244     -0.2714
    141  CB       125.6680   -8.2110   35.9370 C.3   244  THR244      0.1808
    142  OG1      125.9430   -9.5170   35.4160 O.3   244  THR244     -0.2208
    143  CG2      124.1840   -7.8990   35.7870 C.3   244  THR244      0.0379
    144  N        128.8920   -7.4480   34.6040 N.am  245  SER245     -0.1936
    145  CA       130.2750   -7.7530   34.9470 C.3   245  SER245      0.2040
    146  C        131.1330   -6.4990   34.9430 C.2   245  SER245      0.2485
    147  O        131.0310   -5.6810   34.0170 O.2   245  SER245     -0.2729
    148  CB       130.8560   -8.7650   33.9630 C.3   245  SER245      0.2129
    149  OG       132.2700   -8.7030   33.9430 O.3   245  SER245     -0.2179
    150  N        131.9860   -6.3020   35.9470 N.am  246  PRO246     -0.2715
    151  CA       133.0830   -5.3450   35.7930 C.3   246  PRO246      0.1536
    152  C        134.2340   -6.0400   35.0800 C.2   246  PRO246      0.2599
    153  O        134.6820   -7.1060   35.5050 O.2   246  PRO246     -0.2715
    154  CB       133.4390   -4.9810   37.2370 C.3   246  PRO246      0.0310
    155  CG       133.1050   -6.2270   38.0200 C.3   246  PRO246      0.0237
    156  CD       132.0560   -7.0140   37.2330 C.3   246  PRO246      0.0939
    157  N        134.6780   -5.4590   33.9680 N.am  247  ASP247     -0.1958
    158  CA       135.7360   -6.0660   33.1660 C.3   247  ASP247      0.1840
    159  C        135.3260   -7.4590   32.6970 C.2   247  ASP247      0.2622
    160  O        135.7440   -8.4670   33.2760 O.2   247  ASP247     -0.2715
    161  CB       137.0450   -6.1240   33.9670 C.3   247  ASP247      0.1450
    162  CG       138.2660   -6.3160   33.0900 C.2   247  ASP247      0.3671
    163  OD1      138.1350   -6.2490   31.8490 O.co2 247  ASP247     -0.2456
    164  OD2      139.3590   -6.5470   33.6510 O.co2 247  ASP247     -0.2456
    165  N        134.5110   -7.5240   31.6460 N.am  248  PHE248     -0.1974
    166  CA       134.0020   -8.8030   31.1730 C.3   248  PHE248      0.1639
    167  C        135.1360   -9.6430   30.6010 C.2   248  PHE248      0.2290
    168  O        135.9110   -9.1640   29.7740 O.2   248  PHE248     -0.2864
    169  CB       132.9160   -8.5730   30.1220 C.3   248  PHE248      0.0560
    170  CG       132.4710   -9.8230   29.4170 C.ar  248  PHE248     -0.0200
    171  CD1      131.5930  -10.6950   30.0460 C.ar  248  PHE248     -0.0042
    172  CD2      132.9460  -10.1430   28.1550 C.ar  248  PHE248     -0.0042
    173  CE1      131.1790  -11.8490   29.4340 C.ar  248  PHE248     -0.0003
    174  CE2      132.5200  -11.3030   27.5190 C.ar  248  PHE248     -0.0003
    175  CZ       131.6460  -12.1610   28.1660 C.ar  248  PHE248     -0.0000
    176  N        123.4310   -9.8580   19.5430 N.3   259  PHE259     -0.1241
    177  CA       124.4290   -8.7970   19.6770 C.3   259  PHE259      0.1605
    178  C        125.6280   -9.0570   18.7710 C.2   259  PHE259      0.2264
    179  O        126.0860   -8.1610   18.0550 O.2   259  PHE259     -0.2867
    180  CB       124.8710   -8.6860   21.1400 C.3   259  PHE259      0.0534
    181  CG       125.8390   -7.5590   21.4160 C.ar  259  PHE259     -0.0203
    182  CD1      125.3790   -6.2860   21.7120 C.ar  259  PHE259     -0.0042
    183  CD2      127.2130   -7.7850   21.4180 C.ar  259  PHE259     -0.0042
    184  CE1      126.2700   -5.2550   21.9980 C.ar  259  PHE259     -0.0003
    185  CE2      128.1090   -6.7620   21.6960 C.ar  259  PHE259     -0.0003
    186  CZ       127.6390   -5.4920   21.9850 C.ar  259  PHE259     -0.0000
@<TRIPOS>BOND
     1   179   178    2
     2   107   106    1
     3   107   101    1
     4   178   177    1
     5   106   105    1
     6   176   177    1
     7   177   180    1
     8   101   102    1
     9   105   102    1
    10   102   103    1
    11   180   181    1
    12   181   183   ar
    13   181   182   ar
    14   183   185   ar
    15   185   186   ar
    16   182   184   ar
    17   186   184   ar
    18   103   104    2
    19   103   108   am
    20    82    83    1
    21    88    89    1
    22    88    87    1
    23    54    53    2
    24    83    84    1
    25    83    86    1
    26    89    90    2
    27   108   109    1
    28    53    52    1
    29    92    90    1
    30    87    86    1
    31    90    91    1
    32    39    38    2
    33    84    93   am
    34    84    85    2
    35   111   110    2
    36    93    94    1
    37    95    94    1
    38    95    96    2
    39   110   109    1
    40   110   118   am
    41    94    97    1
    42   109   112    1
    43    48    47    2
    44    38    37    1
    45    38    45   am
    46    58    60   ar
    47    58    56   ar
    48    52    55    1
    49    52    51    1
    50    60    61   ar
    51    35    34    2
    52   119   118    1
    53   119   122    1
    54   119   120    1
    55    37    40    1
    56    37    36    1
    57   118   124    1
    58    47    51   am
    59    47    46    1
    60    40    41    1
    61    55    56    1
    62    41    42    1
    63    56    57   ar
    64   122   123    1
    65    61    59   ar
    66   112   113    1
    67    42    43    1
    68    46    45    1
    69    46    49    1
    70   124   123    1
    71   121   120    2
    72   100    98   ar
    73    34    36   am
    74    34    33    1
    75    97    98    1
    76    57    59   ar
    77    98    99   ar
    78    43    44    1
    79    73    74    1
    80    26    25    2
    81   113   114   ar
    82   113   115   ar
    83    49    50    1
    84    33    32    1
    85   174   172   ar
    86   174   175   ar
    87   114   116   ar
    88   131   129    1
    89    25    32   am
    90    25    24    1
    91    72    70    1
    92   115   117   ar
    93    74    75    1
    94    74    77    1
    95   172   170   ar
    96   175   173   ar
    97   130   129    1
    98    27    24    1
    99    27    28    1
   100   129   126    1
   101    75    76    2
   102   116   117   ar
   103    70    71    1
   104    70    69    2
   105    24    23    1
   106    77    78    1
   107    28    29    1
   108   170   171   ar
   109   170   169    1
   110   173   171   ar
   111    29    30    1
   112   168   167    2
   113    69    68    1
   114    23    14   am
   115   126   125    1
   116   126   127    1
   117    78    79    1
   118   169   166    1
   119    62    63    1
   120    80    79    2
   121   167   166    1
   122    79    81   am
   123    30    31    1
   124   127   132   am
   125   127   128    2
   126    67    68    1
   127    67    66    1
   128   132   133    1
   129     1     2    1
   130    14    15    2
   131    14    13    1
   132   166   165    1
   133    63    66    1
   134    63    64    1
   135   136   133    1
   136   133   134    1
   137   165   159   am
   138     2     3    1
   139     2     5    1
   140    12     3   am
   141    12    13    1
   142   163   162   ar
   143     3     4    2
   144    13    16    1
   145    64    65    2
   146   159   158    1
   147   159   160    2
   148     5     6    1
   149   134   135    2
   150   134   137   am
   151   162   164   ar
   152   162   161    1
   153   158   161    1
   154   158   157    1
   155     7     6   ar
   156     7     9   ar
   157    16    17    1
   158   137   138    1
   159     6     8   ar
   160   149   148    1
   161   148   145    1
   162   157   152   am
   163   147   146    2
   164     9    11   ar
   165    17    18    1
   166   144   145    1
   167   144   139   am
   168   146   145    1
   169   146   150   am
   170   152   153    2
   171   152   151    1
   172     8    10   ar
   173   138   139    1
   174   138   141    1
   175    11    10   ar
   176   142   141    1
   177   139   140    2
   178   143   141    1
   179   151   150    1
   180   151   154    1
   181    18    19    1
   182   150   156    1
   183    19    20    2
   184   156   155    1
   185   154   155    1
   186    20    22    1
   187    20    21    1
