@<TRIPOS>MOLECULE
tmp/5vgyA00.pdb
 142 137 0 0 0
SMALL
GASTEIGER

@<TRIPOS>ATOM
      1  N          0.1340   -2.0920   77.1180 N.3    63  ALA63      -0.1245
      2  CA        -1.2220   -2.5270   77.1460 C.3    63  ALA63       0.1562
      3  C         -1.9420   -1.8190   76.0030 C.2    63  ALA63       0.2260
      4  O         -1.3130   -1.1770   75.1630 O.2    63  ALA63      -0.2867
      5  CB        -1.8150   -2.2530   78.5120 C.3    63  ALA63       0.0290
      6  N         -9.3080    6.9350   81.0500 N.3    90  GLN90      -0.1245
      7  CA        -8.9920    5.8180   80.1980 C.3    90  GLN90       0.1566
      8  C         -9.2470    4.5510   80.9660 C.2    90  GLN90       0.2260
      9  O         -9.3300    4.5640   82.2110 O.2    90  GLN90      -0.2867
     10  CB        -7.5480    5.8680   79.6880 C.3    90  GLN90       0.0367
     11  CG        -6.5180    5.9350   80.8410 C.3    90  GLN90       0.0905
     12  CD        -5.6820    4.6910   81.0030 C.2    90  GLN90       0.2608
     13  OE1       -6.1820    3.5680   80.9670 O.2    90  GLN90      -0.2717
     14  NE2       -4.3870    4.8960   81.2900 N.am   90  GLN90      -0.0878
     15  N         -7.7810    0.2560   80.7460 N.3    92  HIS92      -0.1241
     16  CA        -6.9060   -0.7370   80.1140 C.3    92  HIS92       0.1621
     17  C         -6.9590   -1.9990   80.9510 C.2    92  HIS92       0.2264
     18  O         -7.5700   -2.0130   82.0000 O.2    92  HIS92      -0.2867
     19  CB        -5.4850   -0.2180   80.0170 C.3    92  HIS92       0.0745
     20  CG        -4.8770    0.0690   81.3490 C.ar   92  HIS92       0.0817
     21  ND1       -5.0010    1.2840   81.9770 N.ar   92  HIS92      -0.2268
     22  CD2       -4.2940   -0.7630   82.2510 C.ar   92  HIS92       0.1154
     23  CE1       -4.4920    1.1790   83.2090 C.ar   92  HIS92       0.1986
     24  NE2       -4.0170   -0.0490   83.3770 N.ar   92  HIS92      -0.2212
     25  N         -4.6260   -5.7090   82.2560 N.3    94  HIS94      -0.1241
     26  CA        -3.4080   -6.5010   82.4080 C.3    94  HIS94       0.1621
     27  C         -3.8460   -7.9410   82.2980 C.2    94  HIS94       0.2264
     28  O         -4.9100   -8.3080   82.8000 O.2    94  HIS94      -0.2867
     29  CB        -2.7700   -6.2790   83.7530 C.3    94  HIS94       0.0745
     30  CG        -2.4620   -4.8460   84.0580 C.ar   94  HIS94       0.0817
     31  ND1       -1.2210   -4.3070   83.8420 N.ar   94  HIS94      -0.2268
     32  CD2       -3.2790   -3.7960   84.4100 C.ar   94  HIS94       0.1154
     33  CE1       -1.2710   -3.0100   84.1350 C.ar   94  HIS94       0.1986
     34  NE2       -2.5010   -2.6550   84.4630 N.ar   94  HIS94      -0.2212
     35  N         -8.5300   -1.8930   84.6810 N.3   117  HIS117     -0.1241
     36  CA        -8.3040   -0.6610   85.4320 C.3   117  HIS117      0.1621
     37  C         -9.0000    0.4960   84.7370 C.2   117  HIS117      0.2264
     38  O         -8.6260    0.8620   83.6080 O.2   117  HIS117     -0.2867
     39  CB        -6.7760   -0.3780   85.5120 C.3   117  HIS117      0.0745
     40  CG        -6.0800   -1.3530   86.3910 C.ar  117  HIS117      0.0817
     41  ND1       -4.6900   -1.5610   86.3710 N.ar  117  HIS117     -0.2268
     42  CD2       -6.5780   -2.1920   87.3320 C.ar  117  HIS117      0.1154
     43  CE1       -4.4090   -2.4870   87.2760 C.ar  117  HIS117      0.1986
     44  NE2       -5.5330   -2.8990   87.8660 N.ar  117  HIS117     -0.2212
     45  N         -9.3860    4.3030   85.0220 N.3   119  VAL119     -0.1245
     46  CA        -8.5640    5.3550   85.6080 C.3   119  VAL119      0.1561
     47  C         -9.3170    6.6680   85.6490 C.2   119  VAL119      0.2260
     48  O         -9.8150    7.1380   84.6210 O.2   119  VAL119     -0.2867
     49  CB        -7.2480    5.5080   84.8470 C.3   119  VAL119      0.0252
     50  CG1       -6.3520    6.5810   85.4500 C.3   119  VAL119      0.0019
     51  CG2       -6.5240    4.1830   84.7420 C.3   119  VAL119      0.0019
     52  N         -4.7760   15.9920   84.4830 N.3   128  PHE128     -0.1241
     53  CA        -4.2190   14.7060   84.8460 C.3   128  PHE128      0.1605
     54  C         -2.7710   14.7830   85.2690 C.2   128  PHE128      0.2264
     55  O         -2.4060   14.1610   86.2600 O.2   128  PHE128     -0.2867
     56  CB        -4.4130   13.7620   83.6670 C.3   128  PHE128      0.0534
     57  CG        -3.8600   12.4040   83.9090 C.ar  128  PHE128     -0.0203
     58  CD1       -4.6430   11.4340   84.5240 C.ar  128  PHE128     -0.0042
     59  CD2       -2.5660   12.0780   83.5860 C.ar  128  PHE128     -0.0042
     60  CE1       -4.1110   10.1850   84.7420 C.ar  128  PHE128     -0.0003
     61  CE2       -2.0750   10.8270   83.8110 C.ar  128  PHE128     -0.0003
     62  CZ        -2.8660    9.8810   84.3830 C.ar  128  PHE128     -0.0000
     63  N         -1.4590   13.4470   89.0790 N.3   132  VAL132     -0.1245
     64  CA        -0.5660   12.3160   89.4230 C.3   132  VAL132      0.1561
     65  C          0.5690   12.6860   90.3810 C.2   132  VAL132      0.2260
     66  O          1.2210   11.8000   90.9080 O.2   132  VAL132     -0.2867
     67  CB         0.0210   11.5980   88.1910 C.3   132  VAL132      0.0252
     68  CG1       -1.0780   11.0340   87.3370 C.3   132  VAL132      0.0019
     69  CG2        0.9220   12.4910   87.3590 C.3   132  VAL132      0.0019
     70  N         -5.5280   10.2790   91.9120 N.3   138  LEU138     -0.1245
     71  CA        -6.2070    9.3310   91.0340 C.3   138  LEU138      0.1561
     72  C         -7.0690    8.3790   91.8450 C.2   138  LEU138      0.2260
     73  O         -6.7880    8.1050   93.0140 O.2   138  LEU138     -0.2867
     74  CB        -5.2160    8.4860   90.2250 C.3   138  LEU138      0.0270
     75  CG        -4.3680    9.1770   89.1720 C.3   138  LEU138      0.0019
     76  CD1       -3.6390    8.1140   88.3990 C.3   138  LEU138      0.0001
     77  CD2       -4.9540   10.2310   88.3120 C.3   138  LEU138      0.0001
     78  N         -8.5460    4.5300   90.9150 N.3   140  VAL140     -0.1245
     79  CA        -8.5670    3.4490   89.9170 C.3   140  VAL140      0.1561
     80  C         -9.5290    2.3840   90.4040 C.2   140  VAL140      0.2260
     81  O         -9.4080    1.8720   91.5200 O.2   140  VAL140     -0.2867
     82  CB        -7.1940    2.8890   89.5790 C.3   140  VAL140      0.0252
     83  CG1       -7.3130    1.8280   88.4910 C.3   140  VAL140      0.0019
     84  CG2       -6.2810    4.0030   89.0940 C.3   140  VAL140      0.0019
     85  N          0.4880    3.7570   90.9230 N.3   195  LEU195     -0.1231
     86  CA         0.5100    3.2460   89.5540 C.3   195  LEU195      0.1693
     87  C          1.2580    1.9120   89.6020 C.2   195  LEU195      0.2593
     88  O          2.2250    1.7500   90.3860 O.2   195  LEU195     -0.2718
     89  CB         1.2970    4.2060   88.6500 C.3   195  LEU195      0.0284
     90  CG         0.8290    5.6340   88.6050 C.3   195  LEU195      0.0019
     91  CD1        1.6320    6.4160   87.5660 C.3   195  LEU195      0.0001
     92  CD2       -0.6390    5.7660   88.2660 C.3   195  LEU195      0.0001
     93  N          0.8870    0.9770   88.7380 N.am  196  THR196     -0.1939
     94  CA         1.5330   -0.3320   88.7170 C.3   196  THR196      0.2028
     95  C          2.5540   -0.5110   87.6060 C.2   196  THR196      0.2643
     96  O          3.1250   -1.5880   87.4780 O.2   196  THR196     -0.2714
     97  CB         0.4730   -1.4310   88.6100 C.3   196  THR196      0.1808
     98  OG1       -0.2120   -1.2600   87.3510 O.3   196  THR196     -0.2208
     99  CG2       -0.4960   -1.3830   89.7800 C.3   196  THR196      0.0379
    100  N          2.8550    0.5740   86.8850 N.am  197  THR197     -0.1937
    101  CA         4.0080    0.6220   85.9560 C.3   197  THR197      0.2013
    102  C          4.7780    1.8970   86.2600 C.2   197  THR197      0.2484
    103  O          4.2480    2.8450   86.8510 O.2   197  THR197     -0.2729
    104  CB         3.6390    0.6470   84.4470 C.3   197  THR197      0.1807
    105  OG1        2.9720    1.8570   84.1680 O.3   197  THR197     -0.2208
    106  CG2        2.7280   -0.4760   84.0840 C.3   197  THR197      0.0379
    107  N          6.0310    1.9460   85.8240 N.am  198  PRO198     -0.2715
    108  CA         6.7470    3.2280   85.8130 C.3   198  PRO198      0.1521
    109  C          5.8240    4.3320   85.2840 C.2   198  PRO198      0.2440
    110  O          5.1250    4.0830   84.2880 O.2   198  PRO198     -0.2731
    111  CB         7.9620    2.9380   84.9260 C.3   198  PRO198      0.0310
    112  CG         8.2410    1.4680   85.2190 C.3   198  PRO198      0.0237
    113  CD         6.8440    0.8670   85.2530 C.3   198  PRO198      0.0939
    114  N          5.7900    5.5140   85.9170 N.am  199  PRO199     -0.2727
    115  CA         6.7170    5.9690   86.9660 C.3   199  PRO199      0.1402
    116  C          6.3470    5.5720   88.4220 C.2   199  PRO199      0.2269
    117  O          6.9780    6.0520   89.3730 O.2   199  PRO199     -0.2865
    118  CB         6.6310    7.4690   86.7660 C.3   199  PRO199      0.0296
    119  CG         5.2360    7.7550   86.2520 C.3   199  PRO199      0.0237
    120  CD         4.9510    6.6010   85.3530 C.3   199  PRO199      0.0939
    121  N          4.0830    6.1800   90.5340 N.3   201  LEU201     -0.1245
    122  CA         3.7420    7.2870   91.4250 C.3   201  LEU201      0.1561
    123  C          2.7120    6.8850   92.4640 C.2   201  LEU201      0.2260
    124  O          1.7450    6.1710   92.1490 O.2   201  LEU201     -0.2867
    125  CB         3.2440    8.4710   90.6200 C.3   201  LEU201      0.0270
    126  CG         4.3070    9.1060   89.7140 C.3   201  LEU201      0.0019
    127  CD1        3.6540   10.0930   88.7580 C.3   201  LEU201      0.0001
    128  CD2        5.4640    9.7390   90.4290 C.3   201  LEU201      0.0001
    129  N         -7.0380    3.0570   95.4000 N.3   206  TRP206     -0.1241
    130  CA        -7.5000    1.8400   94.7430 C.3   206  TRP206      0.1605
    131  C         -8.8470    1.4440   95.2820 C.2   206  TRP206      0.2264
    132  O         -9.0560    1.3690   96.4980 O.2   206  TRP206     -0.2867
    133  CB        -6.4880    0.6520   94.9580 C.3   206  TRP206      0.0550
    134  CG        -5.3600    0.7590   93.9770 C.ar  206  TRP206      0.0003
    135  CD1       -4.0880    1.3650   94.1440 C.ar  206  TRP206      0.0946
    136  CD2       -5.4200    0.3800   92.6180 C.ar  206  TRP206      0.0152
    137  NE1       -3.4180    1.3060   92.9620 N.ar  206  TRP206     -0.2442
    138  CE2       -4.1830    0.6930   92.0190 C.ar  206  TRP206      0.0810
    139  CE3       -6.4190   -0.2520   91.8490 C.ar  206  TRP206      0.0012
    140  CZ2       -3.9220    0.4280   90.6810 C.ar  206  TRP206      0.0191
    141  CZ3       -6.1540   -0.5600   90.5790 C.ar  206  TRP206      0.0001
    142  CH2       -4.9320   -0.2090   89.9730 C.ar  206  TRP206      0.0015
@<TRIPOS>BOND
     1     4     3    2
     2     3     2    1
     3     1     2    1
     4     2     5    1
     5    10     7    1
     6    10    11    1
     7    19    16    1
     8    19    20    1
     9    16    15    1
    10    16    17    1
    11     7     8    1
    12     7     6    1
    13    11    12    1
    14    17    18    2
    15     8     9    2
    16    13    12    2
    17    12    14   am
    18    20    21   ar
    19    20    22   ar
    20    21    23   ar
    21    22    24   ar
    22    25    26    1
    23    27    26    1
    24    27    28    2
    25    26    29    1
    26    23    24   ar
    27    59    61   ar
    28    59    57   ar
    29    38    37    2
    30    56    57    1
    31    56    53    1
    32    29    30    1
    33    61    62   ar
    34    31    30   ar
    35    31    33   ar
    36    57    58   ar
    37    30    32   ar
    38   106   104    1
    39    33    34   ar
    40   105   104    1
    41   110   109    2
    42    62    60   ar
    43    32    34   ar
    44   104   101    1
    45    52    53    1
    46    58    60   ar
    47    48    47    2
    48    35    36    1
    49    37    36    1
    50    51    49    1
    51    53    54    1
    52    49    50    1
    53    49    46    1
    54   111   112    1
    55   111   108    1
    56    45    46    1
    57   112   113    1
    58   113   107    1
    59    54    55    2
    60   109   108    1
    61   109   114   am
    62   120   114    1
    63   120   119    1
    64    36    39    1
    65    39    40    1
    66    46    47    1
    67   108   107    1
    68   107   102   am
    69   114   115    1
    70   101   102    1
    71   101   100    1
    72   119   118    1
    73   102   103    2
    74    41    40   ar
    75    41    43   ar
    76    40    42   ar
    77   118   115    1
    78   100    95   am
    79   115   116    1
    80    43    44   ar
    81    42    44   ar
    82    68    67    1
    83    98    97    1
    84    69    67    1
    85    96    95    2
    86    91    90    1
    87    95    94    1
    88    67    64    1
    89    92    90    1
    90    77    75    1
    91    76    75    1
    92   116   117    2
    93    83    82    1
    94    90    89    1
    95    97    94    1
    96    97    99    1
    97    89    86    1
    98    94    93    1
    99    93    87   am
   100   127   126    1
   101    63    64    1
   102    84    82    1
   103    75    74    1
   104    64    65    1
   105    86    87    1
   106    86    85    1
   107    82    79    1
   108    87    88    2
   109   126   128    1
   110   126   125    1
   111    79    80    1
   112    79    78    1
   113   142   141   ar
   114   142   140   ar
   115    74    71    1
   116    65    66    2
   117    80    81    2
   118   121   122    1
   119   141   139   ar
   120   125   122    1
   121   140   138   ar
   122    71    72    1
   123    71    70    1
   124   122   123    1
   125    72    73    2
   126   139   136   ar
   127   138   136   ar
   128   138   137   ar
   129   124   123    2
   130   136   134   ar
   131   137   135   ar
   132   134   135   ar
   133   134   133    1
   134   130   133    1
   135   130   131    1
   136   130   129    1
   137   131   132    2
