@<TRIPOS>MOLECULE
tmp/5vhcA00.pdb
 167 154 0 0 0
SMALL
GASTEIGER

@<TRIPOS>ATOM
      1  N        -13.1920    7.7430   -7.8310 N.3    43  LEU43      -0.1245
      2  CA       -11.7610    7.7820   -7.5970 C.3    43  LEU43       0.1561
      3  C        -11.1480    9.0480   -8.1980 C.2    43  LEU43       0.2260
      4  O        -11.6130    9.5480   -9.2270 O.2    43  LEU43      -0.2867
      5  CB       -11.0920    6.5530   -8.1970 C.3    43  LEU43       0.0270
      6  CG       -11.5850    5.1990   -7.6910 C.3    43  LEU43       0.0019
      7  CD1      -10.7980    4.0880   -8.3600 C.3    43  LEU43       0.0001
      8  CD2      -11.4490    5.1250   -6.1780 C.3    43  LEU43       0.0001
      9  N         -1.8530    7.6830   -1.9260 N.3    68  THR68      -0.1203
     10  CA        -2.1820    6.2780   -1.7280 C.3    68  THR68       0.1994
     11  C         -3.6750    6.0510   -1.9210 C.2    68  THR68       0.2618
     12  O         -4.5040    6.7800   -1.3690 O.2    68  THR68      -0.2717
     13  CB        -1.7590    5.8240   -0.3330 C.3    68  THR68       0.1784
     14  OG1       -2.0700    6.8470    0.6210 O.3    68  THR68      -0.2211
     15  CG2       -0.2670    5.5280   -0.2920 C.3    68  THR68       0.0376
     16  N         -4.0140    5.0440   -2.7210 N.am   69  GLY69      -0.1942
     17  CA        -5.3990    4.7150   -2.9790 C.3    69  GLY69       0.2014
     18  C         -6.1080    5.6150   -3.9640 C.2    69  GLY69       0.2639
     19  O         -7.3260    5.4830   -4.1270 O.2    69  GLY69      -0.2714
     20  N         -5.3910    6.5250   -4.6290 N.am   70  CYS70      -0.1953
     21  CA        -6.0370    7.4040   -5.5980 C.3    70  CYS70       0.1843
     22  C         -6.4560    6.6620   -6.8610 C.2    70  CYS70       0.2626
     23  O         -7.3090    7.1620   -7.6020 O.2    70  CYS70      -0.2714
     24  CB        -5.1140    8.5720   -5.9570 C.3    70  CYS70       0.0997
     25  SG        -3.6780    8.1280   -6.9560 S.3    70  CYS70      -0.0797
     26  N         -5.8820    5.4900   -7.1230 N.am   71  GLY71      -0.1940
     27  CA        -6.3370    4.6680   -8.2270 C.3    71  GLY71       0.2014
     28  C         -5.2930    4.3430   -9.2750 C.2    71  GLY71       0.2639
     29  O         -5.6390    3.9420  -10.3880 O.2    71  GLY71      -0.2714
     30  N         -4.0120    4.4940   -8.9400 N.am   72  LYS72      -0.1963
     31  CA        -2.9610    4.2580   -9.9260 C.3    72  LYS72       0.1728
     32  C         -2.9400    2.8010  -10.3770 C.2    72  LYS72       0.2617
     33  O         -3.0420    2.5050  -11.5740 O.2    72  LYS72      -0.2715
     34  CB        -1.6060    4.6670   -9.3480 C.3    72  LYS72       0.0311
     35  CG        -1.4990    6.1420   -9.0050 C.3    72  LYS72       0.0038
     36  CD        -0.1730    6.4550   -8.3300 C.3    72  LYS72       0.0206
     37  CE        -0.0480    5.7350   -6.9960 C.3    72  LYS72       0.1093
     38  NZ        -1.1270    6.1310   -6.0500 N.3    72  LYS72      -0.1314
     39  N         -2.8270    1.8740   -9.4240 N.am   73  THR73      -0.1937
     40  CA        -2.5840    0.4770   -9.7700 C.3    73  THR73       0.2028
     41  C         -3.7630   -0.1380  -10.5160 C.2    73  THR73       0.2642
     42  O         -3.5720   -0.8810  -11.4870 O.2    73  THR73      -0.2714
     43  CB        -2.2770   -0.3280   -8.5060 C.3    73  THR73       0.1808
     44  OG1       -1.1290    0.2240   -7.8490 O.3    73  THR73      -0.2208
     45  CG2       -2.0100   -1.7850   -8.8480 C.3    73  THR73       0.0379
     46  N         -4.9880    0.1630  -10.0890 N.am   74  THR74      -0.1950
     47  CA        -6.1510   -0.5470  -10.6060 C.3    74  THR74       0.1897
     48  C         -6.8300    0.1460  -11.7800 C.2    74  THR74       0.2313
     49  O         -7.6150   -0.5000  -12.4830 O.2    74  THR74      -0.2863
     50  CB        -7.1820   -0.7570   -9.4900 C.3    74  THR74       0.1794
     51  OG1       -7.5630    0.5090   -8.9350 O.3    74  THR74      -0.2208
     52  CG2       -6.6060   -1.6370   -8.3920 C.3    74  THR74       0.0378
     53  N         -4.2310  -10.1140   -5.6270 N.3   107  SER107     -0.1202
     54  CA        -5.3940   -9.3740   -5.1450 C.3   107  SER107      0.2020
     55  C         -5.7720   -8.2390   -6.0890 C.2   107  SER107      0.2618
     56  O         -6.9600   -7.9470   -6.2690 O.2   107  SER107     -0.2717
     57  CB        -5.1280   -8.8350   -3.7410 C.3   107  SER107      0.2103
     58  OG        -3.9950   -7.9840   -3.7310 O.3   107  SER107     -0.2182
     59  N         -4.7810   -7.5770   -6.6920 N.am  108  VAL108     -0.1979
     60  CA        -5.0870   -6.4950   -7.6230 C.3   108  VAL108      0.1595
     61  C         -5.7510   -7.0430   -8.8800 C.2   108  VAL108      0.2287
     62  O         -6.7140   -6.4590   -9.3930 O.2   108  VAL108     -0.2864
     63  CB        -3.8170   -5.6900   -7.9580 C.3   108  VAL108      0.0276
     64  CG1       -4.0720   -4.7710   -9.1420 C.3   108  VAL108      0.0022
     65  CG2       -3.3690   -4.8780   -6.7530 C.3   108  VAL108      0.0022
     66  N         -9.2380   -7.8290   -8.1750 N.3   111  ARG111     -0.1245
     67  CA       -10.0150   -6.6020   -8.0360 C.3   111  ARG111      0.1563
     68  C        -10.3510   -6.0040   -9.3970 C.2   111  ARG111      0.2260
     69  O        -11.5030   -5.6350   -9.6550 O.2   111  ARG111     -0.2867
     70  CB        -9.2500   -5.5960   -7.1740 C.3   111  ARG111      0.0307
     71  CG        -9.8320   -4.1930   -7.1840 C.3   111  ARG111      0.0489
     72  CD       -11.2440   -4.1660   -6.6220 C.3   111  ARG111      0.2205
     73  NE       -11.7960   -2.8140   -6.6130 N.pl3 111  ARG111     -0.0865
     74  CZ       -13.0010   -2.4990   -6.1510 C.cat 111  ARG111      0.5346
     75  NH1      -13.7930   -3.4400   -5.6530 N.pl3 111  ARG111      0.1354
     76  NH2      -13.4160   -1.2400   -6.1850 N.pl3 111  ARG111      0.1354
     77  N        -13.9520   -5.4090  -11.1150 N.3   115  GLU115     -0.1245
     78  CA       -14.4270   -4.1070  -11.5720 C.3   115  GLU115      0.1567
     79  C        -14.9450   -4.1510  -13.0030 C.2   115  GLU115      0.2260
     80  O        -15.7140   -3.2680  -13.4010 O.2   115  GLU115     -0.2867
     81  CB       -13.3120   -3.0640  -11.4630 C.3   115  GLU115      0.0388
     82  CG       -12.9760   -2.6450  -10.0410 C.3   115  GLU115      0.1160
     83  CD       -12.0010   -1.4850   -9.9960 C.2   115  GLU115      0.3649
     84  OE1      -11.3850   -1.2610   -8.9330 O.co2 115  GLU115     -0.2457
     85  OE2      -11.8500   -0.7980  -11.0270 O.co2 115  GLU115     -0.2457
     86  N          4.7400    0.6410   -8.1390 N.3   171  GLU171     -0.1245
     87  CA         5.2980    0.6400   -6.7840 C.3   171  GLU171      0.1567
     88  C          6.8210    0.7430   -6.8130 C.2   171  GLU171      0.2260
     89  O          7.5230    0.0750   -6.0500 O.2   171  GLU171     -0.2867
     90  CB         4.8500   -0.5970   -5.9980 C.3   171  GLU171      0.0388
     91  CG         3.3950   -1.0190   -6.2250 C.3   171  GLU171      0.1160
     92  CD         2.3740   -0.0150   -5.7070 C.2   171  GLU171      0.3649
     93  OE1        1.1650   -0.2260   -5.9450 O.co2 171  GLU171     -0.2457
     94  OE2        2.7690    0.9780   -5.0600 O.co2 171  GLU171     -0.2457
     95  N          3.2640    6.2090   -5.0200 N.3   203  ALA203     -0.1245
     96  CA         2.6440    7.2460   -4.2040 C.3   203  ALA203      0.1562
     97  C          3.6620    8.0800   -3.4440 C.2   203  ALA203      0.2260
     98  O          3.4330    9.2750   -3.2220 O.2   203  ALA203     -0.2867
     99  CB         1.6580    6.6240   -3.2110 C.3   203  ALA203      0.0290
    100  N         -8.6390    9.8480   -1.5860 N.3   226  THR226     -0.1218
    101  CA        -9.8520    9.0370   -1.6240 C.3   226  THR226      0.1862
    102  C        -10.6620    9.1990   -0.3430 C.2   226  THR226      0.2287
    103  O        -11.8700    9.4540   -0.3900 O.2   226  THR226     -0.2866
    104  CB        -9.5000    7.5660   -1.8530 C.3   226  THR226      0.1770
    105  OG1       -8.5780    7.4580   -2.9430 O.3   226  THR226     -0.2211
    106  CG2      -10.7520    6.7710   -2.1860 C.3   226  THR226      0.0375
    107  N         -7.9250  -10.9710    2.8610 N.3   351  PHE351     -0.1241
    108  CA        -8.9200  -10.2540    2.0770 C.3   351  PHE351      0.1605
    109  C        -10.3310  -10.7970    2.2510 C.2   351  PHE351      0.2264
    110  O        -11.2780  -10.1820    1.7470 O.2   351  PHE351     -0.2867
    111  CB        -8.5460  -10.2830    0.5920 C.3   351  PHE351      0.0534
    112  CG        -7.1900   -9.7120    0.3020 C.ar  351  PHE351     -0.0203
    113  CD1       -6.9720   -8.3440    0.3590 C.ar  351  PHE351     -0.0042
    114  CD2       -6.1310  -10.5420   -0.0250 C.ar  351  PHE351     -0.0042
    115  CE1       -5.7210   -7.8140    0.0960 C.ar  351  PHE351     -0.0003
    116  CE2       -4.8790  -10.0190   -0.2910 C.ar  351  PHE351     -0.0003
    117  CZ        -4.6730   -8.6540   -0.2290 C.ar  351  PHE351     -0.0000
    118  N          0.4950   -1.3560   -1.9290 N.3   371  SER371     -0.1217
    119  CA        -0.3950   -1.8310   -2.9870 C.3   371  SER371      0.1889
    120  C         -1.7120   -2.4180   -2.4840 C.2   371  SER371      0.2288
    121  O         -2.7850   -1.9710   -2.9050 O.2   371  SER371     -0.2866
    122  CB         0.3220   -2.8590   -3.8670 C.3   371  SER371      0.2089
    123  OG        -0.5110   -3.2790   -4.9330 O.3   371  SER371     -0.2183
    124  N         -5.1680   -3.7040   -0.8880 N.3   373  THR373     -0.1218
    125  CA        -6.3330   -3.0550   -0.2960 C.3   373  THR373      0.1862
    126  C         -7.0920   -4.0960    0.5160 C.2   373  THR373      0.2287
    127  O         -7.6240   -5.0600   -0.0450 O.2   373  THR373     -0.2866
    128  CB        -7.2390   -2.4430   -1.3630 C.3   373  THR373      0.1770
    129  OG1       -6.5850   -1.3220   -1.9680 O.3   373  THR373     -0.2211
    130  CG2       -8.5580   -1.9840   -0.7460 C.3   373  THR373      0.0375
    131  N        -10.3680   -4.5900    2.6940 N.3   375  ASP375     -0.1239
    132  CA       -11.6590   -3.9070    2.7270 C.3   375  ASP375      0.1674
    133  C        -11.8980   -3.1930    4.0540 C.2   375  ASP375      0.2266
    134  O        -12.0200   -1.9650    4.1050 O.2   375  ASP375     -0.2867
    135  CB       -12.7840   -4.9120    2.4590 C.3   375  ASP375      0.1410
    136  CG       -13.0390   -5.1260    0.9820 C.2   375  ASP375      0.3668
    137  OD1      -12.1610   -4.7710    0.1700 O.co2 375  ASP375     -0.2456
    138  OD2      -14.1170   -5.6530    0.6350 O.co2 375  ASP375     -0.2456
    139  N         -2.5600    2.2170    3.8090 N.3   416  ARG416     -0.1245
    140  CA        -3.3840    1.0140    3.8420 C.3   416  ARG416      0.1563
    141  C         -4.7880    1.3040    4.3520 C.2   416  ARG416      0.2260
    142  O         -5.7060    0.5160    4.0950 O.2   416  ARG416     -0.2867
    143  CB        -2.7230   -0.0620    4.7010 C.3   416  ARG416      0.0307
    144  CG        -1.3610   -0.5170    4.1920 C.3   416  ARG416      0.0489
    145  CD        -1.3820   -0.7670    2.6900 C.3   416  ARG416      0.2205
    146  NE        -0.8510    0.3670    1.9370 N.pl3 416  ARG416     -0.0865
    147  CZ        -1.0520    0.5630    0.6380 C.cat 416  ARG416      0.5346
    148  NH1       -1.7840   -0.2960   -0.0590 N.pl3 416  ARG416      0.1354
    149  NH2       -0.5290    1.6230    0.0360 N.pl3 416  ARG416      0.1354
    150  N         -8.7150    3.9330    2.0170 N.3   419  ARG419     -0.1231
    151  CA        -8.9080    3.4450    0.6580 C.3   419  ARG419      0.1694
    152  C        -10.3830    3.3120    0.2990 C.2   419  ARG419      0.2591
    153  O        -10.8250    3.8440   -0.7260 O.2   419  ARG419     -0.2718
    154  CB        -8.1990    2.0960    0.4740 C.3   419  ARG419      0.0321
    155  CG        -6.7010    2.1540    0.7130 C.3   419  ARG419      0.0489
    156  CD        -6.0280    0.8370    0.3630 C.3   419  ARG419      0.2205
    157  NE        -4.7260    1.0610   -0.2540 N.pl3 419  ARG419     -0.0865
    158  CZ        -4.5430    1.2250   -1.5600 C.cat 419  ARG419      0.5346
    159  NH1       -5.5800    1.1840   -2.3830 N.pl3 419  ARG419      0.1354
    160  NH2       -3.3250    1.4300   -2.0430 N.pl3 419  ARG419      0.1354
    161  N        -11.1580    2.6070    1.1230 N.am  420  VAL420     -0.1980
    162  CA       -12.5900    2.4460    0.8920 C.3   420  VAL420      0.1595
    163  C        -13.4330    3.2440    1.8710 C.2   420  VAL420      0.2287
    164  O        -14.6600    3.3160    1.6900 O.2   420  VAL420     -0.2864
    165  CB       -13.0050    0.9600    0.9340 C.3   420  VAL420      0.0276
    166  CG1      -12.0550    0.1070    0.1060 C.3   420  VAL420      0.0022
    167  CG2      -13.0680    0.4650    2.3660 C.3   420  VAL420      0.0022
@<TRIPOS>BOND
     1    80    79    2
     2    79    78    1
     3    49    48    2
     4    48    47    1
     5    33    32    2
     6    78    81    1
     7    78    77    1
     8    42    41    2
     9    81    82    1
    10    85    83   ar
    11    47    46    1
    12    47    50    1
    13    41    46   am
    14    41    40    1
    15    29    28    2
    16    32    31    1
    17    32    39   am
    18    82    83    1
    19    83    84   ar
    20    31    34    1
    21    31    30    1
    22    40    39    1
    23    40    43    1
    24    69    68    2
    25    50    51    1
    26    50    52    1
    27    68    67    1
    28    62    61    2
    29    34    35    1
    30    28    30   am
    31    28    27    1
    32     4     3    2
    33    64    63    1
    34    35    36    1
    35    61    60    1
    36    45    43    1
    37    43    44    1
    38     7     6    1
    39    36    37    1
    40    27    26    1
    41     3     2    1
    42     5     6    1
    43     5     2    1
    44    66    67    1
    45    86    87    1
    46    67    70    1
    47    63    60    1
    48    63    65    1
    49     1     2    1
    50     6     8    1
    51    60    59    1
    52    23    22    2
    53    71    70    1
    54    71    72    1
    55    26    22   am
    56    37    38    1
    57    25    24    1
    58    22    21    1
    59    88    87    1
    60    88    89    2
    61    87    90    1
    62    59    55   am
    63    72    73    1
    64    73    74    2
    65    56    55    2
    66    91    90    1
    67    91    92    1
    68    76    74    1
    69    74    75    1
    70    55    54    1
    71    24    21    1
    72    93    92   ar
    73    92    94   ar
    74    53    54    1
    75    21    20    1
    76    54    57    1
    77    95    96    1
    78   123   122    1
    79    20    18   am
    80    96    97    1
    81    96    99    1
    82    19    18    2
    83    18    17    1
    84   122   119    1
    85    57    58    1
    86    97    98    2
    87   119   120    1
    88   119   118    1
    89    17    16    1
    90   105   104    1
    91   121   120    2
    92    16    11   am
    93   159   158    1
    94   106   104    1
    95   160   158    1
    96   129   128    1
    97     9    10    1
    98    11    10    1
    99    11    12    2
   100   104   101    1
   101    10    13    1
   102   101   100    1
   103   101   102    1
   104   158   157    2
   105   128   130    1
   106   128   125    1
   107   124   125    1
   108   153   152    2
   109   103   102    2
   110    13    15    1
   111    13    14    1
   112   125   126    1
   113   116   117   ar
   114   116   114   ar
   115   157   156    1
   116   117   115   ar
   117   148   147    1
   118   127   126    2
   119   114   112   ar
   120   149   147    1
   121   115   113   ar
   122   166   165    1
   123   137   136   ar
   124   152   151    1
   125   152   161   am
   126   112   113   ar
   127   112   111    1
   128   156   155    1
   129   154   151    1
   130   154   155    1
   131   111   108    1
   132   138   136   ar
   133   147   146    2
   134   151   150    1
   135   162   165    1
   136   162   161    1
   137   162   163    1
   138   165   167    1
   139   136   135    1
   140   164   163    2
   141   110   109    2
   142   146   145    1
   143   108   109    1
   144   108   107    1
   145   135   132    1
   146   145   144    1
   147   131   132    1
   148   132   133    1
   149   139   140    1
   150   140   141    1
   151   140   143    1
   152   133   134    2
   153   142   141    2
   154   144   143    1
