@<TRIPOS>MOLECULE
tmp/5vhvB02.pdb
 119 116 0 0 0
SMALL
GASTEIGER

@<TRIPOS>ATOM
      1  N         40.0250   53.7100   -1.2640 N.3     5  LEU5       -0.1245
      2  CA        40.5360   54.9480   -0.6930 C.3     5  LEU5        0.1561
      3  C         39.4220   55.8190   -0.1340 C.2     5  LEU5        0.2260
      4  O         39.6430   56.5760    0.8190 O.2     5  LEU5       -0.2867
      5  CB        41.3040   55.7260   -1.7570 C.3     5  LEU5        0.0270
      6  CG        42.0250   56.9860   -1.2550 C.3     5  LEU5        0.0019
      7  CD1       43.0440   56.6860   -0.1590 C.3     5  LEU5        0.0001
      8  CD2       42.7230   57.6670   -2.4470 C.3     5  LEU5        0.0001
      9  N         38.6970   56.3690    3.6050 N.3     8  ILE8       -0.1245
     10  CA        39.3970   57.3010    4.4850 C.3     8  ILE8        0.1561
     11  C         38.4310   58.3750    4.9800 C.2     8  ILE8        0.2260
     12  O         38.5760   58.9030    6.0900 O.2     8  ILE8       -0.2867
     13  CB        40.6130   57.9200    3.7640 C.3     8  ILE8        0.0252
     14  CG1       41.5340   58.6270    4.7570 C.3     8  ILE8        0.0019
     15  CG2       40.1700   58.9070    2.7190 C.3     8  ILE8        0.0019
     16  CD1       42.9910   58.5080    4.4030 C.3     8  ILE8        0.0001
     17  N         45.1480   62.8930    9.7650 N.3    81  SER81      -0.1202
     18  CA        45.5040   62.4030    8.4350 C.3    81  SER81       0.2020
     19  C         45.8160   63.5620    7.5060 C.2    81  SER81       0.2619
     20  O         44.9960   64.4670    7.3580 O.2    81  SER81      -0.2717
     21  CB        44.3690   61.5720    7.8370 C.3    81  SER81       0.2103
     22  OG        44.5150   61.4830    6.4310 O.3    81  SER81      -0.2182
     23  N         46.9630   63.4900    6.8280 N.am   82  GLY82      -0.1942
     24  CA        47.2960   64.5080    5.8430 C.3    82  GLY82       0.2014
     25  C         46.3750   64.5050    4.6310 C.2    82  GLY82       0.2638
     26  O         46.0080   65.5650    4.1110 O.2    82  GLY82      -0.2714
     27  N         45.9770   63.3180    4.1660 N.am   83  PHE83      -0.1973
     28  CA        45.0660   63.2520    3.0290 C.3    83  PHE83       0.1639
     29  C         43.7160   63.8490    3.3860 C.2    83  PHE83       0.2290
     30  O         43.1340   64.6060    2.6010 O.2    83  PHE83      -0.2864
     31  CB        44.9120   61.8020    2.5650 C.3    83  PHE83       0.0560
     32  CG        44.1380   61.6550    1.2850 C.ar   83  PHE83      -0.0200
     33  CD1       42.7710   61.5730    1.2960 C.ar   83  PHE83      -0.0042
     34  CD2       44.7890   61.6050    0.0740 C.ar   83  PHE83      -0.0042
     35  CE1       42.0570   61.4570    0.1270 C.ar   83  PHE83      -0.0003
     36  CE2       44.0710   61.4780   -1.1060 C.ar   83  PHE83      -0.0003
     37  CZ        42.7170   61.3990   -1.0740 C.ar   83  PHE83      -0.0000
     38  N         43.1230   67.6230    3.0800 N.3    86  LEU86      -0.1245
     39  CA        42.8640   68.2860    1.8020 C.3    86  LEU86       0.1561
     40  C         41.6030   69.1520    1.8180 C.2    86  LEU86       0.2260
     41  O         41.4980   70.0960    1.0250 O.2    86  LEU86      -0.2867
     42  CB        42.7370   67.2450    0.6840 C.3    86  LEU86       0.0270
     43  CG        44.0200   66.5390    0.2800 C.3    86  LEU86       0.0019
     44  CD1       43.7320   65.3750   -0.6370 C.3    86  LEU86       0.0001
     45  CD2       44.9420   67.5190   -0.4090 C.3    86  LEU86       0.0001
     46  N         48.9930   68.8610    4.6840 N.3   114  GLY114     -0.1210
     47  CA        48.6600   67.9080    3.6550 C.3   114  GLY114      0.1956
     48  C         49.2360   68.4030    2.3550 C.2   114  GLY114      0.2612
     49  O         50.4290   68.1980    2.0640 O.2   114  GLY114     -0.2717
     50  N         48.3980   69.1150    1.6000 N.am  115  SER115     -0.1952
     51  CA        48.8200   69.7120    0.3400 C.3   115  SER115      0.1924
     52  C         47.7760   70.6590   -0.2180 C.2   115  SER115      0.2314
     53  O         46.6090   70.2840   -0.3690 O.2   115  SER115     -0.2863
     54  CB        49.1040   68.6460   -0.7040 C.3   115  SER115      0.2116
     55  OG        49.4100   69.2990   -1.9290 O.3   115  SER115     -0.2180
     56  N         47.9380   71.5780   -3.2970 N.3   117  GLU117     -0.1231
     57  CA        48.1950   71.4530   -4.7360 C.3   117  GLU117      0.1699
     58  C         46.9340   71.5480   -5.5990 C.2   117  GLU117      0.2592
     59  O         47.0010   72.0520   -6.7220 O.2   117  GLU117     -0.2718
     60  CB        48.8980   70.1340   -5.0280 C.3   117  GLU117      0.0402
     61  CG        48.0270   68.8820   -4.7680 C.3   117  GLU117      0.1161
     62  CD        48.8720   67.6160   -4.7440 C.2   117  GLU117      0.3649
     63  OE1       48.8450   66.8550   -5.7360 O.co2 117  GLU117     -0.2457
     64  OE2       49.5870   67.4130   -3.7300 O.co2 117  GLU117     -0.2457
     65  N         45.7820   71.0850   -5.1090 N.am  118  PHE118     -0.1976
     66  CA        44.5480   71.2150   -5.8890 C.3   118  PHE118      0.1639
     67  C         43.9620   72.6140   -5.7630 C.2   118  PHE118      0.2290
     68  O         43.5350   73.2060   -6.7620 O.2   118  PHE118     -0.2864
     69  CB        43.5210   70.1680   -5.4540 C.3   118  PHE118      0.0560
     70  CG        44.0370   68.7680   -5.5410 C.ar  118  PHE118     -0.0200
     71  CD1       44.4190   68.2350   -6.7690 C.ar  118  PHE118     -0.0042
     72  CD2       44.1830   67.9890   -4.3960 C.ar  118  PHE118     -0.0042
     73  CE1       44.9390   66.9390   -6.8600 C.ar  118  PHE118     -0.0003
     74  CE2       44.6890   66.7010   -4.4780 C.ar  118  PHE118     -0.0003
     75  CZ        45.0740   66.1790   -5.7200 C.ar  118  PHE118     -0.0000
     76  N         57.7030   72.7330   -2.2790 N.3   148  ARG148     -0.1245
     77  CA        57.1250   71.6690   -3.1040 C.3   148  ARG148      0.1563
     78  C         55.8050   72.1110   -3.7320 C.2   148  ARG148      0.2260
     79  O         55.5370   71.8370   -4.9080 O.2   148  ARG148     -0.2867
     80  CB        56.9360   70.4220   -2.2410 C.3   148  ARG148      0.0307
     81  CG        56.5120   69.1670   -3.0000 C.3   148  ARG148      0.0489
     82  CD        55.0200   69.0040   -3.1280 C.3   148  ARG148      0.2205
     83  NE        54.7130   67.6790   -3.6730 N.pl3 148  ARG148     -0.0865
     84  CZ        53.4880   67.1880   -3.8330 C.cat 148  ARG148      0.5346
     85  NH1       52.4180   67.9190   -3.5180 N.pl3 148  ARG148      0.1354
     86  NH2       53.3310   65.9610   -4.3060 N.pl3 148  ARG148      0.1354
     87  N         47.9640   65.1270  -11.8570 N.3   159  PRO159     -0.2102
     88  CA        46.8750   64.1580  -11.7120 C.3   159  PRO159      0.1504
     89  C         45.8220   64.6270  -10.7140 C.2   159  PRO159      0.2575
     90  O         46.1310   65.2480   -9.6900 O.2   159  PRO159     -0.2718
     91  CB        47.5910   62.8950  -11.2230 C.3   159  PRO159      0.0282
     92  CG        48.9910   63.0250  -11.7390 C.3   159  PRO159      0.0208
     93  CD        49.2700   64.5140  -11.5450 C.3   159  PRO159      0.0893
     94  N         44.5630   64.3030  -11.0380 N.am  160  TRP160     -0.1977
     95  CA        43.3800   64.5850  -10.2320 C.3   160  TRP160      0.1640
     96  C         42.9960   66.0570  -10.2310 C.2   160  TRP160      0.2290
     97  O         42.1770   66.4840   -9.3930 O.2   160  TRP160     -0.2864
     98  CB        43.5480   64.1140   -8.7900 C.3   160  TRP160      0.0576
     99  CG        43.6090   62.6200   -8.6080 C.ar  160  TRP160      0.0006
    100  CD1       43.9030   61.6720   -9.5390 C.ar  160  TRP160      0.0946
    101  CD2       43.3550   61.9260   -7.3880 C.ar  160  TRP160      0.0152
    102  NE1       43.8450   60.4080   -8.9610 N.ar  160  TRP160     -0.2442
    103  CE2       43.5020   60.5480   -7.6430 C.ar  160  TRP160      0.0810
    104  CE3       43.0130   62.3400   -6.1050 C.ar  160  TRP160      0.0012
    105  CZ2       43.3230   59.5830   -6.6460 C.ar  160  TRP160      0.0191
    106  CZ3       42.8330   61.3830   -5.1210 C.ar  160  TRP160      0.0001
    107  CH2       42.9840   60.0230   -5.4020 C.ar  160  TRP160      0.0015
    108  N         61.4620   65.4820   -1.4680 N.3   188  TYR188     -0.1241
    109  CA        60.0680   65.7530   -1.7760 C.3   188  TYR188      0.1605
    110  C         59.9520   66.8280   -2.8440 C.2   188  TYR188      0.2264
    111  O         59.1740   66.6940   -3.8010 O.2   188  TYR188     -0.2867
    112  CB        59.3690   66.1720   -0.4840 C.3   188  TYR188      0.0534
    113  CG        57.8740   66.4320   -0.5140 C.ar  188  TYR188     -0.0201
    114  CD1       56.9900   65.5590   -1.1310 C.ar  188  TYR188     -0.0009
    115  CD2       57.3440   67.5120    0.1680 C.ar  188  TYR188     -0.0009
    116  CE1       55.6260   65.7800   -1.0980 C.ar  188  TYR188      0.0417
    117  CE2       55.9870   67.7410    0.2110 C.ar  188  TYR188      0.0417
    118  CZ        55.1290   66.8700   -0.4240 C.ar  188  TYR188      0.1957
    119  OH        53.7670   67.0670   -0.3780 O.3   188  TYR188     -0.2866
@<TRIPOS>BOND
     1    87    88    1
     2    87    93    1
     3    92    93    1
     4    92    91    1
     5    88    91    1
     6    88    89    1
     7    94    89   am
     8    94    95    1
     9    89    90    2
    10    95    96    1
    11    95    98    1
    12    96    97    2
    13   100   102   ar
    14   100    99   ar
    15   102   103   ar
    16    98    99    1
    17    99   101   ar
    18   103   101   ar
    19   103   105   ar
    20   101   104   ar
    21    73    71   ar
    22    73    75   ar
    23    71    70   ar
    24    68    67    2
    25    59    58    2
    26   105   107   ar
    27   104   106   ar
    28    66    67    1
    29    66    69    1
    30    66    65    1
    31    63    62   ar
    32    75    74   ar
    33    58    65   am
    34    58    57    1
    35    70    69    1
    36    70    72   ar
    37   107   106   ar
    38    60    61    1
    39    60    57    1
    40    79    78    2
    41    61    62    1
    42    62    64   ar
    43    57    56    1
    44    74    72   ar
    45    86    84    1
    46    84    83    2
    47    84    85    1
    48   111   110    2
    49    78    77    1
    50    83    82    1
    51    82    81    1
    52    77    76    1
    53    77    80    1
    54    81    80    1
    55   110   109    1
    56     8     6    1
    57    55    54    1
    58   109   108    1
    59   109   112    1
    60     5     6    1
    61     5     2    1
    62     1     2    1
    63     6     7    1
    64   114   116   ar
    65   114   113   ar
    66    36    37   ar
    67    36    34   ar
    68   116   118   ar
    69    37    35   ar
    70    54    51    1
    71     2     3    1
    72    44    43    1
    73   113   112    1
    74   113   115   ar
    75   118   119    1
    76   118   117   ar
    77    45    43    1
    78    53    52    2
    79    52    51    1
    80     3     4    2
    81    34    32   ar
    82    35    33   ar
    83   115   117   ar
    84    43    42    1
    85    51    50    1
    86    42    39    1
    87    41    40    2
    88    32    33   ar
    89    32    31    1
    90    50    48   am
    91    39    40    1
    92    39    38    1
    93    49    48    2
    94    48    47    1
    95    31    28    1
    96    30    29    2
    97    15    13    1
    98    28    29    1
    99    28    27    1
   100     9    10    1
   101    47    46    1
   102    13    10    1
   103    13    14    1
   104    26    25    2
   105    27    25   am
   106    16    14    1
   107    10    11    1
   108    25    24    1
   109    11    12    2
   110    24    23    1
   111    22    21    1
   112    23    19   am
   113    20    19    2
   114    19    18    1
   115    21    18    1
   116    18    17    1
