@<TRIPOS>MOLECULE
tmp/5vi0A00.pdb
 164 163 0 0 0
SMALL
GASTEIGER

@<TRIPOS>ATOM
      1  N         52.4740   69.0130   54.1500 N.3     5  LEU5       -0.1245
      2  CA        53.1600   68.8430   52.8720 C.3     5  LEU5        0.1561
      3  C         53.3220   67.3820   52.4740 C.2     5  LEU5        0.2260
      4  O         53.4940   67.0980   51.2850 O.2     5  LEU5       -0.2867
      5  CB        54.5310   69.5210   52.9030 C.3     5  LEU5        0.0270
      6  CG        54.5320   71.0570   53.0170 C.3     5  LEU5        0.0019
      7  CD1       55.9360   71.6020   52.8750 C.3     5  LEU5        0.0001
      8  CD2       53.5980   71.6970   51.9880 C.3     5  LEU5        0.0001
      9  N         54.9880   64.3840   34.9400 N.3    76  LEU76      -0.1231
     10  CA        54.5940   64.6080   36.3220 C.3    76  LEU76       0.1693
     11  C         54.1200   66.0430   36.5290 C.2    76  LEU76       0.2592
     12  O         54.6970   66.9940   35.9810 O.2    76  LEU76      -0.2718
     13  CB        55.7700   64.3070   37.2470 C.3    76  LEU76       0.0284
     14  CG        56.3370   62.9030   37.1240 C.3    76  LEU76       0.0019
     15  CD1       57.6870   62.8210   37.8230 C.3    76  LEU76       0.0001
     16  CD2       55.3630   61.8990   37.7220 C.3    76  LEU76       0.0001
     17  N         53.0730   66.2060   37.3430 N.am   77  ASN77      -0.1960
     18  CA        52.4740   67.5350   37.4800 C.3    77  ASN77       0.1819
     19  C         53.4550   68.5380   38.0810 C.2    77  ASN77       0.2622
     20  O         53.5240   69.6890   37.6390 O.2    77  ASN77      -0.2715
     21  CB        51.1880   67.4790   38.3160 C.3    77  ASN77       0.1195
     22  CG        51.0620   66.1990   39.1620 C.2    77  ASN77       0.2630
     23  OD1       52.0250   65.7340   39.7880 O.2    77  ASN77      -0.2716
     24  ND2       49.8500   65.6370   39.1910 N.am   77  ASN77      -0.0877
     25  N         54.2690   68.1010   39.0380 N.am   78  SER78      -0.1936
     26  CA        54.9050   68.9990   39.9890 C.3    78  SER78       0.2055
     27  C         56.4090   68.7760   40.1160 C.2    78  SER78       0.2644
     28  O         56.8890   67.6400   40.1730 O.2    78  SER78      -0.2714
     29  CB        54.2370   68.8380   41.3650 C.3    78  SER78       0.2130
     30  OG        55.1840   68.8980   42.4150 O.3    78  SER78      -0.2179
     31  N         57.1420   69.8780   40.2340 N.am   79  GLY79      -0.1939
     32  CA        58.5710   69.7870   40.5040 C.3    79  GLY79       0.2014
     33  C         58.8860   69.1640   41.8520 C.2    79  GLY79       0.2638
     34  O         59.8570   68.4170   41.9900 O.2    79  GLY79      -0.2714
     35  N         58.0780   69.4630   42.8650 N.am   80  PHE80      -0.1973
     36  CA        58.2580   68.8140   44.1560 C.3    80  PHE80       0.1639
     37  C         58.0690   67.3000   44.0370 C.2    80  PHE80       0.2290
     38  O         58.8760   66.5110   44.5420 O.2    80  PHE80      -0.2864
     39  CB        57.2830   69.4130   45.1610 C.3    80  PHE80       0.0560
     40  CG        57.5530   69.0190   46.5770 C.ar   80  PHE80      -0.0200
     41  CD1       57.0380   67.8530   47.0970 C.ar   80  PHE80      -0.0042
     42  CD2       58.3100   69.8250   47.3970 C.ar   80  PHE80      -0.0042
     43  CE1       57.2860   67.5030   48.4150 C.ar   80  PHE80      -0.0003
     44  CE2       58.5530   69.4760   48.7070 C.ar   80  PHE80      -0.0003
     45  CZ        58.0410   68.3220   49.2170 C.ar   80  PHE80      -0.0000
     46  N         61.0000   65.0670   42.8580 N.3    83  LEU83      -0.1245
     47  CA        62.1970   64.7630   43.6380 C.3    83  LEU83       0.1561
     48  C         62.5130   63.2670   43.6720 C.2    83  LEU83       0.2260
     49  O         63.6630   62.8970   43.9140 O.2    83  LEU83      -0.2867
     50  CB        62.0710   65.2700   45.0780 C.3    83  LEU83       0.0270
     51  CG        61.9550   66.7830   45.2780 C.3    83  LEU83       0.0019
     52  CD1       61.7930   67.1050   46.7590 C.3    83  LEU83       0.0001
     53  CD2       63.1480   67.5120   44.7090 C.3    83  LEU83       0.0001
     54  N         66.0860   69.6470   35.8110 N.3   108  THR108     -0.1203
     55  CA        65.3050   70.6640   35.1050 C.3   108  THR108      0.1994
     56  C         63.8060   70.5210   35.3300 C.2   108  THR108      0.2618
     57  O         63.0640   71.4590   35.0290 O.2   108  THR108     -0.2717
     58  CB        65.5970   70.6390   33.5980 C.3   108  THR108      0.1784
     59  OG1       65.2000   69.3810   33.0430 O.3   108  THR108     -0.2211
     60  CG2       67.1010   70.8500   33.3190 C.3   108  THR108      0.0376
     61  N         63.3440   69.3840   35.8490 N.am  109  PHE109     -0.1961
     62  CA        61.9300   69.1610   36.1330 C.3   109  PHE109      0.1771
     63  C         61.5790   69.3890   37.5960 C.2   109  PHE109      0.2620
     64  O         60.4020   69.3360   37.9580 O.2   109  PHE109     -0.2715
     65  CB        61.5290   67.7410   35.7200 C.3   109  PHE109      0.0574
     66  CG        61.7010   67.4750   34.2500 C.ar  109  PHE109     -0.0200
     67  CD1       60.6690   67.7510   33.3580 C.ar  109  PHE109     -0.0042
     68  CD2       62.8960   66.9590   33.7570 C.ar  109  PHE109     -0.0042
     69  CE1       60.8240   67.5140   32.0030 C.ar  109  PHE109     -0.0003
     70  CE2       63.0600   66.7220   32.4030 C.ar  109  PHE109     -0.0003
     71  CZ        62.0210   66.9990   31.5200 C.ar  109  PHE109     -0.0000
     72  N         62.5690   69.6450   38.4350 N.am  110  GLY110     -0.1940
     73  CA        62.3590   69.8430   39.8480 C.3   110  GLY110      0.2014
     74  C         63.6830   70.2360   40.4530 C.2   110  GLY110      0.2639
     75  O         64.1270   71.3790   40.2780 O.2   110  GLY110     -0.2714
     76  N         64.3460   69.3010   41.1330 N.am  111  SER111     -0.1949
     77  CA        65.6670   69.6200   41.6500 C.3   111  SER111      0.1924
     78  C         66.3940   68.3820   42.1360 C.2   111  SER111      0.2314
     79  O         65.8360   67.5840   42.8950 O.2   111  SER111     -0.2863
     80  CB        65.5880   70.6390   42.7960 C.3   111  SER111      0.2116
     81  OG        66.8760   70.7950   43.3780 O.3   111  SER111     -0.2180
     82  N         68.9180   68.7440   44.1220 N.3   113  GLU113     -0.1231
     83  CA        69.7510   69.3290   45.1690 C.3   113  GLU113      0.1699
     84  C         69.9500   68.3610   46.3280 C.2   113  GLU113      0.2592
     85  O         71.0280   68.3330   46.9350 O.2   113  GLU113     -0.2718
     86  CB        69.1560   70.6630   45.6640 C.3   113  GLU113      0.0402
     87  CG        67.8640   70.5390   46.4650 C.3   113  GLU113      0.1161
     88  CD        67.0580   71.8330   46.5270 C.2   113  GLU113      0.3649
     89  OE1       66.9270   72.3890   47.6430 O.co2 113  GLU113     -0.2457
     90  OE2       66.5470   72.2890   45.4650 O.co2 113  GLU113     -0.2457
     91  N         68.9300   67.5630   46.6610 N.am  114  PHE114     -0.1976
     92  CA        69.1000   66.6090   47.7550 C.3   114  PHE114      0.1639
     93  C         69.9200   65.4160   47.3130 C.2   114  PHE114      0.2290
     94  O         70.7860   64.9450   48.0580 O.2   114  PHE114     -0.2864
     95  CB        67.7440   66.1400   48.2880 C.3   114  PHE114      0.0560
     96  CG        66.8920   67.2610   48.8110 C.ar  114  PHE114     -0.0200
     97  CD1       67.2490   67.9370   49.9760 C.ar  114  PHE114     -0.0042
     98  CD2       65.7480   67.6550   48.1340 C.ar  114  PHE114     -0.0042
     99  CE1       66.4760   68.9610   50.4570 C.ar  114  PHE114     -0.0003
    100  CE2       64.9750   68.6980   48.6060 C.ar  114  PHE114     -0.0003
    101  CZ        65.3380   69.3560   49.7620 C.ar  114  PHE114     -0.0000
    102  N         69.7630   77.1330   32.9380 N.3   139  GLU139     -0.1231
    103  CA        69.8220   77.7800   34.2430 C.3   139  GLU139      0.1699
    104  C         69.5180   76.7890   35.3670 C.2   139  GLU139      0.2592
    105  O         69.9920   76.9720   36.4970 O.2   139  GLU139     -0.2718
    106  CB        68.8670   78.9880   34.2830 C.3   139  GLU139      0.0402
    107  CG        67.3860   78.6180   34.2040 C.3   139  GLU139      0.1161
    108  CD        66.4370   79.8050   34.3960 C.2   139  GLU139      0.3649
    109  OE1       65.4120   79.8540   33.6840 O.co2 139  GLU139     -0.2457
    110  OE2       66.6980   80.6790   35.2570 O.co2 139  GLU139     -0.2457
    111  N         68.7530   75.7280   35.0820 N.am  140  HIS140     -0.1976
    112  CA        68.4760   74.7350   36.1210 C.3   140  HIS140      0.1656
    113  C         69.7330   73.9600   36.4850 C.2   140  HIS140      0.2291
    114  O         69.9790   73.6800   37.6630 O.2   140  HIS140     -0.2864
    115  CB        67.3720   73.7810   35.6700 C.3   140  HIS140      0.0771
    116  CG        66.0290   74.4270   35.5890 C.ar  140  HIS140      0.0820
    117  ND1       65.1430   74.4370   36.6450 N.ar  140  HIS140     -0.2267
    118  CD2       65.4310   75.1140   34.5860 C.ar  140  HIS140      0.1154
    119  CE1       64.0500   75.0900   36.2890 C.ar  140  HIS140      0.1986
    120  NE2       64.2010   75.5130   35.0460 N.ar  140  HIS140     -0.2212
    121  N         71.9740   76.2540   38.3250 N.3   143  ARG143     -0.1245
    122  CA        71.4610   76.4090   39.6820 C.3   143  ARG143      0.1563
    123  C         71.8150   75.2070   40.5600 C.2   143  ARG143      0.2260
    124  O         72.1820   75.3790   41.7280 O.2   143  ARG143     -0.2867
    125  CB        69.9500   76.6470   39.6420 C.3   143  ARG143      0.0307
    126  CG        69.3420   77.1500   40.9330 C.3   143  ARG143      0.0489
    127  CD        68.7510   76.0110   41.7680 C.3   143  ARG143      0.2205
    128  NE        68.0560   76.5640   42.9150 N.pl3 143  ARG143     -0.0865
    129  CZ        67.4350   75.8450   43.8360 C.cat 143  ARG143      0.5346
    130  NH1       67.4450   74.5240   43.7270 N.pl3 143  ARG143      0.1354
    131  NH2       66.8140   76.4490   44.8600 N.pl3 143  ARG143      0.1354
    132  N         68.6550   73.7450   53.4470 N.3   154  PRO154     -0.2102
    133  CA        67.5190   73.3330   54.2900 C.3   154  PRO154      0.1504
    134  C         66.9430   71.9840   53.8640 C.2   154  PRO154      0.2575
    135  O         66.8970   71.6450   52.6790 O.2   154  PRO154     -0.2718
    136  CB        66.5160   74.4790   54.1130 C.3   154  PRO154      0.0282
    137  CG        67.4330   75.7130   53.8930 C.3   154  PRO154      0.0208
    138  CD        68.5620   75.1650   53.0350 C.3   154  PRO154      0.0893
    139  N         66.5250   71.1980   54.8610 N.am  155  TRP155     -0.1977
    140  CA        66.0200   69.8330   54.6980 C.3   155  TRP155      0.1640
    141  C         67.0980   68.8630   54.2580 C.2   155  TRP155      0.2290
    142  O         66.7900   67.8160   53.7080 O.2   155  TRP155     -0.2864
    143  CB        64.8310   69.7430   53.7140 C.3   155  TRP155      0.0576
    144  CG        63.5350   70.2680   54.2700 C.ar  155  TRP155      0.0006
    145  CD1       63.3700   71.0010   55.4210 C.ar  155  TRP155      0.0946
    146  CD2       62.2270   70.0910   53.7200 C.ar  155  TRP155      0.0152
    147  NE1       62.0460   71.3010   55.6070 N.ar  155  TRP155     -0.2442
    148  CE2       61.3190   70.7600   54.5800 C.ar  155  TRP155      0.0810
    149  CE3       61.7300   69.4440   52.5840 C.ar  155  TRP155      0.0012
    150  CZ2       59.9390   70.7840   54.3460 C.ar  155  TRP155      0.0191
    151  CZ3       60.3550   69.4830   52.3430 C.ar  155  TRP155      0.0001
    152  CH2       59.4770   70.1540   53.2220 C.ar  155  TRP155      0.0015
    153  N         66.9890   82.7720   39.1460 N.3   183  TYR183     -0.1241
    154  CA        66.9730   81.4910   39.8460 C.3   183  TYR183      0.1605
    155  C         68.3670   81.1070   40.2960 C.2   183  TYR183      0.2264
    156  O         68.5720   80.7140   41.4520 O.2   183  TYR183     -0.2867
    157  CB        66.3920   80.4190   38.9260 C.3   183  TYR183      0.0534
    158  CG        66.1700   79.0360   39.5270 C.ar  183  TYR183     -0.0201
    159  CD1       65.5910   78.8710   40.7860 C.ar  183  TYR183     -0.0009
    160  CD2       66.4810   77.8940   38.7950 C.ar  183  TYR183     -0.0009
    161  CE1       65.3590   77.6070   41.2930 C.ar  183  TYR183      0.0417
    162  CE2       66.2560   76.6400   39.2930 C.ar  183  TYR183      0.0417
    163  CZ        65.7040   76.4950   40.5290 C.ar  183  TYR183      0.1957
    164  OH        65.5010   75.2310   40.9900 O.3   183  TYR183     -0.2866
@<TRIPOS>BOND
     1    71    69   ar
     2    71    70   ar
     3    69    67   ar
     4    70    68   ar
     5   102   103    1
     6    59    58    1
     7    60    58    1
     8    67    66   ar
     9    58    55    1
    10   109   108   ar
    11    68    66   ar
    12   107   106    1
    13   107   108    1
    14   103   106    1
    15   103   104    1
    16    66    65    1
    17   108   110   ar
    18   118   120   ar
    19   118   116   ar
    20     9    10    1
    21    57    56    2
    22   120   119   ar
    23   111   104   am
    24   111   112    1
    25    55    56    1
    26    55    54    1
    27    56    61   am
    28   104   105    2
    29   116   115    1
    30   116   117   ar
    31   115   112    1
    32    65    62    1
    33    61    62    1
    34    12    11    2
    35   112   113    1
    36    62    63    1
    37   119   117   ar
    38    10    11    1
    39    10    13    1
    40   113   114    2
    41    11    17   am
    42    14    13    1
    43    14    16    1
    44    14    15    1
    45    17    18    1
    46    18    19    1
    47    18    21    1
    48    63    64    2
    49    63    72   am
    50    20    19    2
    51    19    25   am
    52    21    22    1
    53   121   122    1
    54    72    73    1
    55   160   162   ar
    56   160   158   ar
    57   157   158    1
    58   157   154    1
    59    25    26    1
    60   153   154    1
    61    22    24   am
    62    22    23    2
    63   162   163   ar
    64   158   159   ar
    65   125   122    1
    66   125   126    1
    67   122   123    1
    68   154   155    1
    69    73    74    1
    70    26    27    1
    71    26    29    1
    72    27    28    2
    73    27    31   am
    74    31    32    1
    75    75    74    2
    76   155   156    2
    77    74    76   am
    78    32    33    1
    79   163   164    1
    80   163   161   ar
    81   123   124    2
    82   159   161   ar
    83   126   127    1
    84    76    77    1
    85    29    30    1
    86    77    78    1
    87    77    80    1
    88   127   128    1
    89    33    34    2
    90    33    35   am
    91    78    79    2
    92    80    81    1
    93    46    47    1
    94    35    36    1
    95   128   129    2
    96    47    48    1
    97    47    50    1
    98    48    49    2
    99   130   129    1
   100   129   131    1
   101    37    36    1
   102    37    38    2
   103    82    83    1
   104    36    39    1
   105    53    51    1
   106    50    51    1
   107    39    40    1
   108    83    86    1
   109    83    84    1
   110    51    52    1
   111    90    88   ar
   112    86    87    1
   113    84    91   am
   114    84    85    2
   115    87    88    1
   116    88    89   ar
   117    40    41   ar
   118    40    42   ar
   119    91    92    1
   120    41    43   ar
   121    93    92    1
   122    93    94    2
   123    42    44   ar
   124    92    95    1
   125    98   100   ar
   126    98    96   ar
   127    95    96    1
   128    43    45   ar
   129   100   101   ar
   130    44    45   ar
   131    96    97   ar
   132   101    99   ar
   133    97    99   ar
   134     4     3    2
   135     8     6    1
   136   151   149   ar
   137   151   152   ar
   138     3     2    1
   139   149   146   ar
   140   135   134    2
   141     2     5    1
   142     2     1    1
   143     7     6    1
   144     5     6    1
   145   138   132    1
   146   138   137    1
   147   152   150   ar
   148   132   133    1
   149   142   141    2
   150   143   144    1
   151   143   140    1
   152   146   144   ar
   153   146   148   ar
   154   134   133    1
   155   134   139   am
   156   137   136    1
   157   136   133    1
   158   141   140    1
   159   144   145   ar
   160   150   148   ar
   161   148   147   ar
   162   140   139    1
   163   145   147   ar
