@<TRIPOS>MOLECULE
tmp/5vi6A00.pdb
 81 78 0 0 0
SMALL
GASTEIGER

@<TRIPOS>ATOM
      1  N          9.5340   -8.1630  -20.2640 N.3   121  HIS121     -0.1226
      2  CA         9.2630   -9.5590  -19.9500 C.3   121  HIS121      0.1752
      3  C          9.3560  -10.5370  -21.1200 C.2   121  HIS121      0.2596
      4  O          9.2370  -11.7390  -20.8750 O.2   121  HIS121     -0.2718
      5  CB         7.8800   -9.6800  -19.3110 C.3   121  HIS121      0.0759
      6  CG         6.7570   -9.1300  -20.1340 C.ar  121  HIS121      0.0818
      7  ND1        5.4410   -9.4050  -19.8180 N.ar  121  HIS121     -0.2268
      8  CD2        6.7220   -8.3270  -21.2270 C.ar  121  HIS121      0.1154
      9  CE1        4.6430   -8.8120  -20.6820 C.ar  121  HIS121      0.1986
     10  NE2        5.3880   -8.1480  -21.5420 N.ar  121  HIS121     -0.2212
     11  N          9.5680  -10.0810  -22.3640 N.am  122  HIS122     -0.1975
     12  CA         9.5920  -11.0080  -23.5000 C.3   122  HIS122      0.1656
     13  C         10.9710  -11.5690  -23.8130 C.2   122  HIS122      0.2291
     14  O         11.0690  -12.5710  -24.5090 O.2   122  HIS122     -0.2864
     15  CB         9.0650  -10.3430  -24.7750 C.3   122  HIS122      0.0771
     16  CG         7.6370   -9.9020  -24.6840 C.ar  122  HIS122      0.0820
     17  ND1        6.5990  -10.7630  -24.4180 N.ar  122  HIS122     -0.2267
     18  CD2        7.0680   -8.6870  -24.8590 C.ar  122  HIS122      0.1154
     19  CE1        5.4560  -10.0950  -24.4150 C.ar  122  HIS122      0.1986
     20  NE2        5.7120   -8.8300  -24.6790 N.ar  122  HIS122     -0.2212
     21  N          0.6690   -7.0810  -17.5320 N.3   157  ASP157     -0.1239
     22  CA         0.7720   -6.4700  -18.8520 C.3   157  ASP157      0.1674
     23  C         -0.2940   -7.0710  -19.7590 C.2   157  ASP157      0.2266
     24  O         -0.7420   -8.1940  -19.5510 O.2   157  ASP157     -0.2867
     25  CB         2.1670   -6.8220  -19.4070 C.3   157  ASP157      0.1410
     26  CG         2.5880   -5.9900  -20.5760 C.2   157  ASP157      0.3668
     27  OD1        3.4060   -5.0620  -20.3590 O.co2 157  ASP157     -0.2456
     28  OD2        2.1720   -6.3050  -21.7210 O.co2 157  ASP157     -0.2456
     29  N          0.2310   -8.2480  -22.5760 N.3   159  HIS159     -0.1241
     30  CA         0.8440   -9.3340  -23.3160 C.3   159  HIS159      0.1621
     31  C          1.3140  -10.4460  -22.3760 C.2   159  HIS159      0.2264
     32  O          1.7010  -10.2030  -21.2260 O.2   159  HIS159     -0.2867
     33  CB         2.0320   -8.8110  -24.1330 C.3   159  HIS159      0.0745
     34  CG         1.6550   -7.7800  -25.1500 C.ar  159  HIS159      0.0817
     35  ND1        1.6180   -6.4240  -24.8730 N.ar  159  HIS159     -0.2268
     36  CD2        1.3410   -7.9120  -26.4560 C.ar  159  HIS159      0.1154
     37  CE1        1.2550   -5.7800  -25.9720 C.ar  159  HIS159      0.1986
     38  NE2        1.0910   -6.6580  -26.9440 N.ar  159  HIS159     -0.2212
     39  N          0.2360  -10.9150  -30.3210 N.3   187  PHE187     -0.1241
     40  CA         1.5870  -11.2140  -29.8120 C.3   187  PHE187      0.1605
     41  C          1.6120  -11.5790  -28.3360 C.2   187  PHE187      0.2264
     42  O          0.9470  -10.9410  -27.5330 O.2   187  PHE187     -0.2867
     43  CB         2.4520   -9.9690  -30.0320 C.3   187  PHE187      0.0534
     44  CG         3.9100  -10.1480  -29.6820 C.ar  187  PHE187     -0.0203
     45  CD1        4.3760   -9.8490  -28.4090 C.ar  187  PHE187     -0.0042
     46  CD2        4.8050  -10.6140  -30.6330 C.ar  187  PHE187     -0.0042
     47  CE1        5.7070  -10.0210  -28.1130 C.ar  187  PHE187     -0.0003
     48  CE2        6.1320  -10.8080  -30.3200 C.ar  187  PHE187     -0.0003
     49  CZ         6.5800  -10.4990  -29.0710 C.ar  187  PHE187     -0.0000
     50  N         -0.5370   -1.1680  -20.6730 N.3   246  ASP246     -0.1239
     51  CA        -1.1520   -1.3060  -21.9830 C.3   246  ASP246      0.1674
     52  C         -2.5110   -1.9960  -21.9480 C.2   246  ASP246      0.2266
     53  O         -3.1200   -2.1670  -23.0100 O.2   246  ASP246     -0.2867
     54  CB        -0.1930   -1.9060  -23.0240 C.3   246  ASP246      0.1410
     55  CG         0.4840   -3.1970  -22.6010 C.2   246  ASP246      0.3668
     56  OD1        0.3060   -3.6560  -21.4540 O.co2 246  ASP246     -0.2456
     57  OD2        1.2080   -3.7450  -23.4920 O.co2 246  ASP246     -0.2456
     58  N         -2.7220   -0.1540  -28.1170 N.3   253  MET253     -0.1245
     59  CA        -3.0010   -1.5760  -28.2560 C.3   253  MET253      0.1570
     60  C         -4.4970   -1.8630  -28.3840 C.2   253  MET253      0.2261
     61  O         -4.8630   -2.9240  -28.8880 O.2   253  MET253     -0.2867
     62  CB        -2.3970   -2.3530  -27.0880 C.3   253  MET253      0.0387
     63  CG        -0.8650   -2.3850  -27.0830 C.3   253  MET253      0.0595
     64  SD        -0.2200   -3.4850  -28.3500 S.3   253  MET253     -0.1393
     65  CE         1.4840   -3.0020  -28.4570 C.3   253  MET253      0.0692
     66  N          4.8780   -2.5260  -20.6530 N.3   283  GLY283     -0.1225
     67  CA         4.1710   -1.8230  -21.6990 C.3   283  GLY283      0.1811
     68  C          3.3830   -0.6410  -21.1630 C.2   283  GLY283      0.2280
     69  O          3.2470   -0.4280  -19.9600 O.2   283  GLY283     -0.2866
     70  N          1.5660    2.5550  -23.7900 N.3   285  TYR285     -0.1241
     71  CA         1.9260    3.2610  -25.0060 C.3   285  TYR285      0.1605
     72  C          1.0750    4.5120  -25.2240 C.2   285  TYR285      0.2264
     73  O          1.3150    5.2440  -26.1800 O.2   285  TYR285     -0.2867
     74  CB         1.8730    2.2950  -26.2180 C.3   285  TYR285      0.0534
     75  CG         2.7010    1.0670  -25.9330 C.ar  285  TYR285     -0.0201
     76  CD1        2.1180   -0.1290  -25.5580 C.ar  285  TYR285     -0.0009
     77  CD2        4.0800    1.1300  -25.9700 C.ar  285  TYR285     -0.0009
     78  CE1        2.8680   -1.2230  -25.2260 C.ar  285  TYR285      0.0417
     79  CE2        4.8420    0.0380  -25.6520 C.ar  285  TYR285      0.0417
     80  CZ         4.2430   -1.1370  -25.2790 C.ar  285  TYR285      0.1957
     81  OH         5.0550   -2.1950  -24.9390 O.3   285  TYR285     -0.2866
@<TRIPOS>BOND
     1    46    48   ar
     2    46    44   ar
     3    39    40    1
     4    48    49   ar
     5    43    40    1
     6    43    44    1
     7    40    41    1
     8    44    45   ar
     9    49    47   ar
    10    61    60    2
    11    65    64    1
    12    45    47   ar
    13    60    59    1
    14    64    63    1
    15    41    42    2
    16    59    58    1
    17    59    62    1
    18    62    63    1
    19    38    36   ar
    20    38    37   ar
    21    36    34   ar
    22    74    75    1
    23    74    71    1
    24    73    72    2
    25    37    35   ar
    26    77    75   ar
    27    77    79   ar
    28    75    76   ar
    29    79    80   ar
    30    76    78   ar
    31    80    78   ar
    32    80    81    1
    33    72    71    1
    34    34    35   ar
    35    34    33    1
    36    71    70    1
    37    18    16   ar
    38    18    20   ar
    39    15    16    1
    40    15    12    1
    41    16    17   ar
    42    20    19   ar
    43    14    13    2
    44    17    19   ar
    45    33    30    1
    46    13    12    1
    47    12    11    1
    48    57    55   ar
    49    30    29    1
    50    30    31    1
    51    54    55    1
    52    54    51    1
    53    53    52    2
    54    55    56   ar
    55    31    32    2
    56    11     3   am
    57    51    52    1
    58    51    50    1
    59    28    26   ar
    60    67    68    1
    61    67    66    1
    62    10     8   ar
    63    10     9   ar
    64     8     6   ar
    65    68    69    2
    66     3     4    2
    67     3     2    1
    68     9     7   ar
    69    26    27   ar
    70    26    25    1
    71     1     2    1
    72     6     7   ar
    73     6     5    1
    74     2     5    1
    75    23    24    2
    76    23    22    1
    77    25    22    1
    78    22    21    1
