@<TRIPOS>MOLECULE
tmp/5vi9A00.pdb
 160 155 0 0 0
SMALL
GASTEIGER

@<TRIPOS>ATOM
      1  N          6.5530    6.6230    1.5770 N.3    30  LEU30      -0.1231
      2  CA         6.6610    6.3470    3.0110 C.3    30  LEU30       0.1693
      3  C          5.4630    6.9020    3.8060 C.2    30  LEU30       0.2593
      4  O          5.2580    6.5740    4.9800 O.2    30  LEU30      -0.2718
      5  CB         7.9870    6.9230    3.5640 C.3    30  LEU30       0.0284
      6  CG         9.2920    6.6120    2.7850 C.3    30  LEU30       0.0019
      7  CD1       10.4170    7.4940    3.2730 C.3    30  LEU30       0.0001
      8  CD2        9.6900    5.1210    2.8890 C.3    30  LEU30       0.0001
      9  N          4.7040    7.7600    3.1620 N.am   31  GLY31      -0.1942
     10  CA         3.5680    8.4060    3.7940 C.3    31  GLY31       0.2014
     11  C          2.9660    9.4800    2.9250 C.2    31  GLY31       0.2640
     12  O          3.4980    9.8230    1.8620 O.2    31  GLY31      -0.2714
     13  N          1.8240    9.9860    3.3650 N.am   32  THR32      -0.1936
     14  CA         1.0620   10.9720    2.6200 C.3    32  THR32       0.2028
     15  C          0.4010   11.9680    3.5780 C.2    32  THR32       0.2643
     16  O          0.2960   11.7090    4.7830 O.2    32  THR32      -0.2714
     17  CB         0.0520   10.2280    1.7150 C.3    32  THR32       0.1808
     18  OG1       -0.4610   11.1220    0.7240 O.3    32  THR32      -0.2208
     19  CG2       -1.0850    9.5860    2.5050 C.3    32  THR32       0.0379
     20  N         -0.0260   13.0930    3.0110 N.am   33  GLY33      -0.1939
     21  CA        -0.7170   14.1690    3.7090 C.3    33  GLY33       0.2014
     22  C         -1.6750   14.8850    2.7810 C.2    33  GLY33       0.2640
     23  O         -1.8360   14.4870    1.6260 O.2    33  GLY33      -0.2714
     24  N         -2.3020   15.9650    3.2700 N.am   34  SER34      -0.1935
     25  CA        -3.2760   16.7450    2.4960 C.3    34  SER34       0.2055
     26  C         -2.6710   17.5900    1.3700 C.2    34  SER34       0.2643
     27  O         -3.3690   17.8630    0.3860 O.2    34  SER34      -0.2714
     28  CB        -4.1380   17.6100    3.4180 C.3    34  SER34       0.2130
     29  OG        -3.3740   18.3000    4.3930 O.3    34  SER34      -0.2179
     30  N         -1.3960   18.0130    1.4950 N.am   35  PHE35      -0.1959
     31  CA        -0.7520   18.8300    0.4460 C.3    35  PHE35       0.1774
     32  C          0.5250   18.1930   -0.1240 C.2    35  PHE35       0.2659
     33  O          1.2830   18.8620   -0.8370 O.2    35  PHE35      -0.2711
     34  CB        -0.5000   20.2870    0.8910 C.3    35  PHE35       0.0574
     35  CG         0.1490   20.4520    2.2460 C.ar   35  PHE35      -0.0200
     36  CD1       -0.6240   20.5570    3.3980 C.ar   35  PHE35      -0.0042
     37  CD2        1.5360   20.5020    2.3720 C.ar   35  PHE35      -0.0042
     38  CE1       -0.0200   20.6840    4.6560 C.ar   35  PHE35      -0.0003
     39  CE2        2.1360   20.6670    3.6260 C.ar   35  PHE35      -0.0003
     40  CZ         1.3540   20.7660    4.7560 C.ar   35  PHE35      -0.0000
     41  N          0.7170   16.9000    0.1300 N.am   36  GLY36      -0.1716
     42  CA         1.8680   16.1990   -0.4210 C.2    36  GLY36       0.1480
     43  C          2.1320   14.8070    0.1010 C.2    36  GLY36       0.2820
     44  O          1.3240   14.2280    0.8340 O.2    36  GLY36      -0.2669
     45  N          3.2930   14.2630   -0.2790 N.am   37  ARG37      -0.1929
     46  CA         3.7070   12.9260    0.1410 C.3    37  ARG37       0.1732
     47  C          5.2220   12.8890    0.3880 C.2    37  ARG37       0.2616
     48  O          5.9400   13.7740   -0.0710 O.2    37  ARG37      -0.2715
     49  CB         3.2720   11.8520   -0.8960 C.3    37  ARG37       0.0348
     50  CG         4.1490   11.7750   -2.1420 C.3    37  ARG37       0.0492
     51  CD         3.5250   10.9140   -3.2230 C.3    37  ARG37       0.2205
     52  NE         3.2470   11.7060   -4.4230 N.pl3  37  ARG37      -0.0865
     53  CZ         3.2110   11.2170   -5.6580 C.cat  37  ARG37       0.5346
     54  NH1        3.4270    9.9250   -5.8770 N.pl3  37  ARG37       0.1354
     55  NH2        2.9600   12.0180   -6.6860 N.pl3  37  ARG37       0.1354
     56  N          5.6760   11.8770    1.1320 N.am   38  VAL38      -0.1977
     57  CA         7.0800   11.6420    1.4340 C.3    38  VAL38       0.1596
     58  C          7.4790   10.3420    0.7250 C.2    38  VAL38       0.2287
     59  O          6.8170    9.3170    0.9050 O.2    38  VAL38      -0.2864
     60  CB         7.3760   11.6150    2.9530 C.3    38  VAL38       0.0276
     61  CG1        8.8330   11.2460    3.2260 C.3    38  VAL38       0.0022
     62  CG2        7.0330   12.9540    3.6010 C.3    38  VAL38       0.0022
     63  N         14.9170   10.7700    2.0990 N.3    51  ALA51      -0.1245
     64  CA        13.4630   10.9430    2.1300 C.3    51  ALA51       0.1562
     65  C         13.2190   12.2720    1.3850 C.2    51  ALA51       0.2260
     66  O         13.8920   13.2850    1.6460 O.2    51  ALA51      -0.2867
     67  CB        12.9380   11.0460    3.5560 C.3    51  ALA51       0.0290
     68  N         10.2640   15.0040    0.4320 N.3    53  LYS53      -0.1231
     69  CA         8.9290   15.5310    0.6860 C.3    53  LYS53       0.1693
     70  C          8.5420   16.2680   -0.5800 C.2    53  LYS53       0.2592
     71  O          9.2780   17.1590   -1.0150 O.2    53  LYS53      -0.2718
     72  CB         8.9410   16.5320    1.8700 C.3    53  LYS53       0.0285
     73  CG         8.9400   15.9210    3.2500 C.3    53  LYS53       0.0035
     74  CD         8.4060   16.9230    4.2900 C.3    53  LYS53       0.0206
     75  CE         8.6290   16.4510    5.7150 C.3    53  LYS53       0.1093
     76  NZ         8.6310   17.5790    6.6880 N.3    53  LYS53      -0.1314
     77  N          7.4010   15.8910   -1.1880 N.am   54  ILE54      -0.1966
     78  CA         6.9080   16.5250   -2.4210 C.3    54  ILE54       0.1727
     79  C          5.6500   17.2920   -2.0400 C.2    54  ILE54       0.2616
     80  O          4.7040   16.6830   -1.5600 O.2    54  ILE54      -0.2715
     81  CB         6.6310   15.4920   -3.5680 C.3    54  ILE54       0.0290
     82  CG1        7.8820   14.6330   -3.8830 C.3    54  ILE54       0.0022
     83  CG2        6.1550   16.2170   -4.8260 C.3    54  ILE54       0.0023
     84  CD1        7.5820   13.2790   -4.5470 C.3    54  ILE54       0.0001
     85  N          5.6620   18.6150   -2.1950 N.am   55  LEU55      -0.1977
     86  CA         4.5170   19.4280   -1.8070 C.3    55  LEU55       0.1596
     87  C          3.8640   20.0790   -3.0080 C.2    55  LEU55       0.2287
     88  O          4.5170   20.7930   -3.7660 O.2    55  LEU55      -0.2864
     89  CB         4.9040   20.4640   -0.7280 C.3    55  LEU55       0.0297
     90  CG         5.6960   19.9590    0.5080 C.3    55  LEU55       0.0022
     91  CD1        5.9070   21.0780    1.4970 C.3    55  LEU55       0.0001
     92  CD2        4.9590   18.8340    1.2410 C.3    55  LEU55       0.0001
     93  N         15.7260   15.1680    2.4180 N.3   101  MET101     -0.1230
     94  CA        16.3860   15.0800    3.7090 C.3   101  MET101      0.1702
     95  C         16.8690   13.6850    4.0150 C.2   101  MET101      0.2592
     96  O         16.5170   12.7400    3.3090 O.2   101  MET101     -0.2718
     97  CB        15.4540   15.6100    4.8270 C.3   101  MET101      0.0401
     98  CG        14.2470   14.7340    5.1010 C.3   101  MET101      0.0596
     99  SD        12.8980   15.5810    5.9950 S.3   101  MET101     -0.1393
    100  CE        12.6480   17.0190    4.9140 C.3   101  MET101      0.0692
    101  N         17.6180   13.5510    5.1200 N.am  102  GLU102     -0.1966
    102  CA        18.1370   12.2830    5.5740 C.3   102  GLU102      0.1733
    103  C         16.9990   11.2910    5.7800 C.2   102  GLU102      0.2616
    104  O         15.9550   11.6320    6.3420 O.2   102  GLU102     -0.2715
    105  CB        18.9830   12.4460    6.8600 C.3   102  GLU102      0.0429
    106  CG        19.6710   11.1500    7.2980 C.3   102  GLU102      0.1163
    107  CD        20.6820   11.2590    8.4300 C.2   102  GLU102      0.3649
    108  OE1       20.6660   10.3930    9.3360 O.co2 102  GLU102     -0.2457
    109  OE2       21.4940   12.2100    8.4120 O.co2 102  GLU102     -0.2457
    110  N         17.2030   10.0770    5.2960 N.am  103  TYR103     -0.1960
    111  CA        16.2590    9.0040    5.4730 C.3   103  TYR103      0.1771
    112  C         16.4740    8.4110    6.8690 C.2   103  TYR103      0.2619
    113  O         17.5860    8.0210    7.2130 O.2   103  TYR103     -0.2715
    114  CB        16.4320    7.9380    4.3750 C.3   103  TYR103      0.0574
    115  CG        15.5650    6.7160    4.5900 C.ar  103  TYR103     -0.0198
    116  CD1       14.1960    6.8400    4.8260 C.ar  103  TYR103     -0.0009
    117  CD2       16.1080    5.4360    4.5490 C.ar  103  TYR103     -0.0009
    118  CE1       13.3930    5.7190    5.0320 C.ar  103  TYR103      0.0417
    119  CE2       15.3110    4.3080    4.7300 C.ar  103  TYR103      0.0417
    120  CZ        13.9520    4.4540    4.9770 C.ar  103  TYR103      0.1957
    121  OH        13.1620    3.3490    5.2010 O.3   103  TYR103     -0.2866
    122  N         15.4140    8.3820    7.6840 N.am  104  VAL104     -0.1977
    123  CA        15.4680    7.8690    9.0520 C.3   104  VAL104      0.1596
    124  C         14.6220    6.6010    9.0420 C.2   104  VAL104      0.2287
    125  O         13.3920    6.6730    9.0770 O.2   104  VAL104     -0.2864
    126  CB        15.0110    8.9040   10.1170 C.3   104  VAL104      0.0276
    127  CG1       15.5160    8.5120   11.4960 C.3   104  VAL104      0.0022
    128  CG2       15.4690   10.3190    9.7640 C.3   104  VAL104      0.0022
    129  N          8.8070    6.1820   13.6400 N.3   108  GLU108     -0.1196
    130  CA         8.4460    7.0550   14.7610 C.3   108  GLU108      0.1783
    131  C          8.6460    6.3870   16.1130 C.2   108  GLU108      0.2306
    132  O          8.4030    5.1860   16.2610 O.2   108  GLU108     -0.2863
    133  CB         6.9650    7.4830   14.6330 C.2   108  GLU108      0.0071
    134  CG         6.6370    8.3370   13.4120 C.2   108  GLU108      0.0834
    135  CD         5.1630    8.6490   13.1940 C.2   108  GLU108      0.3877
    136  OE1        4.3380    8.3350   14.0830 O.co2 108  GLU108     -0.2406
    137  OE2        4.8450    9.2830   12.1620 O.co2 108  GLU108     -0.2406
    138  N         11.6240   10.6990   15.0750 N.3   154  LEU154     -0.1245
    139  CA        12.0990    9.5010   14.3620 C.3   154  LEU154      0.1561
    140  C         13.3050    8.8840   15.0680 C.2   154  LEU154      0.2260
    141  O         14.0740    9.6080   15.6990 O.2   154  LEU154     -0.2867
    142  CB        12.3940    9.8150   12.8910 C.3   154  LEU154      0.0270
    143  CG        11.2540   10.4470   12.0690 C.3   154  LEU154      0.0019
    144  CD1       11.6320   10.5190   10.6090 C.3   154  LEU154      0.0001
    145  CD2        9.9650    9.6340   12.1780 C.3   154  LEU154      0.0001
    146  N         12.0910   15.9440   12.1520 N.3   164  THR164     -0.1203
    147  CA        12.0320   16.3120   10.7380 C.3   164  THR164      0.1994
    148  C         11.0680   17.4660   10.4170 C.2   164  THR164      0.2617
    149  O         11.2670   18.1690    9.4210 O.2   164  THR164     -0.2717
    150  CB        11.6930   15.0930    9.8520 C.3   164  THR164      0.1784
    151  OG1       10.3600   14.6600   10.1480 O.3   164  THR164     -0.2211
    152  CG2       12.7060   13.9320    9.9900 C.3   164  THR164      0.0376
    153  N         10.0040   17.6180   11.2250 N.am  165  ASP165     -0.1973
    154  CA         8.9360   18.5830   10.9660 C.3   165  ASP165      0.1709
    155  C          8.9750   19.8270   11.8410 C.2   165  ASP165      0.2293
    156  O          9.1420   19.7190   13.0380 O.2   165  ASP165     -0.2864
    157  CB         7.5700   17.9000   11.0970 C.3   165  ASP165      0.1436
    158  CG         7.2730   16.8750   10.0100 C.2   165  ASP165      0.3671
    159  OD1        8.2320   16.3910    9.3590 O.co2 165  ASP165     -0.2456
    160  OD2        6.0990   16.5150    9.8520 O.co2 165  ASP165     -0.2456
@<TRIPOS>BOND
     1    55    53    1
     2    54    53    1
     3    53    52    2
     4    83    81    1
     5    84    82    1
     6    52    51    1
     7    82    81    1
     8    88    87    2
     9    81    78    1
    10    51    50    1
    11    87    86    1
    12    78    79    1
    13    78    77    1
    14    85    79   am
    15    85    86    1
    16    50    49    1
    17    79    80    2
    18    86    89    1
    19    77    70   am
    20    71    70    2
    21    49    46    1
    22    33    32    2
    23    89    90    1
    24    70    69    1
    25    42    43    1
    26    42    41    2
    27    45    43   am
    28    45    46    1
    29    32    41    1
    30    32    31    1
    31    48    47    2
    32    43    44    2
    33    46    47    1
    34    27    26    2
    35    47    56   am
    36    68    69    1
    37    31    34    1
    38    31    30    1
    39    90    92    1
    40    90    91    1
    41    69    72    1
    42    18    17    1
    43    58    59    2
    44    58    57    1
    45    34    35    1
    46    56    57    1
    47    26    30   am
    48    26    25    1
    49    65    66    2
    50    65    64    1
    51    57    60    1
    52     1     2    1
    53    23    22    2
    54    17    19    1
    55    17    14    1
    56    12    11    2
    57    72    73    1
    58    63    64    1
    59    64    67    1
    60    35    37   ar
    61    35    36   ar
    62    37    39   ar
    63    93    94    1
    64    25    24    1
    65    25    28    1
    66    14    13    1
    67    14    15    1
    68    22    24   am
    69    22    21    1
    70     6     8    1
    71     6     7    1
    72     6     5    1
    73    11    13   am
    74    11    10    1
    75    60    61    1
    76    60    62    1
    77    20    15   am
    78    20    21    1
    79     2     5    1
    80     2     3    1
    81     9    10    1
    82     9     3   am
    83    73    74    1
    84    96    95    2
    85    36    38   ar
    86    28    29    1
    87    15    16    2
    88    39    40   ar
    89    94    95    1
    90    94    97    1
    91     3     4    2
    92    95   101   am
    93    74    75    1
    94   114   115    1
    95   114   111    1
    96   117   115   ar
    97   117   119   ar
    98   115   116   ar
    99    38    40   ar
   100   119   120   ar
   101   116   118   ar
   102    97    98    1
   103   100    99    1
   104   120   118   ar
   105   120   121    1
   106    98    99    1
   107   101   102    1
   108   110   111    1
   109   110   103   am
   110   111   112    1
   111   102   103    1
   112   102   105    1
   113    75    76    1
   114   103   104    2
   115   105   106    1
   116   112   113    2
   117   112   122   am
   118   106   107    1
   119   122   123    1
   120   109   107   ar
   121   107   108   ar
   122   124   123    1
   123   124   125    2
   124   123   126    1
   125   159   158   ar
   126   149   148    2
   127   128   126    1
   128   160   158   ar
   129   150   152    1
   130   150   151    1
   131   150   147    1
   132   158   157    1
   133   126   127    1
   134   148   147    1
   135   148   153   am
   136   144   143    1
   137   147   146    1
   138   154   157    1
   139   154   153    1
   140   154   155    1
   141   155   156    2
   142   143   145    1
   143   143   142    1
   144   137   135   ar
   145   142   139    1
   146   135   134    1
   147   135   136   ar
   148   134   133    2
   149   129   130    1
   150   139   140    1
   151   139   138    1
   152   133   130    1
   153   130   131    1
   154   140   141    2
   155   131   132    2
