@<TRIPOS>MOLECULE
tmp/5vibA00.pdb
 205 197 0 0 0
SMALL
GASTEIGER

@<TRIPOS>ATOM
      1  N          5.7300    6.5390    3.2630 N.3    32  LEU32      -0.1231
      2  CA         6.1650    6.3140    4.6470 C.3    32  LEU32       0.1693
      3  C          5.1900    6.9090    5.6400 C.2    32  LEU32       0.2593
      4  O          5.0630    6.4060    6.7650 O.2    32  LEU32      -0.2718
      5  CB         7.5440    6.9450    4.9040 C.3    32  LEU32       0.0284
      6  CG         8.7140    6.5400    4.0200 C.3    32  LEU32       0.0019
      7  CD1        9.8580    7.5420    4.1780 C.3    32  LEU32       0.0001
      8  CD2        9.1870    5.1120    4.3390 C.3    32  LEU32       0.0001
      9  N          4.5450    7.9900    5.2260 N.am   33  GLY33      -0.1942
     10  CA         3.5900    8.7340    6.0370 C.3    33  GLY33       0.2014
     11  C          2.7110    9.6370    5.1980 C.2    33  GLY33       0.2640
     12  O          2.9430    9.8120    3.9940 O.2    33  GLY33      -0.2714
     13  N          1.6950   10.2220    5.8400 N.am   34  THR34      -0.1936
     14  CA         0.7180   11.0800    5.1820 C.3    34  THR34       0.2028
     15  C          0.3200   12.2640    6.0710 C.2    34  THR34       0.2643
     16  O          0.2040   12.1250    7.2930 O.2    34  THR34      -0.2714
     17  CB        -0.4700   10.2260    4.6700 C.3    34  THR34       0.1808
     18  OG1       -1.1280   10.9200    3.6160 O.3    34  THR34      -0.2208
     19  CG2       -1.4570    9.8090    5.7800 C.3    34  THR34       0.0379
     20  N          0.1340   13.4140    5.4290 N.am   35  GLY35      -0.1939
     21  CA        -0.2490   14.6690    6.0640 C.3    35  GLY35       0.2014
     22  C         -1.3780   15.3850    5.3470 C.2    35  GLY35       0.2640
     23  O         -1.9500   14.8620    4.3840 O.2    35  GLY35      -0.2714
     24  N         -1.6840   16.6080    5.8120 N.am   36  SER36      -0.1935
     25  CA        -2.7520   17.4820    5.3130 C.3    36  SER36       0.2055
     26  C         -2.5850   17.8910    3.8490 C.2    36  SER36       0.2643
     27  O         -3.5750   17.9210    3.1040 O.2    36  SER36      -0.2714
     28  CB        -2.8530   18.7430    6.1730 C.3    36  SER36       0.2130
     29  OG        -2.4170   18.5530    7.5120 O.3    36  SER36      -0.2179
     30  N         -1.3390   18.2190    3.4380 N.am   37  PHE37      -0.1959
     31  CA        -1.0690   18.7180    2.0910 C.3    37  PHE37       0.1774
     32  C         -0.3510   17.7440    1.1850 C.2    37  PHE37       0.2659
     33  O         -0.0990   18.0740    0.0290 O.2    37  PHE37      -0.2711
     34  CB        -0.3150   20.0540    2.1590 C.3    37  PHE37       0.0574
     35  CG        -0.8160   20.9720    3.2490 C.ar   37  PHE37      -0.0200
     36  CD1       -2.1210   21.4580    3.2290 C.ar   37  PHE37      -0.0042
     37  CD2        0.0050   21.3280    4.3130 C.ar   37  PHE37      -0.0042
     38  CE1       -2.5980   22.2640    4.2630 C.ar   37  PHE37      -0.0003
     39  CE2       -0.4750   22.1370    5.3460 C.ar   37  PHE37      -0.0003
     40  CZ        -1.7750   22.5930    5.3150 C.ar   37  PHE37      -0.0000
     41  N         -0.0530   16.5510    1.6890 N.am   38  GLY38      -0.1716
     42  CA         0.6140   15.5340    0.8920 C.2    38  GLY38       0.1480
     43  C          1.1360   14.3460    1.6660 C.2    38  GLY38       0.2820
     44  O          0.5970   13.9840    2.7170 O.2    38  GLY38      -0.2669
     45  N          2.1920   13.7190    1.1150 N.am   39  ARG39      -0.1929
     46  CA         2.8210   12.5490    1.7100 C.3    39  ARG39       0.1732
     47  C          4.3390   12.6520    1.8220 C.2    39  ARG39       0.2616
     48  O          4.9660   13.5340    1.2300 O.2    39  ARG39      -0.2715
     49  CB         2.4030   11.2610    0.9680 C.3    39  ARG39       0.0348
     50  CG         2.7610   11.2210   -0.5070 C.3    39  ARG39       0.0492
     51  CD         1.5220   11.0130   -1.3360 C.3    39  ARG39       0.2205
     52  NE         1.6180    9.8080   -2.1620 N.pl3  39  ARG39      -0.0865
     53  CZ         1.0140    8.6550   -1.8850 C.cat  39  ARG39       0.5346
     54  NH1        0.2650    8.5350   -0.7930 N.pl3  39  ARG39       0.1354
     55  NH2        1.1560    7.6130   -2.6960 N.pl3  39  ARG39       0.1354
     56  N          4.9150   11.7250    2.5880 N.am   40  VAL40      -0.1977
     57  CA         6.3530   11.5410    2.7680 C.3    40  VAL40       0.1596
     58  C          6.6500   10.1810    2.1430 C.2    40  VAL40       0.2287
     59  O          5.9790    9.2010    2.4730 O.2    40  VAL40      -0.2864
     60  CB         6.8140   11.6440    4.2430 C.3    40  VAL40       0.0276
     61  CG1        8.3090   11.3600    4.3640 C.3    40  VAL40       0.0022
     62  CG2        6.4780   13.0160    4.8190 C.3    40  VAL40       0.0022
     63  N         14.0680   10.6890    2.5050 N.3    53  ALA53      -0.1245
     64  CA        12.6420   10.8370    2.7880 C.3    53  ALA53       0.1562
     65  C         12.1800   12.0790    2.0610 C.2    53  ALA53       0.2260
     66  O         12.6940   13.1780    2.3140 O.2    53  ALA53      -0.2867
     67  CB        12.3850   10.9600    4.2850 C.3    53  ALA53       0.0290
     68  N          9.2930   14.6850    1.2830 N.3    55  LYS55      -0.1231
     69  CA         8.0410   15.2930    1.6970 C.3    55  LYS55       0.1693
     70  C          7.5150   16.0680    0.4680 C.2    55  LYS55       0.2592
     71  O          8.2150   16.9170   -0.0720 O.2    55  LYS55      -0.2718
     72  CB         8.2640   16.1910    2.9140 C.3    55  LYS55       0.0285
     73  CG         6.9980   16.7150    3.5880 C.3    55  LYS55       0.0035
     74  CD         7.1880   16.8010    5.0950 C.3    55  LYS55       0.0206
     75  CE         6.1960   17.7100    5.7770 C.3    55  LYS55       0.1093
     76  NZ         6.4210   17.7390    7.2490 N.3    55  LYS55      -0.1314
     77  N          6.3320   15.6740   -0.0340 N.am   56  ILE56      -0.1966
     78  CA         5.6570   16.2670   -1.1990 C.3    56  ILE56       0.1727
     79  C          4.4640   17.0450   -0.6630 C.2    56  ILE56       0.2616
     80  O          3.6480   16.4800    0.0710 O.2    56  ILE56      -0.2715
     81  CB         5.1640   15.1820   -2.1940 C.3    56  ILE56       0.0290
     82  CG1        6.2740   14.1800   -2.5530 C.3    56  ILE56       0.0022
     83  CG2        4.5150   15.8170   -3.4490 C.3    56  ILE56       0.0023
     84  CD1        5.7810   12.7440   -2.6470 C.3    56  ILE56       0.0001
     85  N          4.3600   18.3250   -1.0330 N.am   57  LEU57      -0.1977
     86  CA         3.2710   19.1880   -0.5970 C.3    57  LEU57       0.1596
     87  C          2.5660   19.7850   -1.7960 C.2    57  LEU57       0.2287
     88  O          3.2230   20.2890   -2.7090 O.2    57  LEU57      -0.2864
     89  CB         3.7720   20.2940    0.3370 C.3    57  LEU57       0.0297
     90  CG         4.1380   19.8560    1.7450 C.3    57  LEU57       0.0022
     91  CD1        5.6180   19.6850    1.8720 C.3    57  LEU57       0.0001
     92  CD2        3.7120   20.8930    2.7560 C.3    57  LEU57       0.0001
     93  N         14.9030   14.9590    2.7620 N.3   103  MET103     -0.1230
     94  CA        15.6780   14.8390    4.0080 C.3   103  MET103      0.1702
     95  C         16.3680   13.5060    4.0520 C.2   103  MET103      0.2592
     96  O         15.9460   12.5790    3.3620 O.2   103  MET103     -0.2718
     97  CB        14.7570   14.8390    5.2320 C.3   103  MET103      0.0401
     98  CG        13.9340   16.0390    5.3870 C.3   103  MET103      0.0596
     99  SD        12.5120   15.6010    6.4080 S.3   103  MET103     -0.1393
    100  CE        11.3160   16.6340    5.6250 C.3   103  MET103      0.0692
    101  N         17.3160   13.3690    4.9940 N.am  104  GLU104     -0.1966
    102  CA        18.0140   12.1260    5.3160 C.3   104  GLU104      0.1733
    103  C         16.9220   11.1520    5.7580 C.2   104  GLU104      0.2616
    104  O         16.0130   11.5450    6.4980 O.2   104  GLU104     -0.2715
    105  CB        18.9680   12.3820    6.5100 C.3   104  GLU104      0.0429
    106  CG        19.9320   11.2450    6.8320 C.3   104  GLU104      0.1163
    107  CD        21.0300   11.6390    7.8050 C.2   104  GLU104      0.3649
    108  OE1       20.9540   11.2170    8.9830 O.co2 104  GLU104     -0.2457
    109  OE2       21.9250   12.4270    7.4120 O.co2 104  GLU104     -0.2457
    110  N         16.9790    9.9230    5.2770 N.am  105  TYR105     -0.1960
    111  CA        16.0000    8.9090    5.6340 C.3   105  TYR105      0.1771
    112  C         16.3550    8.3180    6.9990 C.2   105  TYR105      0.2619
    113  O         17.5140    7.9970    7.2600 O.2   105  TYR105     -0.2715
    114  CB        15.8900    7.8480    4.5260 C.3   105  TYR105      0.0574
    115  CG        15.0300    6.6510    4.8680 C.ar  105  TYR105     -0.0198
    116  CD1       13.7040    6.8070    5.2590 C.ar  105  TYR105     -0.0009
    117  CD2       15.5320    5.3550    4.7650 C.ar  105  TYR105     -0.0009
    118  CE1       12.9190    5.7110    5.6120 C.ar  105  TYR105      0.0417
    119  CE2       14.7490    4.2500    5.1010 C.ar  105  TYR105      0.0417
    120  CZ        13.4380    4.4330    5.5130 C.ar  105  TYR105      0.1957
    121  OH        12.6430    3.3540    5.8160 O.3   105  TYR105     -0.2866
    122  N         15.3590    8.2350    7.8880 N.am  106  VAL106     -0.1977
    123  CA        15.5070    7.6910    9.2450 C.3   106  VAL106      0.1596
    124  C         14.6910    6.3810    9.2790 C.2   106  VAL106      0.2287
    125  O         13.4820    6.4070    9.4750 O.2   106  VAL106     -0.2864
    126  CB        15.0910    8.7240   10.3310 C.3   106  VAL106      0.0276
    127  CG1       15.5220    8.2710   11.7130 C.3   106  VAL106      0.0022
    128  CG2       15.6690   10.1030   10.0300 C.3   106  VAL106      0.0022
    129  N          9.0120    6.0220   13.8140 N.3   110  GLU110     -0.1245
    130  CA         8.5480    6.9000   14.8820 C.3   110  GLU110      0.1567
    131  C          8.6640    6.2780   16.2590 C.2   110  GLU110      0.2260
    132  O          8.2560    5.1300   16.4330 O.2   110  GLU110     -0.2867
    133  CB         7.0730    7.2340   14.6520 C.3   110  GLU110      0.0388
    134  CG         6.8380    8.2670   13.5650 C.3   110  GLU110      0.1160
    135  CD         5.3770    8.4750   13.2270 C.2   110  GLU110      0.3649
    136  OE1        4.5250    7.8770   13.9210 O.co2 110  GLU110     -0.2457
    137  OE2        5.0810    9.2440   12.2840 O.co2 110  GLU110     -0.2457
    138  N          5.2640   21.4230   18.7940 N.3   149  ASP149     -0.1239
    139  CA         4.5940   20.1940   18.3490 C.3   149  ASP149      0.1674
    140  C          5.2970   18.9370   18.8260 C.2   149  ASP149      0.2266
    141  O          5.2790   17.9300   18.1320 O.2   149  ASP149     -0.2867
    142  CB         4.3060   20.1400   16.8150 C.3   149  ASP149      0.1410
    143  CG         3.0970   19.2490   16.4830 C.2   149  ASP149      0.3668
    144  OD1        2.2430   19.0410   17.3750 O.co2 149  ASP149     -0.2456
    145  OD2        3.0080   18.7680   15.3390 O.co2 149  ASP149     -0.2456
    146  N          5.8120   15.5000   20.4270 N.3   151  LYS151     -0.1245
    147  CA         5.0070   14.2750   20.6450 C.3   151  LYS151      0.1561
    148  C          5.8080   13.1090   20.0820 C.2   151  LYS151      0.2260
    149  O          6.6760   13.3780   19.2360 O.2   151  LYS151     -0.2867
    150  CB         3.5760   14.3260   20.0350 C.3   151  LYS151      0.0271
    151  CG         3.5170   14.7010   18.5590 C.3   151  LYS151      0.0035
    152  CD         2.1050   14.7360   18.0220 C.3   151  LYS151      0.0206
    153  CE         2.1700   15.2630   16.6060 C.3   151  LYS151      0.1093
    154  NZ         0.8370   15.6490   16.0760 N.3   151  LYS151     -0.1314
    155  N          5.0780   10.9890   17.9050 N.3   153  GLU153     -0.1231
    156  CA         4.8280   10.8740   16.4650 C.3   153  GLU153      0.1699
    157  C          5.7960   11.6960   15.6100 C.2   153  GLU153      0.2592
    158  O          5.9240   11.4010   14.4250 O.2   153  GLU153     -0.2718
    159  CB         3.3970   11.2920   16.1080 C.3   153  GLU153      0.0402
    160  CG         2.3200   10.4010   16.6690 C.3   153  GLU153      0.1161
    161  CD         1.7560   10.8910   17.9890 C.2   153  GLU153      0.3649
    162  OE1        2.5330   11.2140   18.9120 O.co2 153  GLU153     -0.2457
    163  OE2        0.5160   10.9300   18.1050 O.co2 153  GLU153     -0.2457
    164  N          6.4260   12.7460   16.1910 N.am  154  ASN154     -0.1974
    165  CA         7.3690   13.6480   15.4920 C.3   154  ASN154      0.1688
    166  C          8.8360   13.3300   15.8050 C.2   154  ASN154      0.2292
    167  O          9.7370   14.0900   15.4580 O.2   154  ASN154     -0.2864
    168  CB         7.0480   15.1150   15.8870 C.3   154  ASN154      0.1181
    169  CG         5.7920   15.6450   15.2120 C.2   154  ASN154      0.2629
    170  OD1        5.1840   14.9740   14.3630 O.2   154  ASN154     -0.2716
    171  ND2        5.4120   16.8820   15.5120 N.am  154  ASN154     -0.0877
    172  N         11.6900   10.5570   15.3150 N.3   156  LEU156     -0.1245
    173  CA        12.1300    9.3500   14.6290 C.3   156  LEU156      0.1561
    174  C         13.3810    8.8350   15.2720 C.2   156  LEU156      0.2260
    175  O         14.1410    9.6260   15.8090 O.2   156  LEU156     -0.2867
    176  CB        12.3480    9.6530   13.1470 C.3   156  LEU156      0.0270
    177  CG        11.1650    9.3920   12.2120 C.3   156  LEU156      0.0019
    178  CD1        9.8960   10.0740   12.6780 C.3   156  LEU156      0.0001
    179  CD2       11.4750    9.8820   10.8490 C.3   156  LEU156      0.0001
    180  N         11.6070   15.7090   12.9090 N.3   166  THR166     -0.1203
    181  CA        11.3420   15.9450   11.4730 C.3   166  THR166      0.1994
    182  C         10.3670   17.1040   11.1340 C.2   166  THR166      0.2617
    183  O         10.5280   17.7400   10.0900 O.2   166  THR166     -0.2717
    184  CB        10.8400   14.6390   10.8170 C.3   166  THR166      0.1784
    185  OG1        9.8690   14.0110   11.6740 O.3   166  THR166     -0.2211
    186  CG2       11.9650   13.6580   10.5610 C.3   166  THR166      0.0376
    187  N          9.3400   17.3410   11.9690 N.am  167  ASP167     -0.1973
    188  CA         8.2910   18.3100   11.6440 C.3   167  ASP167      0.1709
    189  C          8.4320   19.6840   12.2640 C.2   167  ASP167      0.2293
    190  O          8.3500   19.8140   13.4830 O.2   167  ASP167     -0.2864
    191  CB         6.9290   17.7160   12.0200 C.3   167  ASP167      0.1436
    192  CG         5.7850   18.1680   11.1610 C.2   167  ASP167      0.3671
    193  OD1        5.5850   19.3940   11.0360 O.co2 167  ASP167     -0.2456
    194  OD2        5.0520   17.3030   10.6680 O.co2 167  ASP167     -0.2456
    195  N          7.6210    1.4640    9.4400 N.3   300  PHE300     -0.1241
    196  CA         6.5910    2.3980    8.9950 C.3   300  PHE300      0.1605
    197  C          5.3650    1.6190    8.5450 C.2   300  PHE300      0.2264
    198  O          5.5010    0.5260    8.0050 O.2   300  PHE300     -0.2867
    199  CB         7.1160    3.2600    7.8220 C.3   300  PHE300      0.0534
    200  CG         8.2000    4.2300    8.2290 C.ar  300  PHE300     -0.0203
    201  CD1        7.8800    5.4530    8.8140 C.ar  300  PHE300     -0.0042
    202  CD2        9.5430    3.9080    8.0620 C.ar  300  PHE300     -0.0042
    203  CE1        8.8840    6.3380    9.2120 C.ar  300  PHE300     -0.0003
    204  CE2       10.5470    4.8070    8.4440 C.ar  300  PHE300     -0.0003
    205  CZ        10.2070    6.0120    9.0160 C.ar  300  PHE300     -0.0000
@<TRIPOS>BOND
     1    83    81    1
     2    88    87    2
     3    55    53    1
     4    84    82    1
     5    82    81    1
     6    81    78    1
     7    52    53    2
     8    52    51    1
     9    53    54    1
    10    87    86    1
    11    51    50    1
    12    78    79    1
    13    78    77    1
    14    85    79   am
    15    85    86    1
    16    79    80    2
    17    86    89    1
    18    50    49    1
    19    71    70    2
    20    77    70   am
    21    33    32    2
    22    89    90    1
    23    70    69    1
    24    42    43    1
    25    42    41    2
    26    49    46    1
    27    45    43   am
    28    45    46    1
    29    32    41    1
    30    32    31    1
    31    48    47    2
    32    68    69    1
    33    43    44    2
    34    69    72    1
    35    46    47    1
    36    90    91    1
    37    90    92    1
    38    47    56   am
    39    65    66    2
    40    65    64    1
    41    31    34    1
    42    31    30    1
    43    58    59    2
    44    58    57    1
    45    34    35    1
    46    63    64    1
    47    56    57    1
    48    93    94    1
    49    57    60    1
    50    64    67    1
    51    72    73    1
    52    27    26    2
    53    36    35   ar
    54    36    38   ar
    55    35    37   ar
    56     1     2    1
    57    96    95    2
    58    30    26   am
    59    73    74    1
    60    18    17    1
    61    26    25    1
    62    12    11    2
    63    94    95    1
    64    94    97    1
    65     6     7    1
    66     6     8    1
    67     6     5    1
    68    95   101   am
    69    60    61    1
    70    60    62    1
    71    38    40   ar
    72    37    39   ar
    73    23    22    2
    74   114   115    1
    75   114   111    1
    76     2     5    1
    77     2     3    1
    78    17    14    1
    79    17    19    1
    80   117   115   ar
    81   117   119   ar
    82   115   116   ar
    83   101   102    1
    84    74    75    1
    85   119   120   ar
    86    14    13    1
    87    14    15    1
    88    11    13   am
    89    11    10    1
    90     9     3   am
    91     9    10    1
    92    97    98    1
    93   116   118   ar
    94   110   111    1
    95   110   103   am
    96    25    24    1
    97    25    28    1
    98    40    39   ar
    99   102   103    1
   100   102   105    1
   101    22    24   am
   102    22    21    1
   103    98    99    1
   104    20    21    1
   105    20    15   am
   106   120   118   ar
   107   120   121    1
   108   100    99    1
   109   111   112    1
   110     3     4    2
   111   103   104    2
   112    75    76    1
   113    15    16    2
   114    28    29    1
   115   105   106    1
   116   106   107    1
   117   112   113    2
   118   112   122   am
   119   109   107   ar
   120   107   108   ar
   121   199   200    1
   122   199   196    1
   123   122   123    1
   124   198   197    2
   125   202   200   ar
   126   202   204   ar
   127   200   201   ar
   128   204   205   ar
   129   197   196    1
   130   201   203   ar
   131   196   195    1
   132   205   203   ar
   133   123   124    1
   134   123   126    1
   135   124   125    2
   136   128   126    1
   137   183   182    2
   138   126   127    1
   139   186   184    1
   140   194   192   ar
   141   184   181    1
   142   184   185    1
   143   179   177    1
   144   193   192   ar
   145   182   181    1
   146   182   187   am
   147   192   191    1
   148   181   180    1
   149   188   187    1
   150   188   191    1
   151   188   189    1
   152   177   178    1
   153   177   176    1
   154   189   190    2
   155   137   135   ar
   156   176   173    1
   157   135   134    1
   158   135   136   ar
   159   134   133    1
   160   129   130    1
   161   170   169    2
   162   158   157    2
   163   173   174    1
   164   173   172    1
   165   133   130    1
   166   130   131    1
   167   169   171   am
   168   169   168    1
   169   174   175    2
   170   145   143   ar
   171   167   166    2
   172   165   166    1
   173   165   168    1
   174   165   164    1
   175   157   164   am
   176   157   156    1
   177   154   153    1
   178   159   156    1
   179   159   160    1
   180   131   132    2
   181   156   155    1
   182   143   142    1
   183   143   144   ar
   184   153   152    1
   185   160   161    1
   186   142   139    1
   187   161   163   ar
   188   161   162   ar
   189   152   151    1
   190   141   140    2
   191   139   138    1
   192   139   140    1
   193   151   150    1
   194   149   148    2
   195   150   147    1
   196   148   147    1
   197   146   147    1
