@<TRIPOS>MOLECULE
tmp/5vieA03.pdb
 139 135 0 0 0
SMALL
GASTEIGER

@<TRIPOS>ATOM
      1  N        -40.5720   35.2000  -18.1420 N.3   160  HIS160     -0.1241
      2  CA       -40.9180   34.3800  -19.2980 C.3   160  HIS160      0.1621
      3  C        -39.7090   33.7450  -19.9980 C.2   160  HIS160      0.2264
      4  O        -39.8420   32.8480  -20.8380 O.2   160  HIS160     -0.2867
      5  CB       -41.7030   35.2290  -20.2740 C.3   160  HIS160      0.0745
      6  CG       -42.2850   34.4620  -21.4110 C.ar  160  HIS160      0.0817
      7  ND1      -41.9710   34.7340  -22.7330 N.ar  160  HIS160     -0.2268
      8  CD2      -43.1840   33.4510  -21.4290 C.ar  160  HIS160      0.1154
      9  CE1      -42.6590   33.9220  -23.5140 C.ar  160  HIS160      0.1986
     10  NE2      -43.3920   33.1270  -22.7470 N.ar  160  HIS160     -0.2212
     11  N        -37.2890   30.0510  -17.5400 N.3   163  MET163     -0.1230
     12  CA       -37.2550   28.7020  -18.1020 C.3   163  MET163      0.1702
     13  C        -36.1370   28.3850  -19.1340 C.2   163  MET163      0.2592
     14  O        -35.8510   27.1930  -19.3610 O.2   163  MET163     -0.2718
     15  CB       -38.5840   28.4330  -18.7890 C.3   163  MET163      0.0401
     16  CG       -38.7830   29.2910  -20.0340 C.3   163  MET163      0.0596
     17  SD       -40.5080   29.6920  -20.2950 S.3   163  MET163     -0.1393
     18  CE       -40.9730   30.4770  -18.7400 C.3   163  MET163      0.0692
     19  N        -35.5560   29.4140  -19.7860 N.am  164  LEU164     -0.1980
     20  CA       -34.5340   29.2000  -20.8610 C.3   164  LEU164      0.1596
     21  C        -33.0730   29.1440  -20.4050 C.2   164  LEU164      0.2287
     22  O        -32.1850   28.8060  -21.1930 O.2   164  LEU164     -0.2864
     23  CB       -34.6740   30.1910  -22.0270 C.3   164  LEU164      0.0297
     24  CG       -35.9650   30.2680  -22.8430 C.3   164  LEU164      0.0022
     25  CD1      -35.7260   31.2680  -23.9450 C.3   164  LEU164      0.0001
     26  CD2      -36.3950   28.9490  -23.4560 C.3   164  LEU164      0.0001
     27  N        -54.6080   34.4890  -32.4580 N.3   220  HIS220     -0.1227
     28  CA       -53.5440   34.2020  -31.4630 C.3   220  HIS220      0.1737
     29  C        -53.6370   32.7310  -30.9710 C.2   220  HIS220      0.2438
     30  O        -54.7250   32.1450  -30.9760 O.2   220  HIS220     -0.2733
     31  CB       -53.5560   35.2460  -30.2970 C.3   220  HIS220      0.0758
     32  CG       -52.4320   35.0730  -29.3240 C.ar  220  HIS220      0.0818
     33  ND1      -52.4230   34.0760  -28.3600 N.ar  220  HIS220     -0.2268
     34  CD2      -51.2550   35.7350  -29.1970 C.ar  220  HIS220      0.1154
     35  CE1      -51.3000   34.1470  -27.6670 C.ar  220  HIS220      0.1986
     36  NE2      -50.5780   35.1480  -28.1520 N.ar  220  HIS220     -0.2212
     37  N        -52.5040   32.1090  -30.6300 N.am  221  PRO221     -0.2718
     38  CA       -52.6050   30.7200  -30.1750 C.3   221  PRO221      0.1535
     39  C        -53.5280   30.4730  -28.9670 C.2   221  PRO221      0.2599
     40  O        -54.1680   29.3970  -28.9200 O.2   221  PRO221     -0.2715
     41  CB       -51.1650   30.3350  -29.8190 C.3   221  PRO221      0.0310
     42  CG       -50.2790   31.4410  -30.3080 C.3   221  PRO221      0.0237
     43  CD       -51.1190   32.4720  -31.0180 C.3   221  PRO221      0.0939
     44  N        -53.6160   31.4150  -28.0080 N.am  222  THR222     -0.1951
     45  CA       -54.6240   31.2800  -26.9500 C.3   222  THR222      0.1897
     46  C        -56.0030   30.8830  -27.5790 C.2   222  THR222      0.2313
     47  O        -56.5980   29.8720  -27.2080 O.2   222  THR222     -0.2863
     48  CB       -54.7570   32.5600  -26.0620 C.3   222  THR222      0.1794
     49  OG1      -53.5250   32.8910  -25.4130 O.3   222  THR222     -0.2208
     50  CG2      -55.8080   32.3760  -24.9710 C.3   222  THR222      0.0378
     51  N        -56.5120   27.6500  -29.0670 N.3   225  LEU225     -0.1245
     52  CA       -56.5690   26.6660  -28.0050 C.3   225  LEU225      0.1561
     53  C        -57.9600   26.5390  -27.3600 C.2   225  LEU225      0.2260
     54  O        -58.5590   25.4320  -27.3870 O.2   225  LEU225     -0.2867
     55  CB       -55.5030   26.9800  -26.9360 C.3   225  LEU225      0.0270
     56  CG       -54.0420   26.5980  -27.2050 C.3   225  LEU225      0.0019
     57  CD1      -53.2970   26.5750  -25.8690 C.3   225  LEU225      0.0001
     58  CD2      -53.8460   25.2620  -27.9560 C.3   225  LEU225      0.0001
     59  N        -47.0290   37.9610  -20.1970 N.3   295  THR295     -0.1218
     60  CA       -46.9460   37.8530  -21.6540 C.3   295  THR295      0.1862
     61  C        -47.3910   39.1450  -22.2800 C.2   295  THR295      0.2287
     62  O        -48.0280   39.9660  -21.6030 O.2   295  THR295     -0.2866
     63  CB       -47.8210   36.7060  -22.2020 C.3   295  THR295      0.1770
     64  OG1      -49.1300   36.8050  -21.6350 O.3   295  THR295     -0.2211
     65  CG2      -47.2080   35.3180  -21.9010 C.3   295  THR295      0.0375
     66  N        -53.5290   28.4060  -18.3450 N.3   315  LEU315     -0.1231
     67  CA       -53.2220   28.0730  -19.7340 C.3   315  LEU315      0.1693
     68  C        -52.3090   28.9400  -20.6260 C.2   315  LEU315      0.2592
     69  O        -51.7040   28.4070  -21.5440 O.2   315  LEU315     -0.2718
     70  CB       -54.5050   27.7130  -20.5190 C.3   315  LEU315      0.0284
     71  CG       -54.2060   27.2450  -21.9600 C.3   315  LEU315      0.0019
     72  CD1      -53.7470   25.7770  -22.1110 C.3   315  LEU315      0.0001
     73  CD2      -55.4020   27.5760  -22.8300 C.3   315  LEU315      0.0001
     74  N        -52.2370   30.2460  -20.4050 N.am  316  GLY316     -0.1957
     75  CA       -51.5130   31.1300  -21.3310 C.3   316  GLY316      0.1869
     76  C        -50.0650   31.4160  -20.9750 C.2   316  GLY316      0.2309
     77  O        -49.2240   31.6770  -21.8720 O.2   316  GLY316     -0.2863
     78  N        -46.9580   29.5970  -19.0600 N.3   318  PRO318     -0.2116
     79  CA       -46.4950   28.3300  -18.5020 C.3   318  PRO318      0.1372
     80  C        -45.4090   28.5040  -17.4010 C.2   318  PRO318      0.2244
     81  O        -44.2820   27.9940  -17.5240 O.2   318  PRO318     -0.2868
     82  CB       -45.9430   27.5820  -19.7500 C.3   318  PRO318      0.0268
     83  CG       -45.3930   28.6770  -20.6070 C.3   318  PRO318      0.0207
     84  CD       -46.2080   29.9290  -20.2960 C.3   318  PRO318      0.0892
     85  N        -53.8510   21.0880  -20.5780 N.3   356  PHE356     -0.1241
     86  CA       -53.7740   21.5350  -21.9600 C.3   356  PHE356      0.1605
     87  C        -54.9810   21.0920  -22.7540 C.2   356  PHE356      0.2264
     88  O        -55.4700   19.9640  -22.5810 O.2   356  PHE356     -0.2867
     89  CB       -52.4740   21.0900  -22.6770 C.3   356  PHE356      0.0534
     90  CG       -51.8050   22.2090  -23.4070 C.ar  356  PHE356     -0.0203
     91  CD1      -51.0600   23.1640  -22.7100 C.ar  356  PHE356     -0.0042
     92  CD2      -51.9740   22.3680  -24.7760 C.ar  356  PHE356     -0.0042
     93  CE1      -50.4870   24.2470  -23.3820 C.ar  356  PHE356     -0.0003
     94  CE2      -51.3980   23.4580  -25.4430 C.ar  356  PHE356     -0.0003
     95  CZ       -50.6470   24.3820  -24.7480 C.ar  356  PHE356     -0.0000
     96  N        -35.4790   29.4510  -30.7930 N.3   480  TYR480     -0.1227
     97  CA       -34.9800   29.8090  -29.4690 C.3   480  TYR480      0.1736
     98  C        -35.2220   28.7300  -28.4510 C.2   480  TYR480      0.2595
     99  O        -34.6960   28.8260  -27.3470 O.2   480  TYR480     -0.2718
    100  CB       -35.5680   31.1660  -28.9840 C.3   480  TYR480      0.0548
    101  CG       -36.9590   31.1110  -28.3920 C.ar  480  TYR480     -0.0200
    102  CD1      -38.1030   31.2530  -29.2090 C.ar  480  TYR480     -0.0009
    103  CD2      -37.1400   30.9130  -27.0300 C.ar  480  TYR480     -0.0009
    104  CE1      -39.3910   31.1600  -28.6760 C.ar  480  TYR480      0.0417
    105  CE2      -38.4080   30.8350  -26.4830 C.ar  480  TYR480      0.0417
    106  CZ       -39.5340   30.9590  -27.3110 C.ar  480  TYR480      0.1957
    107  OH       -40.7950   30.8800  -26.7610 O.3   480  TYR480     -0.2866
    108  N        -36.0080   27.6970  -28.8040 N.am  481  LYS481     -0.1980
    109  CA       -36.2690   26.6070  -27.8340 C.3   481  LYS481      0.1596
    110  C        -35.1560   25.5560  -27.7440 C.2   481  LYS481      0.2287
    111  O        -35.0110   24.9150  -26.6930 O.2   481  LYS481     -0.2864
    112  CB       -37.6710   25.9800  -27.9940 C.3   481  LYS481      0.0298
    113  CG       -38.8200   26.9250  -27.6450 C.3   481  LYS481      0.0038
    114  CD       -40.1690   26.2820  -27.9740 C.3   481  LYS481      0.0206
    115  CE       -41.3320   27.1010  -27.4130 C.3   481  LYS481      0.1093
    116  NZ       -42.5940   26.3240  -27.5730 N.3   481  LYS481     -0.1314
    117  N        -37.7140   24.1180  -23.5590 N.3   556  CYS556     -0.1235
    118  CA       -39.1190   24.4820  -23.5170 C.3   556  CYS556      0.1677
    119  C        -39.7620   23.7290  -24.6650 C.2   556  CYS556      0.2270
    120  O        -39.3780   23.9000  -25.8270 O.2   556  CYS556     -0.2867
    121  CB       -39.2740   25.9850  -23.6860 C.3   556  CYS556      0.0956
    122  SG       -40.9780   26.5670  -23.8410 S.3   556  CYS556     -0.0801
    123  N        -46.0130   23.7570  -26.9770 N.3   559  HIS559     -0.1226
    124  CA       -47.2180   23.7490  -26.1930 C.3   559  HIS559      0.1752
    125  C        -48.3050   23.7400  -27.2460 C.2   559  HIS559      0.2596
    126  O        -48.7730   22.6360  -27.5960 O.2   559  HIS559     -0.2718
    127  CB       -47.2630   24.8800  -25.1480 C.3   559  HIS559      0.0759
    128  CG       -46.1290   24.8370  -24.1610 C.ar  559  HIS559      0.0818
    129  ND1      -45.8640   25.8720  -23.3020 N.ar  559  HIS559     -0.2268
    130  CD2      -45.1910   23.8860  -23.9050 C.ar  559  HIS559      0.1154
    131  CE1      -44.8150   25.5650  -22.5570 C.ar  559  HIS559      0.1986
    132  NE2      -44.3770   24.3730  -22.9170 N.ar  559  HIS559     -0.2212
    133  N        -48.6240   24.9030  -27.8270 N.am  560  THR560     -0.1953
    134  CA       -49.5180   24.9590  -28.9680 C.3   560  THR560      0.1897
    135  C        -48.9220   24.0650  -30.0140 C.2   560  THR560      0.2313
    136  O        -49.6270   23.3430  -30.6580 O.2   560  THR560     -0.2863
    137  CB       -49.6120   26.3850  -29.5400 C.3   560  THR560      0.1794
    138  OG1      -49.9510   27.3000  -28.4930 O.3   560  THR560     -0.2208
    139  CG2      -50.6300   26.5100  -30.7200 C.3   560  THR560      0.0378
@<TRIPOS>BOND
     1    27    28    1
     2    28    29    1
     3    28    31    1
     4    43    37    1
     5    43    42    1
     6    30    29    2
     7    29    37   am
     8    96    97    1
     9   139   137    1
    10   136   135    2
    11    37    38    1
    12    42    41    1
    13    31    32    1
    14    38    41    1
    15    38    39    1
    16   135   134    1
    17   137   134    1
    18   137   138    1
    19    97   100    1
    20    97    98    1
    21    32    34   ar
    22    32    33   ar
    23   102   104   ar
    24   102   101   ar
    25    34    36   ar
    26    51    52    1
    27   100   101    1
    28   134   133    1
    29    39    40    2
    30    39    44   am
    31   108    98   am
    32   108   109    1
    33   104   106   ar
    34    98    99    2
    35   101   103   ar
    36    33    35   ar
    37    36    35   ar
    38    44    45    1
    39    52    53    1
    40    52    55    1
    41   112   109    1
    42   112   113    1
    43   114   113    1
    44   114   115    1
    45    58    56    1
    46   109   110    1
    47   133   125   am
    48   110   111    2
    49   126   125    2
    50    46    47    2
    51    46    45    1
    52   116   115    1
    53    54    53    2
    54   106   107    1
    55   106   105   ar
    56   125   124    1
    57    56    55    1
    58    56    57    1
    59   103   105   ar
    60   123   124    1
    61    45    48    1
    62   124   127    1
    63    48    49    1
    64    48    50    1
    65   120   119    2
    66    94    92   ar
    67    94    95   ar
    68   127   128    1
    69    92    90   ar
    70    95    93   ar
    71   119   118    1
    72   128   130   ar
    73   128   129   ar
    74    25    24    1
    75   130   132   ar
    76   122   121    1
    77   121   118    1
    78   117   118    1
    79     9    10   ar
    80     9     7   ar
    81    26    24    1
    82    90    91   ar
    83    90    89    1
    84    93    91   ar
    85   129   131   ar
    86   132   131   ar
    87    24    23    1
    88    73    71    1
    89    87    88    2
    90    87    86    1
    91    10     8   ar
    92     7     6   ar
    93    89    86    1
    94    61    60    1
    95    61    62    2
    96    63    65    1
    97    63    60    1
    98    63    64    1
    99    72    71    1
   100    23    20    1
   101    71    70    1
   102    86    85    1
   103    77    76    2
   104    60    59    1
   105    69    68    2
   106     8     6   ar
   107     6     5    1
   108    75    76    1
   109    75    74    1
   110    22    21    2
   111    20    21    1
   112    20    19    1
   113     4     3    2
   114    68    74   am
   115    68    67    1
   116    83    84    1
   117    83    82    1
   118    70    67    1
   119    84    78    1
   120    17    16    1
   121    17    18    1
   122     5     2    1
   123    16    15    1
   124     3     2    1
   125    19    13   am
   126    82    79    1
   127    67    66    1
   128    14    13    2
   129     2     1    1
   130    13    12    1
   131    78    79    1
   132    15    12    1
   133    79    80    1
   134    12    11    1
   135    81    80    2
