@<TRIPOS>MOLECULE
tmp/5viiB02.pdb
 73 70 0 0 0
SMALL
GASTEIGER

@<TRIPOS>ATOM
      1  N        -22.7890   11.9930    0.9140 N.3    79  GLY79      -0.1210
      2  CA       -22.1480   12.7280   -0.1520 C.3    79  GLY79       0.1956
      3  C        -22.9990   12.6980   -1.4010 C.2    79  GLY79       0.2612
      4  O        -24.1420   12.2230   -1.4130 O.2    79  GLY79      -0.2717
      5  N        -22.4080   13.2190   -2.4800 N.am   80  LYS80      -0.1965
      6  CA       -23.0910   13.3070   -3.7580 C.3    80  LYS80       0.1728
      7  C        -22.2220   12.6090   -4.7880 C.2    80  LYS80       0.2616
      8  O        -22.1630   11.3690   -4.8140 O.2    80  LYS80      -0.2715
      9  CB       -23.4200   14.7690   -4.0870 C.3    80  LYS80       0.0311
     10  CG       -24.1760   15.4980   -2.9800 C.3    80  LYS80       0.0038
     11  CD       -25.1980   16.4940   -3.5400 C.3    80  LYS80       0.0206
     12  CE       -24.5520   17.8520   -3.7670 C.3    80  LYS80       0.1093
     13  NZ       -24.8890   18.8050   -2.6830 N.3    80  LYS80      -0.1314
     14  N        -21.5380   13.3490   -5.6660 N.am   81  HIS81      -0.1959
     15  CA       -20.7870   12.7050   -6.7380 C.3    81  HIS81       0.1787
     16  C        -19.5030   12.0660   -6.2140 C.2    81  HIS81       0.2621
     17  O        -19.1770   10.9360   -6.5840 O.2    81  HIS81      -0.2715
     18  CB       -20.4690   13.7050   -7.8500 C.3    81  HIS81       0.0785
     19  CG       -21.6540   14.4810   -8.3220 C.ar   81  HIS81       0.0821
     20  ND1      -22.0710   15.6430   -7.6950 N.ar   81  HIS81      -0.2267
     21  CD2      -22.5160   14.2630   -9.3490 C.ar   81  HIS81       0.1154
     22  CE1      -23.1420   16.1010   -8.3260 C.ar   81  HIS81       0.1986
     23  NE2      -23.4330   15.2820   -9.3250 N.ar   81  HIS81      -0.2212
     24  N        -18.7750   12.7610   -5.3470 N.am   82  GLY82      -0.1940
     25  CA       -17.5140   12.2860   -4.8220 C.3    82  GLY82       0.2014
     26  C        -16.5790   13.4260   -4.4750 C.2    82  GLY82       0.2638
     27  O        -16.1580   14.1870   -5.3550 O.2    82  GLY82      -0.2714
     28  N        -16.2800   13.5680   -3.1820 N.am   83  LYS83      -0.1977
     29  CA       -15.3870   14.5910   -2.6590 C.3    83  LYS83       0.1596
     30  C        -14.4060   13.9250   -1.7000 C.2    83  LYS83       0.2287
     31  O        -14.8010   13.1000   -0.8630 O.2    83  LYS83      -0.2864
     32  CB       -16.1960   15.7030   -1.9510 C.3    83  LYS83       0.0298
     33  CG       -15.4590   17.0170   -1.6990 C.3    83  LYS83       0.0038
     34  CD       -16.4100   18.0920   -1.1320 C.3    83  LYS83       0.0206
     35  CE       -15.6640   19.3980   -0.8510 C.3    83  LYS83       0.1093
     36  NZ       -16.5530   20.5900   -0.6110 N.3    83  LYS83      -0.1314
     37  N        -15.9950   10.5660   -0.0290 N.3    90  ASN90      -0.1240
     38  CA       -17.4160   10.2820    0.1480 C.3    90  ASN90       0.1653
     39  C        -18.0700   10.1000   -1.2230 C.2    90  ASN90       0.2266
     40  O        -17.3820    9.9650   -2.2500 O.2    90  ASN90      -0.2867
     41  CB       -18.0990   11.3870    0.9740 C.3    90  ASN90       0.1155
     42  CG       -18.2920   12.7060    0.1990 C.2    90  ASN90       0.2627
     43  OD1      -18.0530   12.7960   -1.0020 O.2    90  ASN90      -0.2716
     44  ND2      -18.7170   13.7440    0.9150 N.am   90  ASN90      -0.0877
     45  N        -10.0680   12.1750   -9.2190 N.3   114  ARG114     -0.1245
     46  CA       -10.7980   10.9200   -9.1310 C.3   114  ARG114      0.1563
     47  C        -10.1260    9.8270   -9.9540 C.2   114  ARG114      0.2260
     48  O        -10.1930    8.6490   -9.5830 O.2   114  ARG114     -0.2867
     49  CB       -12.2510   11.1140   -9.5940 C.3   114  ARG114      0.0307
     50  CG       -13.0310   12.1770   -8.8260 C.3   114  ARG114      0.0489
     51  CD       -14.4070   12.4210   -9.4240 C.3   114  ARG114      0.2205
     52  NE       -15.2210   13.2520   -8.5360 N.pl3 114  ARG114     -0.0865
     53  CZ       -16.2950   13.9370   -8.9210 C.cat 114  ARG114      0.5346
     54  NH1      -16.6890   13.8970  -10.1900 N.pl3 114  ARG114      0.1354
     55  NH2      -16.9670   14.6690   -8.0400 N.pl3 114  ARG114      0.1354
     56  N        -19.2710   24.5750   -2.8440 N.3   164  ASN164     -0.1225
     57  CA       -18.8680   23.2980   -2.2330 C.3   164  ASN164      0.1785
     58  C        -18.7010   22.1410   -3.2220 C.2   164  ASN164      0.2598
     59  O        -18.4470   21.0020   -2.7840 O.2   164  ASN164     -0.2718
     60  CB       -19.8180   22.8500   -1.1110 C.3   164  ASN164      0.1169
     61  CG       -20.1960   23.9890   -0.1700 C.2   164  ASN164      0.2627
     62  OD1      -21.3440   24.0760    0.2870 O.2   164  ASN164     -0.2716
     63  ND2      -19.2320   24.8700    0.1280 N.am  164  ASN164     -0.0877
     64  N        -18.7930   22.3890   -4.5340 N.am  165  GLY165     -0.1942
     65  CA       -18.5490   21.3530   -5.5250 C.3   165  GLY165      0.2014
     66  C        -17.3530   21.5670   -6.4440 C.2   165  GLY165      0.2639
     67  O        -16.4550   22.3580   -6.1480 O.2   165  GLY165     -0.2714
     68  N        -17.3530   20.8760   -7.5860 N.am  166  SER166     -0.1949
     69  CA       -16.2140   20.9420   -8.5040 C.3   166  SER166      0.1924
     70  C        -16.0820   22.3110   -9.1630 C.2   166  SER166      0.2314
     71  O        -14.9590   22.7630   -9.4230 O.2   166  SER166     -0.2863
     72  CB       -16.3340   19.8610   -9.5820 C.3   166  SER166      0.2116
     73  OG       -16.4700   18.5740   -9.0020 O.3   166  SER166     -0.2180
@<TRIPOS>BOND
     1    54    53    1
     2    47    48    2
     3    47    46    1
     4    49    46    1
     5    49    50    1
     6    72    73    1
     7    72    69    1
     8    51    50    1
     9    51    52    1
    10    71    70    2
    11    21    23   ar
    12    21    19   ar
    13    23    22   ar
    14    45    46    1
    15    70    69    1
    16    53    52    2
    17    53    55    1
    18    69    68    1
    19    22    20   ar
    20    19    18    1
    21    19    20   ar
    22    18    15    1
    23    68    66   am
    24    15    16    1
    25    15    14    1
    26    17    16    2
    27    66    67    2
    28    66    65    1
    29    16    24   am
    30    14     7   am
    31    65    64    1
    32    27    26    2
    33    24    25    1
    34    25    26    1
    35     8     7    2
    36     7     6    1
    37    64    58   am
    38    26    28   am
    39     9     6    1
    40     9    10    1
    41    12    11    1
    42    12    13    1
    43     6     5    1
    44    11    10    1
    45    58    59    2
    46    58    57    1
    47    28    29    1
    48    56    57    1
    49    29    32    1
    50    29    30    1
    51     5     3   am
    52    40    39    2
    53    57    60    1
    54    32    33    1
    55    30    31    2
    56    33    34    1
    57     4     3    2
    58     3     2    1
    59    39    38    1
    60    34    35    1
    61    60    61    1
    62    43    42    2
    63    35    36    1
    64    61    63   am
    65    61    62    2
    66     2     1    1
    67    37    38    1
    68    38    41    1
    69    42    44   am
    70    42    41    1
