@<TRIPOS>MOLECULE
tmp/5viiB00.pdb
 179 170 0 0 0
SMALL
GASTEIGER

@<TRIPOS>ATOM
      1  N        -30.0880   12.6890   -9.7880 N.3    11  GLU11      -0.1245
      2  CA       -29.9160   14.0110  -10.3900 C.3    11  GLU11       0.1567
      3  C        -30.6340   13.9820  -11.7420 C.2    11  GLU11       0.2260
      4  O        -30.0740   13.4940  -12.7290 O.2    11  GLU11      -0.2867
      5  CB       -28.4470   14.3870  -10.5500 C.3    11  GLU11       0.0388
      6  CG       -28.2710   15.8860  -10.8660 C.3    11  GLU11       0.1160
      7  CD       -26.8040   16.3530  -10.9500 C.2    11  GLU11       0.3649
      8  OE1      -25.8880   15.5150  -11.0780 O.co2  11  GLU11      -0.2457
      9  OE2      -26.5690   17.5780  -10.9280 O.co2  11  GLU11      -0.2457
     10  N        -22.4080   13.2190   -2.4800 N.3    80  LYS80      -0.1231
     11  CA       -23.0910   13.3070   -3.7580 C.3    80  LYS80       0.1693
     12  C        -22.2220   12.6090   -4.7880 C.2    80  LYS80       0.2592
     13  O        -22.1630   11.3690   -4.8140 O.2    80  LYS80      -0.2718
     14  CB       -23.4200   14.7690   -4.0870 C.3    80  LYS80       0.0285
     15  CG       -24.1760   15.4980   -2.9800 C.3    80  LYS80       0.0035
     16  CD       -25.1980   16.4940   -3.5400 C.3    80  LYS80       0.0206
     17  CE       -24.5520   17.8520   -3.7670 C.3    80  LYS80       0.1093
     18  NZ       -24.8890   18.8050   -2.6830 N.3    80  LYS80      -0.1314
     19  N        -21.5380   13.3490   -5.6660 N.am   81  HIS81      -0.1976
     20  CA       -20.7870   12.7050   -6.7380 C.3    81  HIS81       0.1656
     21  C        -19.5030   12.0660   -6.2140 C.2    81  HIS81       0.2291
     22  O        -19.1770   10.9360   -6.5840 O.2    81  HIS81      -0.2864
     23  CB       -20.4690   13.7050   -7.8500 C.3    81  HIS81       0.0771
     24  CG       -21.6540   14.4810   -8.3220 C.ar   81  HIS81       0.0820
     25  ND1      -22.0710   15.6430   -7.6950 N.ar   81  HIS81      -0.2267
     26  CD2      -22.5160   14.2630   -9.3490 C.ar   81  HIS81       0.1154
     27  CE1      -23.1420   16.1010   -8.3260 C.ar   81  HIS81       0.1986
     28  NE2      -23.4330   15.2820   -9.3250 N.ar   81  HIS81      -0.2212
     29  N        -24.4100   10.9860  -13.1700 N.3   107  SER107     -0.1217
     30  CA       -23.9040   12.2680  -13.6700 C.3   107  SER107      0.1889
     31  C        -22.5310   12.5770  -13.0620 C.2   107  SER107      0.2288
     32  O        -22.2970   13.6130  -12.4480 O.2   107  SER107     -0.2866
     33  CB       -24.9100   13.3790  -13.3710 C.3   107  SER107      0.2089
     34  OG       -25.2290   13.4120  -11.9880 O.3   107  SER107     -0.2183
     35  N        -18.6400   13.2470  -13.1180 N.3   109  THR109     -0.1203
     36  CA       -17.7150   13.8920  -14.0360 C.3   109  THR109      0.1994
     37  C        -16.3270   13.2760  -13.9500 C.2   109  THR109      0.2618
     38  O        -15.8210   12.9970  -12.8630 O.2   109  THR109     -0.2717
     39  CB       -17.6430   15.3780  -13.7310 C.3   109  THR109      0.1784
     40  OG1      -18.9210   15.9660  -14.0350 O.3   109  THR109     -0.2211
     41  CG2      -16.5100   16.0440  -14.5280 C.3   109  THR109      0.0376
     42  N        -15.7230   13.0600  -15.1100 N.am  110  ILE110     -0.1965
     43  CA       -14.3680   12.5290  -15.1800 C.3   110  ILE110      0.1727
     44  C        -13.4160   13.6610  -14.8390 C.2   110  ILE110      0.2616
     45  O        -13.4420   14.7100  -15.4950 O.2   110  ILE110     -0.2715
     46  CB       -14.0670   11.9660  -16.5720 C.3   110  ILE110      0.0290
     47  CG1      -14.8950   10.6940  -16.8300 C.3   110  ILE110      0.0022
     48  CG2      -12.5400   11.7110  -16.7080 C.3   110  ILE110      0.0023
     49  CD1      -15.0210   10.3230  -18.2990 C.3   110  ILE110      0.0001
     50  N        -12.5960   13.4710  -13.8030 N.am  111  ASN111     -0.1972
     51  CA       -11.5890   14.4760  -13.4710 C.3   111  ASN111      0.1688
     52  C        -10.2980   13.7960  -13.0290 C.2   111  ASN111      0.2292
     53  O        -10.2740   12.6010  -12.7190 O.2   111  ASN111     -0.2864
     54  CB       -12.1050   15.4760  -12.4230 C.3   111  ASN111      0.1181
     55  CG       -12.2440   14.8980  -11.0170 C.2   111  ASN111      0.2629
     56  OD1      -11.4280   14.0890  -10.5430 O.2   111  ASN111     -0.2716
     57  ND2      -13.2820   15.3490  -10.3220 N.am  111  ASN111     -0.0877
     58  N        -10.0680   12.1750   -9.2190 N.3   114  ARG114     -0.1245
     59  CA       -10.7980   10.9200   -9.1310 C.3   114  ARG114      0.1563
     60  C        -10.1260    9.8270   -9.9540 C.2   114  ARG114      0.2260
     61  O        -10.1930    8.6490   -9.5830 O.2   114  ARG114     -0.2867
     62  CB       -12.2510   11.1140   -9.5940 C.3   114  ARG114      0.0307
     63  CG       -13.0310   12.1770   -8.8260 C.3   114  ARG114      0.0489
     64  CD       -14.4070   12.4210   -9.4240 C.3   114  ARG114      0.2205
     65  NE       -15.2210   13.2520   -8.5360 N.pl3 114  ARG114     -0.0865
     66  CZ       -16.2950   13.9370   -8.9210 C.cat 114  ARG114      0.5346
     67  NH1      -16.6890   13.8970  -10.1900 N.pl3 114  ARG114      0.1354
     68  NH2      -16.9670   14.6690   -8.0400 N.pl3 114  ARG114      0.1354
     69  N        -19.3350   17.2520  -20.7720 N.3   127  THR127     -0.1203
     70  CA       -19.6450   18.3170  -19.8130 C.3   127  THR127      0.1994
     71  C        -18.4070   19.2000  -19.6290 C.2   127  THR127      0.2618
     72  O        -17.4720   19.1750  -20.4410 O.2   127  THR127     -0.2717
     73  CB       -20.1890   17.7210  -18.4990 C.3   127  THR127      0.1784
     74  OG1      -20.7780   18.7670  -17.7170 O.3   127  THR127     -0.2211
     75  CG2      -19.0990   16.9790  -17.6870 C.3   127  THR127      0.0376
     76  N        -18.4020   19.9830  -18.5720 N.am  128  GLY128     -0.1942
     77  CA       -17.4060   21.0220  -18.3950 C.3   128  GLY128      0.2014
     78  C        -18.0190   22.1570  -17.5990 C.2   128  GLY128      0.2638
     79  O        -19.1140   22.0350  -17.0520 O.2   128  GLY128     -0.2714
     80  N        -17.3020   23.2670  -17.5340 N.am  129  ILE129     -0.1977
     81  CA       -17.8220   24.4500  -16.8560 C.3   129  ILE129      0.1596
     82  C        -18.4020   25.3620  -17.9220 C.2   129  ILE129      0.2287
     83  O        -17.6770   25.8820  -18.7740 O.2   129  ILE129     -0.2864
     84  CB       -16.7610   25.1630  -16.0150 C.3   129  ILE129      0.0276
     85  CG1      -16.2620   24.2550  -14.9050 C.3   129  ILE129      0.0022
     86  CG2      -17.3630   26.3910  -15.3660 C.3   129  ILE129      0.0022
     87  CD1      -15.2540   24.9440  -13.9630 C.3   129  ILE129      0.0001
     88  N        -23.1650   27.3880   -7.4430 N.3   162  VAL162     -0.1231
     89  CA       -23.5050   26.6770   -6.2190 C.3   162  VAL162      0.1678
     90  C        -22.1930   26.2350   -5.5690 C.2   162  VAL162      0.2434
     91  O        -21.4400   25.4730   -6.1930 O.2   162  VAL162     -0.2733
     92  CB       -24.4200   25.4830   -6.5030 C.3   162  VAL162      0.0265
     93  CG1      -24.7340   24.7180   -5.2240 C.3   162  VAL162      0.0020
     94  CG2      -25.6880   25.9750   -7.1630 C.3   162  VAL162      0.0020
     95  N        -21.8760   26.7100   -4.3690 N.am  163  PRO163     -0.2729
     96  CA       -20.5730   26.4000   -3.7570 C.3   163  PRO163      0.1401
     97  C        -20.4830   24.9460   -3.2950 C.2   163  PRO163      0.2269
     98  O        -21.4480   24.1850   -3.3650 O.2   163  PRO163     -0.2865
     99  CB       -20.5060   27.3700   -2.5710 C.3   163  PRO163      0.0296
    100  CG       -21.9480   27.6400   -2.2260 C.3   163  PRO163      0.0237
    101  CD       -22.6810   27.6390   -3.5510 C.3   163  PRO163      0.0939
    102  N        -18.7930   22.3890   -4.5340 N.3   165  GLY165     -0.1210
    103  CA       -18.5490   21.3530   -5.5250 C.3   165  GLY165      0.1956
    104  C        -17.3530   21.5670   -6.4440 C.2   165  GLY165      0.2613
    105  O        -16.4550   22.3580   -6.1480 O.2   165  GLY165     -0.2717
    106  N        -17.3530   20.8760   -7.5860 N.am  166  SER166     -0.1938
    107  CA       -16.2140   20.9420   -8.5040 C.3   166  SER166      0.2055
    108  C        -16.0820   22.3110   -9.1630 C.2   166  SER166      0.2644
    109  O        -14.9590   22.7630   -9.4230 O.2   166  SER166     -0.2714
    110  CB       -16.3340   19.8610   -9.5820 C.3   166  SER166      0.2130
    111  OG       -16.4700   18.5740   -9.0020 O.3   166  SER166     -0.2179
    112  N        -17.2040   22.9780   -9.4780 N.am  167  THR167     -0.1936
    113  CA       -17.0850   24.2870  -10.1220 C.3   167  THR167      0.2028
    114  C        -16.3540   25.2700   -9.2190 C.2   167  THR167      0.2642
    115  O        -15.3650   25.8890   -9.6280 O.2   167  THR167     -0.2714
    116  CB       -18.4520   24.8550  -10.5110 C.3   167  THR167      0.1808
    117  OG1      -19.0980   23.9690  -11.4230 O.3   167  THR167     -0.2208
    118  CG2      -18.2720   26.2060  -11.1980 C.3   167  THR167      0.0379
    119  N        -16.8230   25.4170   -7.9790 N.am  168  GLU168     -0.1976
    120  CA       -16.1740   26.3360   -7.0550 C.3   168  GLU168      0.1602
    121  C        -14.7060   25.9850   -6.8870 C.2   168  GLU168      0.2287
    122  O        -13.8470   26.8720   -6.8610 O.2   168  GLU168     -0.2864
    123  CB       -16.8750   26.3030   -5.7000 C.3   168  GLU168      0.0415
    124  CG       -16.0180   26.8810   -4.5920 C.3   168  GLU168      0.1163
    125  CD       -16.7930   27.1400   -3.3120 C.2   168  GLU168      0.3649
    126  OE1      -17.2950   26.1630   -2.7150 O.co2 168  GLU168     -0.2457
    127  OE2      -16.8910   28.3130   -2.9070 O.co2 168  GLU168     -0.2457
    128  N        -12.6420   24.2700   -8.9310 N.3   170  ASN170     -0.1240
    129  CA       -11.8970   24.6160  -10.1390 C.3   170  ASN170      0.1653
    130  C        -11.6460   26.1200  -10.2190 C.2   170  ASN170      0.2266
    131  O        -10.5100   26.5600  -10.4610 O.2   170  ASN170     -0.2867
    132  CB       -12.6500   24.1230  -11.3790 C.3   170  ASN170      0.1155
    133  CG       -11.8560   24.3240  -12.6660 C.2   170  ASN170      0.2627
    134  OD1      -11.8200   25.4210  -13.1980 O.2   170  ASN170     -0.2716
    135  ND2      -11.2430   23.2540  -13.1810 N.am  170  ASN170     -0.0877
    136  N        -21.8480   26.8100  -14.0070 N.3   207  TYR207     -0.1227
    137  CA       -22.1510   25.4550  -13.5440 C.3   207  TYR207      0.1736
    138  C        -21.8240   24.4070  -14.6160 C.2   207  TYR207      0.2595
    139  O        -21.4140   24.7230  -15.7390 O.2   207  TYR207     -0.2718
    140  CB       -23.6200   25.3330  -13.1370 C.3   207  TYR207      0.0548
    141  CG       -23.8700   24.2320  -12.1430 C.ar  207  TYR207     -0.0200
    142  CD1      -23.2850   24.2800  -10.8740 C.ar  207  TYR207     -0.0009
    143  CD2      -24.6800   23.1350  -12.4720 C.ar  207  TYR207     -0.0009
    144  CE1      -23.4920   23.2830   -9.9530 C.ar  207  TYR207      0.0417
    145  CE2      -24.8930   22.1050  -11.5560 C.ar  207  TYR207      0.0417
    146  CZ       -24.3030   22.1970  -10.2890 C.ar  207  TYR207      0.1957
    147  OH       -24.4910   21.2080   -9.3660 O.3   207  TYR207     -0.2866
    148  N        -22.0260   23.1430  -14.2310 N.am  208  ASP208     -0.1974
    149  CA       -21.9210   21.9780  -15.1070 C.3   208  ASP208      0.1709
    150  C        -22.6570   22.1830  -16.4260 C.2   208  ASP208      0.2293
    151  O        -23.8490   22.5080  -16.4390 O.2   208  ASP208     -0.2864
    152  CB       -22.5010   20.7600  -14.3740 C.3   208  ASP208      0.1436
    153  CG       -22.4840   19.4880  -15.2270 C.2   208  ASP208      0.3671
    154  OD1      -21.4320   18.8200  -15.2500 O.co2 208  ASP208     -0.2456
    155  OD2      -23.5110   19.1530  -15.8760 O.co2 208  ASP208     -0.2456
    156  N        -12.6500   23.6010  -19.5660 N.3   234  ALA234     -0.1245
    157  CA       -12.2540   22.3320  -18.9670 C.3   234  ALA234      0.1562
    158  C        -13.2100   21.2190  -19.4060 C.2   234  ALA234      0.2260
    159  O        -13.7810   20.4940  -18.5870 O.2   234  ALA234     -0.2867
    160  CB       -12.1920   22.4410  -17.4390 C.3   234  ALA234      0.0290
    161  N        -14.8010   17.9160  -20.4410 N.3   236  THR236     -0.1218
    162  CA       -14.5970   16.5210  -20.0750 C.3   236  THR236      0.1862
    163  C        -15.9220   15.8190  -20.3680 C.2   236  THR236      0.2287
    164  O        -16.6210   16.2100  -21.3100 O.2   236  THR236     -0.2866
    165  CB       -14.1350   16.3890  -18.6050 C.3   236  THR236      0.1770
    166  OG1      -14.1190   15.0060  -18.1920 O.3   236  THR236     -0.2211
    167  CG2      -15.0350   17.1890  -17.6590 C.3   236  THR236      0.0375
    168  N        -19.2640   13.0690  -18.4610 N.3   238  TYR238     -0.1241
    169  CA       -19.6680   12.0550  -17.5010 C.3   238  TYR238      0.1605
    170  C        -19.1070   10.7180  -17.9520 C.2   238  TYR238      0.2264
    171  O        -19.1480   10.3920  -19.1450 O.2   238  TYR238     -0.2867
    172  CB       -21.1910   11.9530  -17.4090 C.3   238  TYR238      0.0534
    173  CG       -21.8960   13.1860  -16.8790 C.ar  238  TYR238     -0.0201
    174  CD1      -21.1990   14.1890  -16.1980 C.ar  238  TYR238     -0.0009
    175  CD2      -23.2700   13.3480  -17.0570 C.ar  238  TYR238     -0.0009
    176  CE1      -21.8690   15.3240  -15.7080 C.ar  238  TYR238      0.0417
    177  CE2      -23.9410   14.4670  -16.5840 C.ar  238  TYR238      0.0417
    178  CZ       -23.2450   15.4510  -15.9040 C.ar  238  TYR238      0.1957
    179  OH       -23.9400   16.5590  -15.4440 O.3   238  TYR238     -0.2866
@<TRIPOS>BOND
     1   164   163    2
     2    69    70    1
     3    72    71    2
     4   161   162    1
     5   163   162    1
     6   162   165    1
     7    70    71    1
     8    70    73    1
     9    71    76   am
    10   156   157    1
    11   158   157    1
    12   158   159    2
    13   171   170    2
    14   157   160    1
    15    83    82    2
    16   165   166    1
    17   165   167    1
    18    76    77    1
    19    73    74    1
    20    73    75    1
    21   168   169    1
    22    77    78    1
    23    49    47    1
    24   170   169    1
    25    82    81    1
    26    78    80   am
    27    78    79    2
    28    80    81    1
    29   169   172    1
    30   172   173    1
    31   175   173   ar
    32   175   177   ar
    33   173   174   ar
    34    81    84    1
    35    47    46    1
    36    48    46    1
    37   177   178   ar
    38    46    43    1
    39   151   150    2
    40   150   149    1
    41   174   176   ar
    42    84    86    1
    43    84    85    1
    44   178   176   ar
    45   178   179    1
    46   155   153   ar
    47   139   138    2
    48    45    44    2
    49   154   153   ar
    50   153   152    1
    51    43    42    1
    52    43    44    1
    53    42    37   am
    54   149   152    1
    55   149   148    1
    56    85    87    1
    57    44    50   am
    58   138   148   am
    59   138   137    1
    60    41    39    1
    61    36    37    1
    62    36    39    1
    63    36    35    1
    64    40    39    1
    65   136   137    1
    66    37    38    2
    67    50    51    1
    68    30    33    1
    69    30    29    1
    70    30    31    1
    71   137   140    1
    72    51    52    1
    73    51    54    1
    74    33    34    1
    75   134   133    2
    76   135   133   am
    77   140   141    1
    78    31    32    2
    79    52    53    2
    80     4     3    2
    81   133   132    1
    82   143   141   ar
    83   143   145   ar
    84    54    55    1
    85   141   142   ar
    86     3     2    1
    87   145   146   ar
    88   117   116    1
    89   132   129    1
    90   118   116    1
    91     8     7   ar
    92    55    56    2
    93    55    57   am
    94     7     9   ar
    95     7     6    1
    96   142   144   ar
    97     6     5    1
    98     5     2    1
    99   116   113    1
   100   131   130    2
   101     2     1    1
   102   146   144   ar
   103   146   147    1
   104   130   129    1
   105    67    66    1
   106   129   128    1
   107   113   112    1
   108   113   114    1
   109    60    61    2
   110    60    59    1
   111   115   114    2
   112    62    59    1
   113    62    63    1
   114   110   111    1
   115   110   107    1
   116   112   108   am
   117    64    63    1
   118    64    65    1
   119   109   108    2
   120    26    28   ar
   121    26    24   ar
   122    28    27   ar
   123    58    59    1
   124   114   119   am
   125   108   107    1
   126    66    65    2
   127    66    68    1
   128   107   106    1
   129    27    25   ar
   130    24    23    1
   131    24    25   ar
   132   119   120    1
   133    23    20    1
   134   106   104   am
   135    88    89    1
   136    94    92    1
   137   120   121    1
   138   120   123    1
   139   121   122    2
   140    20    21    1
   141    20    19    1
   142    22    21    2
   143    92    89    1
   144    92    93    1
   145   104   105    2
   146   104   103    1
   147    89    90    1
   148    91    90    2
   149   123   124    1
   150    19    12   am
   151    90    95   am
   152   103   102    1
   153    13    12    2
   154    12    11    1
   155   124   125    1
   156    95    96    1
   157    95   101    1
   158    14    11    1
   159    14    15    1
   160    17    16    1
   161    17    18    1
   162    11    10    1
   163    96    97    1
   164    96    99    1
   165   101   100    1
   166    16    15    1
   167    98    97    2
   168   125   127   ar
   169   125   126   ar
   170    99   100    1
