@<TRIPOS>MOLECULE
tmp/5vitI00.pdb
 110 102 0 0 0
SMALL
GASTEIGER

@<TRIPOS>ATOM
      1  N         29.4720   -5.8710   17.2560 N.3    53  ASN53      -0.1240
      2  CA        28.7450   -7.0680   17.6770 C.3    53  ASN53       0.1653
      3  C         29.6310   -8.0680   18.4210 C.2    53  ASN53       0.2266
      4  O         29.2270   -8.6280   19.4420 O.2    53  ASN53      -0.2867
      5  CB        28.0990   -7.7740   16.4830 C.3    53  ASN53       0.1155
      6  CG        26.7340   -7.2040   16.1310 C.2    53  ASN53       0.2627
      7  OD1       26.1750   -6.3880   16.8720 O.2    53  ASN53      -0.2716
      8  ND2       26.1910   -7.6350   14.9910 N.am   53  ASN53      -0.0877
      9  N         22.6310   -1.0550   12.0250 N.3   128  TYR128     -0.1241
     10  CA        24.0620   -0.7590   11.8500 C.3   128  TYR128      0.1605
     11  C         24.4180    0.1710   10.6880 C.2   128  TYR128      0.2264
     12  O         25.0370    1.2360   10.8680 O.2   128  TYR128     -0.2867
     13  CB        24.8420   -2.0600   11.6560 C.3   128  TYR128      0.0534
     14  CG        24.6250   -3.0670   12.7610 C.ar  128  TYR128     -0.0201
     15  CD1       24.0310   -4.3040   12.4970 C.ar  128  TYR128     -0.0009
     16  CD2       24.9940   -2.7700   14.0670 C.ar  128  TYR128     -0.0009
     17  CE1       23.8130   -5.2250   13.5120 C.ar  128  TYR128      0.0417
     18  CE2       24.7830   -3.6750   15.0900 C.ar  128  TYR128      0.0417
     19  CZ        24.1880   -4.8970   14.8070 C.ar  128  TYR128      0.1957
     20  OH        23.9820   -5.7860   15.8270 O.3   128  TYR128     -0.2866
     21  N         26.8240  -14.7910   18.0650 N.3   220  PHE220     -0.1241
     22  CA        25.8900  -15.5430   17.2290 C.3   220  PHE220      0.1605
     23  C         25.9920  -17.0440   17.4250 C.2   220  PHE220      0.2264
     24  O         25.1360  -17.7870   16.9260 O.2   220  PHE220     -0.2867
     25  CB        26.0890  -15.2000   15.7440 C.3   220  PHE220      0.0534
     26  CG        25.5580  -13.8500   15.3660 C.ar  220  PHE220     -0.0203
     27  CD1       24.3280  -13.7260   14.7350 C.ar  220  PHE220     -0.0042
     28  CD2       26.2820  -12.6930   15.6630 C.ar  220  PHE220     -0.0042
     29  CE1       23.8290  -12.4690   14.3880 C.ar  220  PHE220     -0.0003
     30  CE2       25.7960  -11.4310   15.3280 C.ar  220  PHE220     -0.0003
     31  CZ        24.5700  -11.3160   14.6800 C.ar  220  PHE220     -0.0000
     32  N         20.0450  -14.3070    4.4990 N.3   252  ASN252     -0.1240
     33  CA        20.5980  -14.0960    5.8260 C.3   252  ASN252      0.1653
     34  C         19.7370  -14.8250    6.8800 C.2   252  ASN252      0.2266
     35  O         18.5140  -14.8410    6.7710 O.2   252  ASN252     -0.2867
     36  CB        20.6610  -12.6010    6.1310 C.3   252  ASN252      0.1155
     37  CG        21.0310  -12.3140    7.5620 C.2   252  ASN252      0.2627
     38  OD1       20.1990  -11.8610    8.3530 O.2   252  ASN252     -0.2716
     39  ND2       22.2850  -12.5700    7.9090 N.am  252  ASN252     -0.0877
     40  N         18.8100  -14.5020   10.8070 N.3   254  GLY254     -0.1225
     41  CA        18.9360  -13.6970   12.0050 C.3   254  GLY254      0.1811
     42  C         19.3900  -14.5730   13.1660 C.2   254  GLY254      0.2280
     43  O         19.2430  -15.7940   13.1340 O.2   254  GLY254     -0.2866
     44  N         27.3760  -14.2990    9.6510 N.3   286  ASN286     -0.1240
     45  CA        28.5250  -14.5210   10.5130 C.3   286  ASN286      0.1653
     46  C         28.9180  -15.9850   10.3840 C.2   286  ASN286      0.2266
     47  O         28.1030  -16.7970    9.9550 O.2   286  ASN286     -0.2867
     48  CB        28.2150  -14.1630   11.9610 C.3   286  ASN286      0.1155
     49  CG        28.1960  -12.6700   12.1960 C.2   286  ASN286      0.2627
     50  OD1       29.2390  -12.0090   12.1520 O.2   286  ASN286     -0.2716
     51  ND2       27.0100  -12.1260   12.4640 N.am  286  ASN286     -0.0877
     52  N         29.6950  -10.6570    8.2470 N.3   306  PHE306     -0.1241
     53  CA        29.6530   -9.4370    9.0530 C.3   306  PHE306      0.1605
     54  C         30.8740   -9.3400    9.9780 C.2   306  PHE306      0.2264
     55  O         31.5580   -8.3170   10.0250 O.2   306  PHE306     -0.2867
     56  CB        28.3740   -9.3870    9.8980 C.3   306  PHE306      0.0534
     57  CG        27.1200   -9.5640    9.1080 C.ar  306  PHE306     -0.0203
     58  CD1       26.5770   -8.5050    8.4060 C.ar  306  PHE306     -0.0042
     59  CD2       26.4770  -10.7970    9.0620 C.ar  306  PHE306     -0.0042
     60  CE1       25.4170   -8.6690    7.6650 C.ar  306  PHE306     -0.0003
     61  CE2       25.3210  -10.9640    8.3220 C.ar  306  PHE306     -0.0003
     62  CZ        24.7950   -9.9000    7.6220 C.ar  306  PHE306     -0.0000
     63  N         31.3690   -5.6100    8.3200 N.3   335  ARG335     -0.1245
     64  CA        29.9680   -5.4830    8.7080 C.3   335  ARG335      0.1563
     65  C         29.1900   -4.5870    7.7190 C.2   335  ARG335      0.2260
     66  O         28.0970   -4.9510    7.2750 O.2   335  ARG335     -0.2867
     67  CB        29.8550   -4.9610   10.1520 C.3   335  ARG335      0.0307
     68  CG        28.4060   -4.9380   10.6920 C.3   335  ARG335      0.0489
     69  CD        28.3130   -5.2300   12.1960 C.3   335  ARG335      0.2205
     70  NE        28.3550   -6.6670   12.4830 N.pl3 335  ARG335     -0.0865
     71  CZ        29.2870   -7.2810   13.2160 C.cat 335  ARG335      0.5346
     72  NH1       30.2890   -6.5960   13.7690 N.pl3 335  ARG335      0.1354
     73  NH2       29.2210   -8.5950   13.3950 N.pl3 335  ARG335      0.1354
     74  N         26.2700   -6.1450    5.4400 N.3   339  GLN339     -0.1245
     75  CA        24.9330   -5.6070    5.6860 C.3   339  GLN339      0.1566
     76  C         24.3020   -5.0910    4.3870 C.2   339  GLN339      0.2260
     77  O         23.1040   -5.2830    4.1440 O.2   339  GLN339     -0.2867
     78  CB        24.9680   -4.4730    6.7250 C.3   339  GLN339      0.0367
     79  CG        25.0390   -4.9230    8.1810 C.3   339  GLN339      0.0905
     80  CD        23.7470   -5.5620    8.6700 C.2   339  GLN339      0.2608
     81  OE1       22.6720   -5.2950    8.1360 O.2   339  GLN339     -0.2717
     82  NE2       23.8500   -6.4100    9.6950 N.am  339  GLN339     -0.0878
     83  N         15.4170  -12.8030    4.2110 N.3   349  PHE349     -0.1241
     84  CA        15.8140  -12.6750    5.5970 C.3   349  PHE349      0.1605
     85  C         14.8430  -13.4990    6.4210 C.2   349  PHE349      0.2264
     86  O         13.6520  -13.5110    6.1370 O.2   349  PHE349     -0.2867
     87  CB        15.8000  -11.2250    6.0840 C.3   349  PHE349      0.0534
     88  CG        15.8720  -11.1010    7.5790 C.ar  349  PHE349     -0.0203
     89  CD1       17.0780  -11.2490    8.2430 C.ar  349  PHE349     -0.0042
     90  CD2       14.7250  -10.8780    8.3310 C.ar  349  PHE349     -0.0042
     91  CE1       17.1510  -11.1420    9.6260 C.ar  349  PHE349     -0.0003
     92  CE2       14.7870  -10.7800    9.7270 C.ar  349  PHE349     -0.0003
     93  CZ        15.9960  -10.9090   10.3700 C.ar  349  PHE349     -0.0000
     94  N         20.7040   -5.6780   13.2740 N.3   375  GLY375     -0.1210
     95  CA        20.6930   -5.7450   11.8240 C.3   375  GLY375      0.1956
     96  C         19.3180   -5.9560   11.2020 C.2   375  GLY375      0.2611
     97  O         19.1430   -5.7830    9.9960 O.2   375  GLY375     -0.2717
     98  N         18.3410   -6.3100   12.0260 N.am  376  ALA376     -0.1979
     99  CA        17.0520   -6.7830   11.5260 C.3   376  ALA376      0.1597
    100  C         16.2640   -5.7620   10.6860 C.2   376  ALA376      0.2287
    101  O         15.6260   -6.1660    9.7170 O.2   376  ALA376     -0.2864
    102  CB        16.1900   -7.2790   12.6920 C.3   376  ALA376      0.0319
    103  N         17.7810   -5.8160    7.0960 N.3   379  MET379     -0.1245
    104  CA        17.5520   -7.0070    6.2980 C.3   379  MET379      0.1570
    105  C         16.1050   -7.4410    6.2780 C.2   379  MET379      0.2261
    106  O         15.6610   -8.0750    5.3220 O.2   379  MET379     -0.2867
    107  CB        18.4580   -8.1160    6.7880 C.3   379  MET379      0.0387
    108  CG        19.8100   -7.9070    6.1490 C.3   379  MET379      0.0595
    109  SD        21.1050   -8.8310    6.8560 S.3   379  MET379     -0.1393
    110  CE        20.9780   -8.3180    8.5770 C.3   379  MET379      0.0692
@<TRIPOS>BOND
     1    77    76    2
     2    83    84    1
     3    76    75    1
     4    32    33    1
     5   106   105    2
     6    74    75    1
     7    84    87    1
     8    84    85    1
     9    75    78    1
    10    33    36    1
    11    33    34    1
    12    87    88    1
    13    36    37    1
    14    86    85    2
    15   108   107    1
    16   108   109    1
    17   105   104    1
    18   104   107    1
    19   104   103    1
    20    78    79    1
    21    35    34    2
    22   109   110    1
    23    66    65    2
    24    37    39   am
    25    37    38    2
    26    88    89   ar
    27    88    90   ar
    28    62    60   ar
    29    62    61   ar
    30    60    58   ar
    31    65    64    1
    32    81    80    2
    33    79    80    1
    34    89    91   ar
    35    52    53    1
    36    63    64    1
    37    61    59   ar
    38    90    92   ar
    39    58    57   ar
    40    80    82   am
    41    64    67    1
    42    53    56    1
    43    53    54    1
    44    59    57   ar
    45    57    56    1
    46    91    93   ar
    47    44    45    1
    48   101   100    2
    49    92    93   ar
    50    47    46    2
    51    54    55    2
    52    97    96    2
    53    67    68    1
    54    46    45    1
    55    45    48    1
    56   100    99    1
    57    11    12    2
    58    11    10    1
    59    68    69    1
    60    40    41    1
    61    96    95    1
    62    96    98   am
    63    99    98    1
    64    99   102    1
    65    13    10    1
    66    13    14    1
    67    95    94    1
    68    10     9    1
    69    48    49    1
    70    41    42    1
    71    50    49    2
    72    69    70    1
    73    49    51   am
    74    70    71    2
    75    15    14   ar
    76    15    17   ar
    77    14    16   ar
    78    43    42    2
    79    71    73    1
    80    71    72    1
    81    17    19   ar
    82    16    18   ar
    83    29    31   ar
    84    29    27   ar
    85    31    30   ar
    86    27    26   ar
    87    19    18   ar
    88    19    20    1
    89     8     6   am
    90    30    28   ar
    91    26    28   ar
    92    26    25    1
    93    25    22    1
    94     6     5    1
    95     6     7    2
    96     5     2    1
    97    24    23    2
    98    22    23    1
    99    22    21    1
   100     1     2    1
   101     2     3    1
   102     3     4    2
