@<TRIPOS>MOLECULE
tmp/5viuA01.pdb
 95 87 0 0 0
SMALL
GASTEIGER

@<TRIPOS>ATOM
      1  N         14.0920   -5.8490   22.8090 N.3   106  GLY106     -0.1210
      2  CA        14.3210   -4.8470   23.8360 C.3   106  GLY106      0.1956
      3  C         15.7420   -4.8890   24.3670 C.2   106  GLY106      0.2611
      4  O         16.3800   -3.8480   24.5460 O.2   106  GLY106     -0.2717
      5  N         16.2710   -6.0980   24.5810 N.am  107  ALA107     -0.1979
      6  CA        17.6320   -6.2210   25.0940 C.3   107  ALA107      0.1597
      7  C         18.6390   -5.6210   24.1240 C.2   107  ALA107      0.2287
      8  O         19.5850   -4.9460   24.5440 O.2   107  ALA107     -0.2864
      9  CB        17.9690   -7.6850   25.3660 C.3   107  ALA107      0.0319
     10  N         18.5710   -1.8310   24.5460 N.3   110  VAL110     -0.1245
     11  CA        19.2370   -1.3820   25.7690 C.3   110  VAL110      0.1561
     12  C         20.7510   -1.5200   25.6340 C.2   110  VAL110      0.2260
     13  O         21.5080   -0.6100   26.0010 O.2   110  VAL110     -0.2867
     14  CB        18.7100   -2.1630   26.9860 C.3   110  VAL110      0.0252
     15  CG1       19.4570   -1.7310   28.2470 C.3   110  VAL110      0.0019
     16  CG2       17.2130   -1.9560   27.1500 C.3   110  VAL110      0.0019
     17  N         18.7880   -1.3160   38.3430 N.3   138  GLU138     -0.1231
     18  CA        18.3660   -2.7080   38.3180 C.3   138  GLU138      0.1699
     19  C         19.3480   -3.4600   37.4280 C.2   138  GLU138      0.2592
     20  O         20.2830   -2.8750   36.8770 O.2   138  GLU138     -0.2718
     21  CB        16.9230   -2.8410   37.8140 C.3   138  GLU138      0.0402
     22  CG        16.7270   -2.1950   36.4500 C.3   138  GLU138      0.1161
     23  CD        15.2790   -2.1560   35.9750 C.2   138  GLU138      0.3649
     24  OE1       14.4020   -2.8050   36.5920 O.co2 138  GLU138     -0.2457
     25  OE2       15.0260   -1.4660   34.9640 O.co2 138  GLU138     -0.2457
     26  N         19.1270   -4.7660   37.2800 N.am  139  ASN139     -0.1960
     27  CA        20.0200   -5.6180   36.4920 C.3   139  ASN139      0.1819
     28  C         19.5630   -5.6160   35.0320 C.2   139  ASN139      0.2621
     29  O         19.1140   -6.6210   34.4810 O.2   139  ASN139     -0.2715
     30  CB        20.0510   -7.0260   37.0760 C.3   139  ASN139      0.1195
     31  CG        21.1790   -7.8770   36.5130 C.2   139  ASN139      0.2630
     32  OD1       22.0730   -7.3790   35.8280 O.2   139  ASN139     -0.2716
     33  ND2       21.1440   -9.1710   36.8120 N.am  139  ASN139     -0.0877
     34  N         19.6930   -4.4430   34.3990 N.am  140  ASN140     -0.1972
     35  CA        19.2380   -4.2950   33.0170 C.3   140  ASN140      0.1688
     36  C         19.9420   -5.2560   32.0610 C.2   140  ASN140      0.2292
     37  O         19.3940   -5.5590   30.9940 O.2   140  ASN140     -0.2864
     38  CB        19.4330   -2.8490   32.5320 C.3   140  ASN140      0.1181
     39  CG        18.5210   -1.8490   33.2510 C.2   140  ASN140      0.2629
     40  OD1       17.3520   -1.6770   32.8930 O.2   140  ASN140     -0.2716
     41  ND2       19.0620   -1.1800   34.2600 N.am  140  ASN140     -0.0877
     42  N         21.1120   -8.5000   32.8160 N.3   142  HIS142     -0.1241
     43  CA        21.1300   -9.8610   33.3360 C.3   142  HIS142      0.1621
     44  C         21.5140  -10.8600   32.2500 C.2   142  HIS142      0.2264
     45  O         21.0030  -10.8060   31.1290 O.2   142  HIS142     -0.2867
     46  CB        19.7490  -10.2010   33.9000 C.3   142  HIS142      0.0745
     47  CG        18.6270   -9.8740   32.9650 C.ar  142  HIS142      0.0817
     48  ND1       18.1400  -10.7730   32.0400 N.ar  142  HIS142     -0.2268
     49  CD2       17.9090   -8.7380   32.7980 C.ar  142  HIS142      0.1154
     50  CE1       17.1640  -10.2080   31.3520 C.ar  142  HIS142      0.1986
     51  NE2       17.0060   -8.9720   31.7900 N.ar  142  HIS142     -0.2212
     52  N         24.3710  -11.1890   30.6410 N.3   144  ARG144     -0.1245
     53  CA        25.3940  -10.7520   29.6970 C.3   144  ARG144      0.1563
     54  C         26.5420  -10.0150   30.3780 C.2   144  ARG144      0.2260
     55  O         27.2400   -9.2310   29.7270 O.2   144  ARG144     -0.2867
     56  CB        24.7720   -9.8690   28.6130 C.3   144  ARG144      0.0307
     57  CG        23.9480  -10.6270   27.5820 C.3   144  ARG144      0.0489
     58  CD        22.7780   -9.7870   27.1140 C.3   144  ARG144      0.2205
     59  NE        21.7810   -9.6300   28.1690 N.pl3 144  ARG144     -0.0865
     60  CZ        20.9270   -8.6130   28.2490 C.cat 144  ARG144      0.5346
     61  NH1       20.0510   -8.5570   29.2450 N.pl3 144  ARG144      0.1354
     62  NH2       20.9570   -7.6470   27.3410 N.pl3 144  ARG144      0.1354
     63  N         14.5040    3.3040   33.9540 N.3   189  GLU189     -0.1245
     64  CA        13.1170    3.1800   33.5040 C.3   189  GLU189      0.1567
     65  C         12.2360    4.1820   34.2440 C.2   189  GLU189      0.2260
     66  O         12.3510    4.3130   35.4720 O.2   189  GLU189     -0.2867
     67  CB        12.5760    1.7770   33.7780 C.3   189  GLU189      0.0388
     68  CG        13.1770    0.6560   32.9480 C.3   189  GLU189      0.1160
     69  CD        12.3500   -0.6100   33.0880 C.2   189  GLU189      0.3649
     70  OE1       11.3980   -0.8120   32.2980 O.co2 189  GLU189     -0.2457
     71  OE2       12.6150   -1.3780   34.0300 O.co2 189  GLU189     -0.2457
     72  N         10.0270   -4.8530   36.3070 N.3   194  GLU194     -0.1245
     73  CA        10.6090   -6.1910   36.3760 C.3   194  GLU194      0.1567
     74  C         10.0330   -6.9890   37.5390 C.2   194  GLU194      0.2260
     75  O          9.6870   -8.1670   37.3860 O.2   194  GLU194     -0.2867
     76  CB        12.1290   -6.0900   36.4940 C.3   194  GLU194      0.0388
     77  CG        12.9100   -7.2760   36.0780 C.3   194  GLU194      0.1160
     78  CD        14.4300   -7.0690   36.2520 C.2   194  GLU194      0.3649
     79  OE1       14.8190   -5.9520   36.6910 O.co2 194  GLU194     -0.2457
     80  OE2       15.2140   -8.0280   35.9720 O.co2 194  GLU194     -0.2457
     81  N         14.8820    4.3210   29.5240 N.3   222  ASP222     -0.1239
     82  CA        14.5270    2.9920   29.0430 C.3   222  ASP222      0.1674
     83  C         13.0080    2.9020   29.0750 C.2   222  ASP222      0.2266
     84  O         12.4120    2.6890   30.1360 O.2   222  ASP222     -0.2867
     85  CB        15.1840    1.9270   29.9140 C.3   222  ASP222      0.1410
     86  CG        14.7930    0.5200   29.5170 C.2   222  ASP222      0.3668
     87  OD1       13.9510    0.3320   28.6050 O.co2 222  ASP222     -0.2456
     88  OD2       15.3420   -0.4210   30.1290 O.co2 222  ASP222     -0.2456
     89  N         11.1970    0.7560   27.0320 N.3   224  VAL224     -0.1245
     90  CA        10.7650   -0.4620   26.3540 C.3   224  VAL224      0.1561
     91  C          9.3900   -0.8910   26.8500 C.2   224  VAL224      0.2260
     92  O          8.5170   -1.2550   26.0520 O.2   224  VAL224     -0.2867
     93  CB        11.8150   -1.5690   26.5340 C.3   224  VAL224      0.0252
     94  CG1       11.2780   -2.9000   26.0130 C.3   224  VAL224      0.0019
     95  CG2       13.1150   -1.1720   25.7980 C.3   224  VAL224      0.0019
@<TRIPOS>BOND
     1     1     2    1
     2     2     3    1
     3     7     8    2
     4     7     6    1
     5     3     4    2
     6     3     5   am
     7    10    11    1
     8     5     6    1
     9     6     9    1
    10    12    11    1
    11    12    13    2
    12    11    14    1
    13    95    93    1
    14    94    93    1
    15    92    91    2
    16    90    93    1
    17    90    91    1
    18    90    89    1
    19    14    16    1
    20    14    15    1
    21    58    57    1
    22    58    59    1
    23    62    60    1
    24    57    56    1
    25    59    60    2
    26    60    61    1
    27    87    86   ar
    28    56    53    1
    29    82    83    1
    30    82    81    1
    31    82    85    1
    32    83    84    2
    33    86    85    1
    34    86    88   ar
    35    53    54    1
    36    53    52    1
    37    55    54    2
    38    37    36    2
    39    45    44    2
    40    50    51   ar
    41    50    48   ar
    42    51    49   ar
    43    48    47   ar
    44    36    35    1
    45    44    43    1
    46    70    69   ar
    47    38    35    1
    48    38    39    1
    49    49    47   ar
    50    42    43    1
    51    40    39    2
    52    68    69    1
    53    68    67    1
    54    47    46    1
    55    35    34    1
    56    69    71   ar
    57    39    41   am
    58    43    46    1
    59    64    67    1
    60    64    63    1
    61    64    65    1
    62    65    66    2
    63    34    28   am
    64    29    28    2
    65    25    23   ar
    66    28    27    1
    67    32    31    2
    68    80    78   ar
    69    23    22    1
    70    23    24   ar
    71    77    78    1
    72    77    76    1
    73    78    79   ar
    74    72    73    1
    75    73    76    1
    76    73    74    1
    77    22    21    1
    78    27    30    1
    79    27    26    1
    80    31    33   am
    81    31    30    1
    82    20    19    2
    83    26    19   am
    84    75    74    2
    85    19    18    1
    86    21    18    1
    87    18    17    1
