@<TRIPOS>MOLECULE
tmp/5vj1G00.pdb
 161 153 0 0 0
SMALL
GASTEIGER

@<TRIPOS>ATOM
      1  N         14.0000  -70.2770   45.2370 N.3    77  ALA77      -0.1245
      2  CA        13.1040  -71.4350   45.3130 C.3    77  ALA77       0.1562
      3  C         12.4760  -71.8000   43.9590 C.2    77  ALA77       0.2260
      4  O         12.3700  -72.9810   43.6140 O.2    77  ALA77      -0.2867
      5  CB        12.0220  -71.1980   46.3410 C.3    77  ALA77       0.0290
      6  N         12.3890  -72.4930   40.3040 N.3    79  GLN79      -0.1231
      7  CA        13.2300  -72.9490   39.2090 C.3    79  GLN79       0.1698
      8  C         14.6910  -72.6320   39.4450 C.2    79  GLN79       0.2592
      9  O         15.3850  -72.2160   38.5230 O.2    79  GLN79      -0.2718
     10  CB        12.7590  -72.3180   37.8970 C.3    79  GLN79       0.0381
     11  CG        11.3000  -72.6130   37.5730 C.3    79  GLN79       0.0905
     12  CD        11.0770  -74.0160   37.0390 C.2    79  GLN79       0.2608
     13  OE1       11.5840  -75.0050   37.5730 O.2    79  GLN79      -0.2717
     14  NE2       10.2780  -74.1080   35.9900 N.am   79  GLN79      -0.0878
     15  N         15.1510  -72.7880   40.6860 N.am   80  GLY80      -0.1957
     16  CA        16.5450  -72.5220   41.0210 C.3    80  GLY80       0.1869
     17  C         17.0170  -71.0830   40.8380 C.2    80  GLY80       0.2309
     18  O         18.2090  -70.7960   40.8640 O.2    80  GLY80      -0.2863
     19  N         16.4640  -69.5540   38.0820 N.3    82  SER82      -0.1217
     20  CA        16.7040  -69.4510   36.6460 C.3    82  SER82       0.1889
     21  C         15.9680  -68.2980   36.0180 C.2    82  SER82       0.2288
     22  O         14.7710  -68.1100   36.2560 O.2    82  SER82      -0.2866
     23  CB        16.2740  -70.7230   35.9450 C.3    82  SER82       0.2089
     24  OG        17.0170  -71.8210   36.4020 O.3    82  SER82      -0.2183
     25  N         20.5640  -69.8420   38.8640 N.3   117  GLY117     -0.1225
     26  CA        21.2450  -70.9650   38.2510 C.3   117  GLY117      0.1811
     27  C         21.5620  -70.6330   36.8010 C.2   117  GLY117      0.2280
     28  O         21.9630  -71.4990   36.0150 O.2   117  GLY117     -0.2866
     29  N         20.7020  -69.1730   32.9880 N.3   119  VAL119     -0.1231
     30  CA        19.5710  -69.2820   32.0810 C.3   119  VAL119      0.1692
     31  C         18.6030  -70.4260   32.4540 C.2   119  VAL119      0.2592
     32  O         19.0150  -71.5660   32.7100 O.2   119  VAL119     -0.2718
     33  CB        20.0510  -69.5080   30.6390 C.3   119  VAL119      0.0266
     34  CG1       18.8500  -69.5930   29.6960 C.3   119  VAL119      0.0020
     35  CG2       20.9910  -68.3990   30.2020 C.3   119  VAL119      0.0020
     36  N         17.3100  -70.1170   32.4430 N.am  120  ARG120     -0.1966
     37  CA        16.2800  -71.1360   32.5870 C.3   120  ARG120      0.1729
     38  C         16.2010  -72.0160   31.3470 C.2   120  ARG120      0.2616
     39  O         15.7180  -71.5890   30.2980 O.2   120  ARG120     -0.2715
     40  CB        14.9300  -70.4860   32.8440 C.3   120  ARG120      0.0348
     41  CG        13.8230  -71.4630   33.1510 C.3   120  ARG120      0.0492
     42  CD        12.5100  -70.7250   33.4040 C.3   120  ARG120      0.2205
     43  NE        12.5970  -69.7620   34.5050 N.pl3 120  ARG120     -0.0865
     44  CZ        11.6840  -68.8290   34.7470 C.cat 120  ARG120      0.5346
     45  NH1       10.6330  -68.7240   33.9620 N.pl3 120  ARG120      0.1354
     46  NH2       11.8140  -67.9930   35.7670 N.pl3 120  ARG120      0.1354
     47  N         16.7120  -73.2370   31.4520 N.am  121  LEU121     -0.1963
     48  CA        16.7870  -74.1510   30.3090 C.3   121  LEU121      0.1728
     49  C         15.4330  -74.4410   29.5940 C.2   121  LEU121      0.2616
     50  O         15.4110  -74.9330   28.4610 O.2   121  LEU121     -0.2715
     51  CB        17.4190  -75.4570   30.7830 C.3   121  LEU121      0.0311
     52  CG        18.7930  -75.2560   31.4120 C.3   121  LEU121      0.0022
     53  CD1       19.1800  -76.5110   32.1700 C.3   121  LEU121      0.0001
     54  CD2       19.8340  -74.9140   30.3690 C.3   121  LEU121      0.0001
     55  N         14.3200  -74.1240   30.2520 N.am  122  GLN122     -0.1977
     56  CA        12.9780  -74.3650   29.7090 C.3   122  GLN122      0.1601
     57  C         12.5370  -73.1800   28.8790 C.2   122  GLN122      0.2287
     58  O         11.4480  -73.1720   28.3050 O.2   122  GLN122     -0.2864
     59  CB        11.9640  -74.5970   30.8400 C.3   122  GLN122      0.0394
     60  CG        12.1620  -75.8890   31.6340 C.3   122  GLN122      0.0908
     61  CD        13.0670  -75.6890   32.8430 C.2   122  GLN122      0.2608
     62  OE1       13.7040  -74.6420   32.9780 O.2   122  GLN122     -0.2717
     63  NE2       13.1340  -76.6900   33.7190 N.am  122  GLN122     -0.0878
     64  N         18.7060  -66.5040   27.7900 N.3   128  LEU128     -0.1245
     65  CA        20.0840  -66.1960   27.4350 C.3   128  LEU128      0.1561
     66  C         20.1490  -64.8780   26.6660 C.2   128  LEU128      0.2260
     67  O         21.1070  -64.1340   26.7920 O.2   128  LEU128     -0.2867
     68  CB        20.6950  -67.3370   26.6120 C.3   128  LEU128      0.0270
     69  CG        22.0170  -67.0120   25.9200 C.3   128  LEU128      0.0019
     70  CD1       23.1130  -66.9000   26.9410 C.3   128  LEU128      0.0001
     71  CD2       22.3500  -68.0940   24.9340 C.3   128  LEU128      0.0001
     72  N         21.3580  -69.6560   49.3880 N.3   154  PRO154     -0.2102
     73  CA        22.0600  -70.9460   49.2180 C.3   154  PRO154      0.1504
     74  C         22.4850  -71.3110   47.7900 C.2   154  PRO154      0.2575
     75  O         23.6600  -71.6700   47.5700 O.2   154  PRO154     -0.2718
     76  CB        21.0320  -71.9560   49.7240 C.3   154  PRO154      0.0282
     77  CG        19.7320  -71.2980   49.4540 C.3   154  PRO154      0.0208
     78  CD        19.9540  -69.8620   49.7890 C.3   154  PRO154      0.0893
     79  N         21.5410  -71.2310   46.8520 N.am  155  VAL155     -0.1980
     80  CA        21.7820  -71.5670   45.4540 C.3   155  VAL155      0.1595
     81  C         23.0670  -70.9630   44.9080 C.2   155  VAL155      0.2287
     82  O         23.8360  -71.6450   44.2390 O.2   155  VAL155     -0.2864
     83  CB        20.6260  -71.1110   44.5660 C.3   155  VAL155      0.0276
     84  CG1       20.9780  -71.3330   43.1110 C.3   155  VAL155      0.0022
     85  CG2       19.3700  -71.8450   44.9330 C.3   155  VAL155      0.0022
     86  N         25.2680  -68.6900   39.2250 N.3   158  PHE158     -0.1227
     87  CA        25.9370  -69.4490   38.1910 C.3   158  PHE158      0.1736
     88  C         25.5370  -69.0020   36.8070 C.2   158  PHE158      0.2596
     89  O         24.6660  -68.1310   36.6530 O.2   158  PHE158     -0.2718
     90  CB        25.6510  -70.9360   38.3440 C.3   158  PHE158      0.0547
     91  CG        26.2420  -71.5440   39.5820 C.ar  158  PHE158     -0.0202
     92  CD1       27.3810  -72.3450   39.4970 C.ar  158  PHE158     -0.0042
     93  CD2       25.6810  -71.3150   40.8270 C.ar  158  PHE158     -0.0042
     94  CE1       27.9350  -72.9230   40.6200 C.ar  158  PHE158     -0.0003
     95  CE2       26.2330  -71.8810   41.9550 C.ar  158  PHE158     -0.0003
     96  CZ        27.3610  -72.6900   41.8540 C.ar  158  PHE158     -0.0000
     97  N         26.2020  -69.5870   35.8060 N.am  159  GLY159     -0.1942
     98  CA        25.8260  -69.4020   34.4190 C.3   159  GLY159      0.2014
     99  C         26.0070  -67.9810   33.9700 C.2   159  GLY159      0.2639
    100  O         26.9070  -67.2970   34.4480 O.2   159  GLY159     -0.2714
    101  N         25.1340  -67.5420   33.0640 N.am  160  GLY160     -0.1954
    102  CA        25.1960  -66.2030   32.5050 C.3   160  GLY160      0.1869
    103  C         25.1660  -65.0830   33.5290 C.2   160  GLY160      0.2309
    104  O         25.7480  -64.0200   33.3070 O.2   160  GLY160     -0.2863
    105  N         28.1210  -69.4110   46.4040 N.3   178  ARG178     -0.1245
    106  CA        29.1140  -69.8560   45.4320 C.3   178  ARG178      0.1563
    107  C         29.0200  -68.9130   44.2710 C.2   178  ARG178      0.2260
    108  O         28.0000  -68.2470   44.1210 O.2   178  ARG178     -0.2867
    109  CB        28.8750  -71.2900   44.9680 C.3   178  ARG178      0.0307
    110  CG        28.6490  -72.2620   46.0950 C.3   178  ARG178      0.0489
    111  CD        27.2060  -72.7020   46.0910 C.3   178  ARG178      0.2205
    112  NE        27.1050  -74.1050   45.7030 N.pl3 178  ARG178     -0.0865
    113  CZ        25.9730  -74.6940   45.3440 C.cat 178  ARG178      0.5346
    114  NH1       24.8450  -73.9910   45.3030 N.pl3 178  ARG178      0.1354
    115  NH2       25.9720  -75.9810   45.0150 N.pl3 178  ARG178      0.1354
    116  N         29.9470  -72.4250   35.3850 N.3   182  ASN182     -0.1225
    117  CA        29.2120  -73.6850   35.2830 C.3   182  ASN182      0.1785
    118  C         28.9860  -74.4050   36.6080 C.2   182  ASN182      0.2598
    119  O         29.9090  -74.5730   37.4110 O.2   182  ASN182     -0.2718
    120  CB        29.9570  -74.6430   34.3770 C.3   182  ASN182      0.1169
    121  CG        30.0630  -74.1440   32.9940 C.2   182  ASN182      0.2627
    122  OD1       31.1380  -74.2000   32.4020 O.2   182  ASN182     -0.2716
    123  ND2       28.9440  -73.6750   32.4380 N.am  182  ASN182     -0.0877
    124  N         27.7600  -74.8590   36.8210 N.am  183  GLY183     -0.1943
    125  CA        27.4330  -75.5790   38.0310 C.3   183  GLY183      0.1998
    126  C         28.1840  -76.8890   38.0830 C.2   183  GLY183      0.2481
    127  O         28.5590  -77.4170   37.0360 O.2   183  GLY183     -0.2729
    128  N         28.4440  -77.3930   39.3020 N.am  184  PRO184     -0.2715
    129  CA        29.2370  -78.6030   39.5410 C.3   184  PRO184      0.1536
    130  C         28.7800  -79.7990   38.6980 C.2   184  PRO184      0.2598
    131  O         29.6230  -80.4860   38.1160 O.2   184  PRO184     -0.2715
    132  CB        29.0120  -78.8660   41.0310 C.3   184  PRO184      0.0310
    133  CG        28.7960  -77.5130   41.5930 C.3   184  PRO184      0.0237
    134  CD        27.9360  -76.8310   40.5680 C.3   184  PRO184      0.0939
    135  N         27.4750  -80.0440   38.6200 N.am  185  GLN185     -0.1964
    136  CA        27.0090  -81.1720   37.8120 C.3   185  GLN185      0.1733
    137  C         27.3600  -81.0070   36.3220 C.2   185  GLN185      0.2616
    138  O         27.8780  -81.9460   35.7140 O.2   185  GLN185     -0.2715
    139  CB        25.5130  -81.3760   37.9750 C.3   185  GLN185      0.0408
    140  CG        25.0860  -81.4400   39.4130 C.3   185  GLN185      0.0908
    141  CD        23.7240  -82.0780   39.6010 C.2   185  GLN185      0.2608
    142  OE1       23.1710  -82.6800   38.6800 O.2   185  GLN185     -0.2717
    143  NE2       23.1710  -81.9400   40.8040 N.am  185  GLN185     -0.0878
    144  N         27.0870  -79.8320   35.7420 N.am  186  VAL186     -0.1977
    145  CA        27.3660  -79.5930   34.3200 C.3   186  VAL186      0.1596
    146  C         28.8310  -79.8800   33.9310 C.2   186  VAL186      0.2287
    147  O         29.1220  -80.3890   32.8380 O.2   186  VAL186     -0.2864
    148  CB        27.0340  -78.1420   33.9060 C.3   186  VAL186      0.0276
    149  CG1       27.1730  -77.9770   32.3890 C.3   186  VAL186      0.0022
    150  CG2       25.6400  -77.7590   34.3620 C.3   186  VAL186      0.0022
    151  N         30.8440  -81.5390   48.1840 N.3   201  ARG201     -0.1245
    152  CA        30.4760  -80.1590   48.5420 C.3   201  ARG201      0.1563
    153  C         31.6080  -79.2840   49.0830 C.2   201  ARG201      0.2260
    154  O         31.7130  -78.1280   48.6950 O.2   201  ARG201     -0.2867
    155  CB        29.3360  -80.1610   49.5470 C.3   201  ARG201      0.0307
    156  CG        28.0780  -80.7100   48.9770 C.3   201  ARG201      0.0489
    157  CD        27.0000  -80.7570   50.0100 C.3   201  ARG201      0.2205
    158  NE        26.5960  -79.4390   50.4740 N.pl3 201  ARG201     -0.0865
    159  CZ        25.7360  -78.6460   49.8430 C.cat 201  ARG201      0.5346
    160  NH1       25.1640  -79.0350   48.7110 N.pl3 201  ARG201      0.1354
    161  NH2       25.4320  -77.4650   50.3620 N.pl3 201  ARG201      0.1354
@<TRIPOS>BOND
     1    71    69    1
     2    69    68    1
     3    69    70    1
     4    68    65    1
     5    66    67    2
     6    66    65    1
     7    65    64    1
     8    58    57    2
     9    50    49    2
    10    57    56    1
    11    49    55   am
    12    49    48    1
    13    34    33    1
    14    56    55    1
    15    56    59    1
    16    35    33    1
    17    39    38    2
    18    48    51    1
    19    48    47    1
    20    54    52    1
    21    33    30    1
    22    51    52    1
    23    59    60    1
    24    38    47   am
    25    38    37    1
    26    52    53    1
    27    60    61    1
    28    30    31    1
    29    30    29    1
    30   149   148    1
    31   122   121    2
    32   123   121   am
    33    36    31   am
    34    36    37    1
    35    31    32    2
    36   102   101    1
    37   102   103    1
    38    37    40    1
    39   147   146    2
    40    61    62    2
    41    61    63   am
    42    40    41    1
    43   121   120    1
    44   101    99   am
    45    41    42    1
    46   104   103    2
    47    42    43    1
    48   148   145    1
    49   148   150    1
    50   146   145    1
    51    45    44    1
    52    99    98    1
    53    99   100    2
    54   145   144    1
    55   120   117    1
    56    98    97    1
    57    43    44    2
    58    44    46    1
    59   117   116    1
    60   117   118    1
    61   138   137    2
    62   144   137   am
    63    97    88   am
    64    23    24    1
    65    23    20    1
    66    14    12   am
    67    28    27    2
    68    21    22    2
    69    21    20    1
    70   137   136    1
    71   118   124   am
    72   118   119    2
    73    20    19    1
    74    89    88    2
    75    27    26    1
    76    88    87    1
    77   124   125    1
    78   127   126    2
    79    12    11    1
    80    12    13    2
    81    11    10    1
    82   136   139    1
    83   136   135    1
    84    10     7    1
    85   139   140    1
    86   125   126    1
    87   126   128   am
    88   131   130    2
    89    87    90    1
    90    87    86    1
    91    26    25    1
    92    90    91    1
    93     9     8    2
    94   135   130   am
    95   142   141    2
    96   130   129    1
    97     7     8    1
    98     7     6    1
    99   128   129    1
   100   128   134    1
   101   140   141    1
   102     8    15   am
   103    92    91   ar
   104    92    94   ar
   105   129   132    1
   106    91    93   ar
   107   141   143   am
   108   134   133    1
   109    94    96   ar
   110    15    16    1
   111    93    95   ar
   112    17    18    2
   113    17    16    1
   114   132   133    1
   115    96    95   ar
   116    84    83    1
   117     4     3    2
   118     3     2    1
   119   108   107    2
   120    82    81    2
   121   107   106    1
   122    83    85    1
   123    83    80    1
   124    81    80    1
   125   109   106    1
   126   109   110    1
   127   115   113    1
   128     1     2    1
   129   114   113    1
   130     2     5    1
   131   113   112    2
   132   106   105    1
   133    80    79    1
   134   112   111    1
   135   111   110    1
   136    79    74   am
   137    75    74    2
   138    74    73    1
   139   151   152    1
   140   152   153    1
   141   152   155    1
   142   154   153    2
   143   160   159    1
   144   156   155    1
   145   156   157    1
   146    73    72    1
   147    73    76    1
   148    72    78    1
   149    77    76    1
   150    77    78    1
   151   159   161    1
   152   159   158    2
   153   157   158    1
