@<TRIPOS>MOLECULE
tmp/5vj3A00.pdb
 75 71 0 0 0
SMALL
GASTEIGER

@<TRIPOS>ATOM
      1  N          2.6150    5.8710   -0.3920 N.3    27  GLY27      -0.1225
      2  CA         3.0260    7.1450    0.1450 C.3    27  GLY27       0.1811
      3  C          3.2680    8.2070   -0.9210 C.2    27  GLY27       0.2280
      4  O          3.4890    9.3470   -0.5630 O.2    27  GLY27      -0.2866
      5  N          6.4060    8.4690  -10.8280 N.3    32  VAL32      -0.1245
      6  CA         7.6760    9.0530  -11.3380 C.3    32  VAL32       0.1561
      7  C          8.5650    7.9270  -11.8300 C.2    32  VAL32       0.2260
      8  O          8.7830    6.9330  -11.1490 O.2    32  VAL32      -0.2867
      9  CB         8.3490   10.0730  -10.3600 C.3    32  VAL32       0.0252
     10  CG1        8.4660    9.5120   -9.0310 C.3    32  VAL32       0.0019
     11  CG2        9.7050   10.5970  -10.8210 C.3    32  VAL32       0.0019
     12  N          9.7860   18.9530   -8.1480 N.3    47  ILE47      -0.1231
     13  CA         9.4910   18.1130   -6.9840 C.3    47  ILE47       0.1692
     14  C         10.4110   18.5240   -5.8260 C.2    47  ILE47       0.2593
     15  O         11.6120   18.6480   -6.0210 O.2    47  ILE47      -0.2718
     16  CB         9.7410   16.6040   -7.2020 C.3    47  ILE47       0.0266
     17  CG1        9.0050   16.0650   -8.4470 C.3    47  ILE47       0.0019
     18  CG2        9.3750   15.8260   -5.9150 C.3    47  ILE47       0.0020
     19  CD1        7.6020   16.5570   -8.5860 C.3    47  ILE47       0.0001
     20  N          9.8350   18.6650   -4.6310 N.am   48  GLY48      -0.1942
     21  CA        10.5200   19.1670   -3.4320 C.3    48  GLY48       0.2014
     22  C         10.9720   18.0190   -2.5480 C.2    48  GLY48       0.2639
     23  O         10.3110   16.9850   -2.4310 O.2    48  GLY48      -0.2714
     24  N         12.1570   18.1470   -1.9770 N.am   49  GLY49      -0.1939
     25  CA        12.6170   17.1710   -0.9750 C.3    49  GLY49       0.2014
     26  C         13.3560   17.9380    0.0930 C.2    49  GLY49       0.2638
     27  O         13.3470   19.1890    0.0920 O.2    49  GLY49      -0.2714
     28  N         14.0160   17.1920    0.9720 N.am   50  ILE50      -0.1977
     29  CA        14.6730   17.8110    2.1500 C.3    50  ILE50       0.1596
     30  C         15.7440   18.8150    1.8010 C.2    50  ILE50       0.2287
     31  O         15.7680   19.9280    2.3240 O.2    50  ILE50      -0.2864
     32  CB        15.1950   16.7970    3.1960 C.3    50  ILE50       0.0276
     33  CG1       16.0830   15.6910    2.5860 C.3    50  ILE50       0.0022
     34  CG2       13.9900   16.2140    3.9380 C.3    50  ILE50       0.0022
     35  CD1       16.3350   14.5210    3.5440 C.3    50  ILE50       0.0001
     36  N         13.8480   19.0910   -7.5450 N.3    54  ILE54      -0.1245
     37  CA        14.3270   18.3880   -8.7100 C.3    54  ILE54       0.1561
     38  C         13.3070   18.5970   -9.7920 C.2    54  ILE54       0.2260
     39  O         12.1150   18.4690   -9.5440 O.2    54  ILE54      -0.2867
     40  CB        14.6030   16.9030   -8.4020 C.3    54  ILE54       0.0252
     41  CG1       15.8650   16.8500   -7.5320 C.3    54  ILE54       0.0019
     42  CG2       14.7560   16.0920   -9.6970 C.3    54  ILE54       0.0019
     43  CD1       16.3320   15.4830   -7.1340 C.3    54  ILE54       0.0001
     44  N         11.3610   17.7240  -13.2180 N.3    56  VAL56      -0.1245
     45  CA        10.9060   16.5640  -13.9790 C.3    56  VAL56       0.1561
     46  C          9.9700   17.0800  -15.0700 C.2    56  VAL56       0.2260
     47  O          9.5790   18.2650  -15.0560 O.2    56  VAL56      -0.2867
     48  CB        10.1410   15.5240  -13.0730 C.3    56  VAL56       0.0252
     49  CG1       10.9910   15.0790  -11.9010 C.3    56  VAL56       0.0019
     50  CG2        8.8460   16.1250  -12.5190 C.3    56  VAL56       0.0019
     51  N         11.9020   11.8550  -14.9710 N.3    78  GLY78      -0.1210
     52  CA        13.1210   12.5870  -14.6830 C.3    78  GLY78       0.1940
     53  C         14.1210   11.7190  -13.9330 C.2    78  GLY78       0.2454
     54  O         13.9850   10.5110  -13.8760 O.2    78  GLY78      -0.2732
     55  N         15.1130   12.3290  -13.3200 N.am   79  PRO79      -0.2717
     56  CA        16.2090   11.5530  -12.7530 C.3    79  PRO79       0.1536
     57  C         15.8630   11.0330  -11.3330 C.2    79  PRO79       0.2599
     58  O         16.3470   11.5630  -10.3500 O.2    79  PRO79      -0.2715
     59  CB        17.3460   12.5950  -12.6830 C.3    79  PRO79       0.0310
     60  CG        16.6500   13.8810  -12.4120 C.3    79  PRO79       0.0237
     61  CD        15.2520   13.7730  -13.0220 C.3    79  PRO79       0.0939
     62  N         15.0230   10.0110  -11.2320 N.am   80  THR80      -0.1938
     63  CA        14.6230    9.4450   -9.9250 C.3    80  THR80       0.2013
     64  C         15.4590    8.1630   -9.7600 C.2    80  THR80       0.2484
     65  O         15.5580    7.4020  -10.7140 O.2    80  THR80      -0.2729
     66  CB        13.1070    9.1080   -9.8680 C.3    80  THR80       0.1807
     67  OG1       12.8320    8.3010   -8.7200 O.3    80  THR80      -0.2208
     68  CG2       12.5840    8.2960  -11.1420 C.3    80  THR80       0.0379
     69  N         16.0130    7.9030   -8.5700 N.am   81  PRO81      -0.2726
     70  CA        16.7050    6.6080   -8.3430 C.3    81  PRO81       0.1402
     71  C         15.7660    5.4110   -8.2700 C.2    81  PRO81       0.2269
     72  O         16.2360    4.2630   -8.3410 O.2    81  PRO81      -0.2865
     73  CB        17.3910    6.8130   -6.9900 C.3    81  PRO81       0.0296
     74  CG        16.5630    7.8050   -6.2750 C.3    81  PRO81       0.0237
     75  CD        15.8930    8.6780   -7.3210 C.3    81  PRO81       0.0939
@<TRIPOS>BOND
     1    46    47    2
     2    46    45    1
     3    51    52    1
     4    52    53    1
     5    45    44    1
     6    45    48    1
     7    53    54    2
     8    53    55   am
     9    55    61    1
    10    55    56    1
    11    48    50    1
    12    48    49    1
    13    61    60    1
    14    56    59    1
    15    56    57    1
    16    59    60    1
    17     7     6    1
    18     7     8    2
    19     6     5    1
    20     6     9    1
    21    57    62   am
    22    57    58    2
    23    62    63    1
    24    68    66    1
    25    11     9    1
    26    65    64    2
    27     9    10    1
    28    63    66    1
    29    63    64    1
    30    66    67    1
    31    38    39    2
    32    38    37    1
    33    64    69   am
    34    42    40    1
    35    37    40    1
    36    37    36    1
    37    19    17    1
    38    69    70    1
    39    69    75    1
    40    17    16    1
    41    40    41    1
    42    70    71    1
    43    70    73    1
    44    72    71    2
    45    12    13    1
    46    41    43    1
    47    75    74    1
    48    16    13    1
    49    16    18    1
    50    73    74    1
    51    13    14    1
    52    15    14    2
    53    14    20   am
    54    20    21    1
    55    21    22    1
    56    22    23    2
    57    22    24   am
    58    24    25    1
    59    25    26    1
    60     3     4    2
    61     3     2    1
    62     1     2    1
    63    27    26    2
    64    26    28   am
    65    28    29    1
    66    30    29    1
    67    30    31    2
    68    29    32    1
    69    33    32    1
    70    33    35    1
    71    32    34    1
