@<TRIPOS>MOLECULE
tmp/5vj5B00.pdb
 141 132 0 0 0
SMALL
GASTEIGER

@<TRIPOS>ATOM
      1  N         22.2450   10.6430   19.1210 N.3    46  CYS46      -0.1221
      2  CA        22.0610   10.6200   20.5640 C.3    46  CYS46       0.1808
      3  C         21.7180    9.2070   20.9980 C.2    46  CYS46       0.2601
      4  O         21.1070    8.4250   20.2720 O.2    46  CYS46      -0.2717
      5  CB        20.9490   11.6120   21.0290 C.3    46  CYS46       0.0970
      6  SG        20.3610   11.5640   22.7770 S.3    46  CYS46      -0.0800
      7  N         22.0840    8.9320   22.2340 N.am   47  ARG47      -0.1965
      8  CA        21.7890    7.7020   22.9060 C.3    47  ARG47       0.1729
      9  C         20.3080    7.2690   22.7730 C.2    47  ARG47       0.2616
     10  O         20.0270    6.0840   22.5900 O.2    47  ARG47      -0.2715
     11  CB        22.1750    7.8810   24.3830 C.3    47  ARG47       0.0348
     12  CG        22.1920    6.6040   25.1820 C.3    47  ARG47       0.0492
     13  CD        23.3630    5.7190   24.7690 C.3    47  ARG47       0.2205
     14  NE        22.9150    4.3780   24.4100 N.pl3  47  ARG47      -0.0865
     15  CZ        23.6820    3.3800   24.1000 C.cat  47  ARG47       0.5346
     16  NH1       24.9100    3.6300   23.5500 N.pl3  47  ARG47       0.1354
     17  NH2       23.1700    2.1500   23.8900 N.pl3  47  ARG47       0.1354
     18  N         19.3660    8.2050   22.8370 N.am   48  SER48      -0.1950
     19  CA        17.9120    7.8460   22.7840 C.3    48  SER48       0.1924
     20  C         17.4100    7.4200   21.3900 C.2    48  SER48       0.2314
     21  O         16.3880    6.7030   21.2480 O.2    48  SER48      -0.2863
     22  CB        17.0660    8.9880   23.3530 C.3    48  SER48       0.2116
     23  OG        17.2620    9.1170   24.7560 O.3    48  SER48      -0.2180
     24  N         13.4440    2.1450   23.7660 N.3    57  LEU57      -0.1245
     25  CA        12.5030    3.2510   23.7230 C.3    57  LEU57       0.1561
     26  C         11.4140    2.8360   22.7410 C.2    57  LEU57       0.2260
     27  O         11.6370    2.7940   21.5260 O.2    57  LEU57      -0.2867
     28  CB        13.1900    4.5520   23.3270 C.3    57  LEU57       0.0270
     29  CG        12.4020    5.8650   23.5540 C.3    57  LEU57       0.0019
     30  CD1       13.2770    7.0750   23.2430 C.3    57  LEU57       0.0001
     31  CD2       11.1290    5.9100   22.7020 C.3    57  LEU57       0.0001
     32  N         16.4550   13.4540   16.6920 N.3    67  HIS67      -0.1241
     33  CA        15.8040   14.5580   17.4300 C.3    67  HIS67       0.1621
     34  C         16.7260   15.6630   17.8840 C.2    67  HIS67       0.2264
     35  O         16.3030   16.5820   18.5320 O.2    67  HIS67      -0.2867
     36  CB        15.1230   13.9520   18.6720 C.3    67  HIS67       0.0745
     37  CG        16.0870   13.3250   19.6250 C.ar   67  HIS67       0.0817
     38  ND1       16.5630   12.0450   19.4540 N.ar   67  HIS67      -0.2268
     39  CD2       16.7040   13.8110   20.7300 C.ar   67  HIS67       0.1154
     40  CE1       17.4070   11.7610   20.4280 C.ar   67  HIS67       0.1986
     41  NE2       17.4970   12.8100   21.2220 N.ar   67  HIS67      -0.2212
     42  N         12.3510   18.5250   20.5170 N.3    93  PHE93      -0.1241
     43  CA        11.7680   17.1900   20.8080 C.3    93  PHE93       0.1605
     44  C         10.8220   17.1530   22.0400 C.2    93  PHE93       0.2264
     45  O          9.9570   16.2890   22.1680 O.2    93  PHE93      -0.2867
     46  CB        12.8810   16.1160   20.8760 C.3    93  PHE93       0.0534
     47  CG        13.6030   16.0290   22.1810 C.ar   93  PHE93      -0.0203
     48  CD1       13.0230   15.3940   23.2770 C.ar   93  PHE93      -0.0042
     49  CD2       14.8710   16.5540   22.3210 C.ar   93  PHE93      -0.0042
     50  CE1       13.6850   15.3090   24.4870 C.ar   93  PHE93      -0.0003
     51  CE2       15.5500   16.4580   23.5300 C.ar   93  PHE93      -0.0003
     52  CZ        14.9740   15.7980   24.6040 C.ar   93  PHE93      -0.0000
     53  N          6.5860   11.6020   24.0220 N.3   116  LEU116     -0.1245
     54  CA         7.5710   10.7530   24.6970 C.3   116  LEU116      0.1561
     55  C          6.9130    9.8100   25.6860 C.2   116  LEU116      0.2260
     56  O          7.2140    8.6090   25.6960 O.2   116  LEU116     -0.2867
     57  CB         8.5450   11.6430   25.4590 C.3   116  LEU116      0.0270
     58  CG        10.0020   11.2440   25.5810 C.3   116  LEU116      0.0019
     59  CD1       10.5980   11.9610   26.7930 C.3   116  LEU116      0.0001
     60  CD2       10.2400    9.7330   25.6120 C.3   116  LEU116      0.0001
     61  N          9.1680   11.7940   18.2440 N.3   141  LEU141     -0.1245
     62  CA         9.2010   12.9400   19.1240 C.3   141  LEU141      0.1561
     63  C          8.8120   14.2560   18.4300 C.2   141  LEU141      0.2260
     64  O          9.3330   15.3440   18.7770 O.2   141  LEU141     -0.2867
     65  CB        10.5630   13.0570   19.8270 C.3   141  LEU141      0.0270
     66  CG        11.0750   11.7720   20.4570 C.3   141  LEU141      0.0019
     67  CD1       12.3810   12.0240   21.1680 C.3   141  LEU141      0.0001
     68  CD2        9.9790   11.1900   21.3710 C.3   141  LEU141      0.0001
     69  N         19.6110   18.5720   21.8270 N.3   174  CYS174     -0.1221
     70  CA        19.4460   17.6190   22.9030 C.3   174  CYS174      0.1808
     71  C         20.6050   17.5370   23.8380 C.2   174  CYS174      0.2601
     72  O         20.4880   17.9850   24.9710 O.2   174  CYS174     -0.2717
     73  CB        19.1510   16.2160   22.3760 C.3   174  CYS174      0.0970
     74  SG        19.0120   15.1330   23.8180 S.3   174  CYS174     -0.0800
     75  N         21.7130   16.9600   23.3600 N.am  175  GLY175     -0.1957
     76  CA        22.8330   16.5060   24.2140 C.3   175  GLY175      0.1869
     77  C         23.4970   17.5880   25.0950 C.2   175  GLY175      0.2309
     78  O         23.7310   17.3780   26.2940 O.2   175  GLY175     -0.2863
     79  N         20.6720   19.2790   27.5020 N.3   178  THR178     -0.1218
     80  CA        20.3450   18.2710   28.5120 C.3   178  THR178      0.1862
     81  C         21.3640   18.2460   29.6610 C.2   178  THR178      0.2287
     82  O         20.9950   18.2810   30.8140 O.2   178  THR178     -0.2866
     83  CB        20.2120   16.8700   27.8740 C.3   178  THR178      0.1770
     84  OG1       19.0570   16.8500   27.0360 O.3   178  THR178     -0.2211
     85  CG2       20.0750   15.7550   28.9500 C.3   178  THR178      0.0375
     86  N         27.0600   14.0700   27.1830 N.3   203  VAL203     -0.1245
     87  CA        26.0790   14.7260   28.0380 C.3   203  VAL203      0.1561
     88  C         26.7660   15.0020   29.4080 C.2   203  VAL203      0.2260
     89  O         26.5700   16.0420   30.0070 O.2   203  VAL203     -0.2867
     90  CB        24.7780   13.9260   28.1870 C.3   203  VAL203      0.0252
     91  CG1       23.8710   14.5870   29.2120 C.3   203  VAL203      0.0019
     92  CG2       24.0790   13.8030   26.8590 C.3   203  VAL203      0.0019
     93  N         24.7430   10.4780   34.8110 N.3   268  VAL268     -0.1245
     94  CA        24.5690   10.7670   33.4020 C.3   268  VAL268      0.1561
     95  C         24.5590    9.5300   32.5110 C.2   268  VAL268      0.2260
     96  O         24.1010    9.6230   31.3900 O.2   268  VAL268     -0.2867
     97  CB        25.6290   11.7500   32.9240 C.3   268  VAL268      0.0252
     98  CG1       25.2860   12.2330   31.5270 C.3   268  VAL268      0.0019
     99  CG2       25.7350   12.9110   33.9370 C.3   268  VAL268      0.0019
    100  N         19.9100   12.1840   34.9760 N.3   292  VAL292     -0.1231
    101  CA        19.8610   12.6930   33.5770 C.3   292  VAL292      0.1692
    102  C         19.5040   11.5750   32.5630 C.2   292  VAL292      0.2593
    103  O         18.8220   11.8020   31.5830 O.2   292  VAL292     -0.2718
    104  CB        21.1900   13.3900   33.2620 C.3   292  VAL292      0.0266
    105  CG1       21.1400   14.1150   31.9440 C.3   292  VAL292      0.0020
    106  CG2       21.5430   14.3920   34.3520 C.3   292  VAL292      0.0020
    107  N         19.9390   10.3520   32.8090 N.am  293  GLY293     -0.1942
    108  CA        19.8340    9.3300   31.7910 C.3   293  GLY293      0.2014
    109  C         18.8250    8.2320   32.0140 C.2   293  GLY293      0.2638
    110  O         18.4910    7.8870   33.1240 O.2   293  GLY293     -0.2714
    111  N         18.4650    7.5930   30.9140 N.am  294  VAL294     -0.1977
    112  CA        17.3980    6.6040   30.8850 C.3   294  VAL294      0.1596
    113  C         17.9940    5.2490   31.1510 C.2   294  VAL294      0.2287
    114  O         18.9800    4.8810   30.4990 O.2   294  VAL294     -0.2864
    115  CB        16.7260    6.5340   29.4880 C.3   294  VAL294      0.0276
    116  CG1       15.3960    5.7810   29.5710 C.3   294  VAL294      0.0022
    117  CG2       16.5550    7.9460   28.9090 C.3   294  VAL294      0.0022
    118  N         15.0840   15.3530   35.1750 N.3   317  ALA317     -0.1231
    119  CA        14.4090   16.1670   34.1550 C.3   317  ALA317      0.1694
    120  C         14.7050   15.6490   32.7320 C.2   317  ALA317      0.2592
    121  O         15.5990   14.8410   32.5250 O.2   317  ALA317     -0.2718
    122  CB        14.8350   17.6200   34.2380 C.3   317  ALA317      0.0304
    123  N         13.9110   16.1580   31.7890 N.am  318  ILE318     -0.1966
    124  CA        14.1350   16.0230   30.3590 C.3   318  ILE318      0.1727
    125  C         14.5390   17.3690   29.8420 C.2   318  ILE318      0.2616
    126  O         14.0420   18.3780   30.3140 O.2   318  ILE318     -0.2715
    127  CB        12.8860   15.5140   29.6830 C.3   318  ILE318      0.0290
    128  CG1       12.7630   14.0250   30.0350 C.3   318  ILE318      0.0022
    129  CG2       12.9470   15.6840   28.1480 C.3   318  ILE318      0.0023
    130  CD1       11.3370   13.5800   30.0530 C.3   318  ILE318      0.0001
    131  N         15.4840   17.3410   28.9060 N.am  319  PHE319     -0.1974
    132  CA        15.9680   18.5190   28.1910 C.3   319  PHE319      0.1639
    133  C         16.5260   19.5900   29.1010 C.2   319  PHE319      0.2290
    134  O         16.3800   20.7850   28.8640 O.2   319  PHE319     -0.2864
    135  CB        14.8950   19.0770   27.2520 C.3   319  PHE319      0.0560
    136  CG        15.4360   20.0060   26.2380 C.ar  319  PHE319     -0.0200
    137  CD1       16.3750   19.5750   25.3460 C.ar  319  PHE319     -0.0042
    138  CD2       15.0510   21.3370   26.2100 C.ar  319  PHE319     -0.0042
    139  CE1       16.9270   20.4280   24.4070 C.ar  319  PHE319     -0.0003
    140  CE2       15.6040   22.2190   25.2790 C.ar  319  PHE319     -0.0003
    141  CZ        16.5290   21.7520   24.3590 C.ar  319  PHE319     -0.0000
@<TRIPOS>BOND
     1    32    33    1
     2    33    34    1
     3    33    36    1
     4    34    35    2
     5    61    62    1
     6    63    64    2
     7    63    62    1
     8    36    37    1
     9     1     2    1
    10    62    65    1
    11    38    37   ar
    12    38    40   ar
    13    37    39   ar
    14    65    66    1
    15     4     3    2
    16    40    41   ar
    17    66    67    1
    18    66    68    1
    19    42    43    1
    20     2     3    1
    21     2     5    1
    22    39    41   ar
    23    43    46    1
    24    43    44    1
    25    46    47    1
    26     3     7   am
    27     5     6    1
    28    21    20    2
    29    20    19    1
    30    27    26    2
    31    69    70    1
    32    44    45    2
    33    47    49   ar
    34    47    48   ar
    35     7     8    1
    36    49    51   ar
    37    73    70    1
    38    73    74    1
    39    10     9    2
    40    31    29    1
    41    26    25    1
    42     9    18   am
    43     9     8    1
    44    19    18    1
    45    19    22    1
    46    70    71    1
    47     8    11    1
    48    30    29    1
    49    48    50   ar
    50    28    29    1
    51    28    25    1
    52    22    23    1
    53    75    71   am
    54    75    76    1
    55    51    52   ar
    56    16    15    1
    57    25    24    1
    58    71    72    2
    59    17    15    1
    60    53    54    1
    61    15    14    2
    62    76    77    1
    63   141   139   ar
    64   141   140   ar
    65    11    12    1
    66   139   137   ar
    67    14    13    1
    68    50    52   ar
    69    54    57    1
    70    54    55    1
    71    13    12    1
    72    77    78    2
    73   140   138   ar
    74   137   136   ar
    75    57    58    1
    76    58    60    1
    77    58    59    1
    78    55    56    2
    79   138   136   ar
    80   136   135    1
    81    92    90    1
    82    84    83    1
    83    86    87    1
    84   135   132    1
    85    79    80    1
    86    83    80    1
    87    83    85    1
    88    87    90    1
    89    87    88    1
    90   129   127    1
    91    90    91    1
    92   132   131    1
    93   132   133    1
    94    80    81    1
    95   134   133    2
    96   131   125   am
    97   117   115    1
    98    88    89    2
    99   115   116    1
   100   115   112    1
   101    81    82    2
   102   127   128    1
   103   127   124    1
   104   125   126    2
   105   125   124    1
   106   128   130    1
   107   124   123    1
   108   114   113    2
   109   112   111    1
   110   112   113    1
   111   111   109   am
   112    96    95    2
   113    98    97    1
   114   103   102    2
   115   123   120   am
   116   108   109    1
   117   108   107    1
   118   105   104    1
   119   109   110    2
   120    95    94    1
   121   121   120    2
   122   102   107   am
   123   102   101    1
   124   120   119    1
   125    97    94    1
   126    97    99    1
   127   104   101    1
   128   104   106    1
   129    94    93    1
   130   101   100    1
   131   119   122    1
   132   119   118    1
