@<TRIPOS>MOLECULE
tmp/5vj7B00.pdb
 224 220 0 0 0
SMALL
GASTEIGER

@<TRIPOS>ATOM
      1  N         18.2100   38.5730   79.4560 N.3    33  PHE33      -0.1241
      2  CA        19.2800   39.5500   79.3080 C.3    33  PHE33       0.1605
      3  C         20.0260   39.4440   77.9750 C.2    33  PHE33       0.2264
      4  O         19.6480   38.6590   77.1100 O.2    33  PHE33      -0.2867
      5  CB        20.2400   39.4510   80.5250 C.3    33  PHE33       0.0534
      6  CG        21.0280   38.1650   80.6460 C.ar   33  PHE33      -0.0203
      7  CD1       20.4940   37.0620   81.3020 C.ar   33  PHE33      -0.0042
      8  CD2       22.3190   38.0720   80.1420 C.ar   33  PHE33      -0.0042
      9  CE1       21.2270   35.8730   81.4230 C.ar   33  PHE33      -0.0003
     10  CE2       23.0490   36.8880   80.2590 C.ar   33  PHE33      -0.0003
     11  CZ        22.4960   35.7910   80.8880 C.ar   33  PHE33      -0.0000
     12  N         35.7670   43.5250   76.4570 N.3    43  GLU43      -0.1182
     13  CA        35.1720   42.3530   77.0940 C.3    43  GLU43       0.1915
     14  C         33.6520   42.2600   76.8020 C.2    43  GLU43       0.2634
     15  O         33.0220   43.2360   76.3690 O.2    43  GLU43      -0.2714
     16  CB        35.4330   42.3610   78.6220 C.2    43  GLU43       0.0085
     17  CG        34.9200   43.5870   79.3570 C.2    43  GLU43       0.0835
     18  CD        35.3240   43.7780   80.8070 C.2    43  GLU43       0.3877
     19  OE1       35.7520   42.7980   81.4580 O.co2  43  GLU43      -0.2406
     20  OE2       35.1480   44.9070   81.3140 O.co2  43  GLU43      -0.2406
     21  N         33.0740   41.0810   77.0750 N.am   44  ARG44      -0.1963
     22  CA        31.6510   40.7900   76.9630 C.3    44  ARG44       0.1729
     23  C         31.0090   41.0260   78.3770 C.2    44  ARG44       0.2616
     24  O         31.4180   40.3880   79.3620 O.2    44  ARG44      -0.2715
     25  CB        31.4780   39.3220   76.5260 C.3    44  ARG44       0.0348
     26  CG        31.6540   39.0550   75.0410 C.3    44  ARG44       0.0492
     27  CD        31.7730   37.5580   74.7720 C.3    44  ARG44       0.2205
     28  NE        30.5110   36.8280   74.9210 N.pl3  44  ARG44      -0.0865
     29  CZ        29.7000   36.5370   73.9080 C.cat  44  ARG44       0.5346
     30  NH1       30.0080   36.9080   72.6730 N.pl3  44  ARG44       0.1354
     31  NH2       28.5650   35.8810   74.1260 N.pl3  44  ARG44       0.1354
     32  N         30.0290   41.9570   78.4730 N.am   45  ILE45      -0.1964
     33  CA        29.3400   42.2720   79.7450 C.3    45  ILE45       0.1712
     34  C         27.8380   41.9850   79.6880 C.2    45  ILE45       0.2458
     35  O         27.2200   42.2810   78.6600 O.2    45  ILE45      -0.2730
     36  CB        29.6210   43.7260   80.2840 C.3    45  ILE45       0.0289
     37  CG1       29.2570   44.8260   79.2590 C.3    45  ILE45       0.0022
     38  CG2       31.0750   43.8720   80.7820 C.3    45  ILE45       0.0023
     39  CD1       28.8300   46.1520   79.8700 C.3    45  ILE45       0.0001
     40  N         27.2180   41.4380   80.7740 N.am   46  PRO46      -0.2716
     41  CA        25.7560   41.2250   80.7510 C.3    46  PRO46       0.1536
     42  C         24.9460   42.4970   81.0640 C.2    46  PRO46       0.2598
     43  O         25.2140   43.1950   82.0530 O.2    46  PRO46      -0.2715
     44  CB        25.5280   40.1510   81.8270 C.3    46  PRO46       0.0310
     45  CG        26.6530   40.3430   82.7950 C.3    46  PRO46       0.0237
     46  CD        27.8050   41.0000   82.0630 C.3    46  PRO46       0.0939
     47  N         23.9260   42.7830   80.2380 N.am   47  LEU47      -0.1964
     48  CA        22.9970   43.9010   80.4630 C.3    47  LEU47       0.1728
     49  C         21.5830   43.4440   80.1740 C.2    47  LEU47       0.2616
     50  O         21.3870   42.4390   79.4910 O.2    47  LEU47      -0.2715
     51  CB        23.3450   45.1580   79.6620 C.3    47  LEU47       0.0311
     52  CG        24.7270   45.7330   79.8480 C.3    47  LEU47       0.0022
     53  CD1       25.1150   46.5380   78.6670 C.3    47  LEU47       0.0001
     54  CD2       24.8520   46.4840   81.1600 C.3    47  LEU47       0.0001
     55  N         20.5960   44.1420   80.7440 N.am   48  THR48      -0.1951
     56  CA        19.1900   43.7620   80.6510 C.3    48  THR48       0.1897
     57  C         18.3440   44.6970   79.7900 C.2    48  THR48       0.2313
     58  O         18.2680   45.8940   80.0880 O.2    48  THR48      -0.2863
     59  CB        18.6240   43.6510   82.0680 C.3    48  THR48       0.1794
     60  OG1       19.5880   42.9810   82.8810 O.3    48  THR48      -0.2208
     61  CG2       17.2580   42.9270   82.1290 C.3    48  THR48       0.0378
     62  N         19.9280   50.3420   80.2000 N.3    62  ILE62      -0.1231
     63  CA        20.3380   51.3830   81.1400 C.3    62  ILE62       0.1692
     64  C         21.5200   50.8240   81.9110 C.2    62  ILE62       0.2592
     65  O         21.3720   49.9160   82.7300 O.2    62  ILE62      -0.2718
     66  CB        19.2140   51.9440   82.0380 C.3    62  ILE62       0.0266
     67  CG1       18.1380   52.6760   81.1910 C.3    62  ILE62       0.0019
     68  CG2       19.7980   52.8780   83.1100 C.3    62  ILE62       0.0020
     69  CD1       16.6390   52.6020   81.7310 C.3    62  ILE62       0.0001
     70  N         22.7040   51.3370   81.5830 N.am   63  VAL63      -0.1966
     71  CA        23.9920   50.9230   82.1290 C.3    63  VAL63       0.1727
     72  C         24.4450   51.8950   83.2210 C.2    63  VAL63       0.2616
     73  O         24.4390   53.1080   82.9950 O.2    63  VAL63      -0.2715
     74  CB        25.0300   50.8410   80.9770 C.3    63  VAL63       0.0290
     75  CG1       26.3170   50.1920   81.4360 C.3    63  VAL63       0.0023
     76  CG2       24.4740   50.1030   79.7670 C.3    63  VAL63       0.0023
     77  N         24.8390   51.3630   84.3950 N.am   64  PHE64      -0.1974
     78  CA        25.3940   52.1510   85.5060 C.3    64  PHE64       0.1639
     79  C         26.8990   52.2850   85.2840 C.2    64  PHE64       0.2290
     80  O         27.5720   51.2650   85.0910 O.2    64  PHE64      -0.2864
     81  CB        25.1130   51.4840   86.8680 C.3    64  PHE64       0.0560
     82  CG        25.7220   52.1720   88.0710 C.ar   64  PHE64      -0.0200
     83  CD1       25.2460   53.3990   88.5070 C.ar   64  PHE64      -0.0042
     84  CD2       26.7750   51.5890   88.7680 C.ar   64  PHE64      -0.0042
     85  CE1       25.8300   54.0410   89.6040 C.ar   64  PHE64      -0.0003
     86  CE2       27.3590   52.2380   89.8630 C.ar   64  PHE64      -0.0003
     87  CZ        26.8750   53.4500   90.2790 C.ar   64  PHE64      -0.0000
     88  N         30.1710   52.1030   86.1760 N.3    66  ARG66      -0.1231
     89  CA        30.8170   51.3430   87.2260 C.3    66  ARG66       0.1694
     90  C         32.3230   51.2150   87.1040 C.2    66  ARG66       0.2593
     91  O         32.9900   51.1670   88.1300 O.2    66  ARG66      -0.2718
     92  CB        30.1840   49.9410   87.2710 C.3    66  ARG66       0.0321
     93  CG        30.1400   49.3250   88.6440 C.3    66  ARG66       0.0489
     94  CD        29.2870   48.0810   88.5750 C.3    66  ARG66       0.2205
     95  NE        29.1480   47.4160   89.8710 N.pl3  66  ARG66      -0.0865
     96  CZ        28.4520   46.3040   90.0610 C.cat  66  ARG66       0.5346
     97  NH1       27.8250   45.7250   89.0490 N.pl3  66  ARG66       0.1354
     98  NH2       28.3780   45.7600   91.2670 N.pl3  66  ARG66       0.1354
     99  N         32.8320   51.0770   85.8800 N.am   67  GLY67      -0.1942
    100  CA        34.2550   50.8870   85.6170 C.3    67  GLY67       0.2014
    101  C         34.6320   51.1330   84.1760 C.2    67  GLY67       0.2639
    102  O         33.9190   51.8470   83.4750 O.2    67  GLY67      -0.2714
    103  N         35.7390   50.5220   83.7190 N.am   68  LYS68      -0.1963
    104  CA        36.2900   50.6930   82.3720 C.3    68  LYS68       0.1728
    105  C         35.2580   50.5150   81.2220 C.2    68  LYS68       0.2617
    106  O         35.0130   51.4890   80.5080 O.2    68  LYS68      -0.2715
    107  CB        37.5320   49.7820   82.1800 C.3    68  LYS68       0.0311
    108  CG        38.0150   49.5610   80.7340 C.3    68  LYS68       0.0038
    109  CD        38.7440   50.7260   80.1800 C.3    68  LYS68       0.0206
    110  CE        39.4350   50.4120   78.8840 C.3    68  LYS68       0.1093
    111  NZ        38.4510   50.2020   77.7880 N.3    68  LYS68      -0.1314
    112  N         34.6640   49.3000   81.0450 N.am   69  THR69      -0.1937
    113  CA        33.7190   49.0220   79.9500 C.3    69  THR69       0.2028
    114  C         32.4650   49.9270   79.9830 C.2    69  THR69       0.2642
    115  O         32.1010   50.4610   78.9320 O.2    69  THR69      -0.2714
    116  CB        33.3930   47.5350   79.8850 C.3    69  THR69       0.1808
    117  OG1       34.6100   46.8690   79.5460 O.3    69  THR69      -0.2208
    118  CG2       32.3390   47.1940   78.8170 C.3    69  THR69       0.0379
    119  N         31.8530   50.1380   81.1680 N.am   70  THR70      -0.1950
    120  CA        30.6540   50.9730   81.3180 C.3    70  THR70       0.1897
    121  C         30.9660   52.4840   81.1790 C.2    70  THR70       0.2313
    122  O         30.1500   53.2120   80.6130 O.2    70  THR70      -0.2863
    123  CB        29.8940   50.6260   82.6010 C.3    70  THR70       0.1794
    124  OG1       30.7360   50.8620   83.7260 O.3    70  THR70      -0.2208
    125  CG2       29.3870   49.1860   82.6030 C.3    70  THR70       0.0378
    126  N         20.9170   50.7040   90.4510 N.3   109  THR109     -0.1218
    127  CA        20.4740   50.4910   89.0670 C.3   109  THR109      0.1862
    128  C         19.7490   49.1160   88.9230 C.2   109  THR109      0.2287
    129  O         19.2750   48.7950   87.8290 O.2   109  THR109     -0.2866
    130  CB        21.6250   50.7500   88.0760 C.3   109  THR109      0.1770
    131  OG1       22.1280   52.0680   88.3270 O.3   109  THR109     -0.2211
    132  CG2       21.1850   50.6690   86.6090 C.3   109  THR109      0.0375
    133  N         16.0990   48.7440   87.2250 N.3   112  VAL112     -0.1231
    134  CA        16.0870   48.6850   85.7680 C.3   112  VAL112      0.1692
    135  C         15.7750   47.2650   85.3230 C.2   112  VAL112      0.2591
    136  O         15.2130   47.0610   84.2490 O.2   112  VAL112     -0.2718
    137  CB        17.4530   49.2220   85.2650 C.3   112  VAL112      0.0266
    138  CG1       17.6420   49.1110   83.7540 C.3   112  VAL112      0.0020
    139  CG2       17.6800   50.6270   85.7580 C.3   112  VAL112      0.0020
    140  N         16.1530   46.2920   86.1560 N.am  113  GLU113     -0.1979
    141  CA        15.9000   44.8850   85.9360 C.3   113  GLU113      0.1602
    142  C         14.5800   44.4780   86.6170 C.2   113  GLU113      0.2287
    143  O         14.0140   43.4460   86.2790 O.2   113  GLU113     -0.2864
    144  CB        17.0820   44.0630   86.4510 C.3   113  GLU113      0.0415
    145  CG        18.3660   44.3860   85.7130 C.3   113  GLU113      0.1163
    146  CD        19.5960   43.7980   86.3550 C.2   113  GLU113      0.3649
    147  OE1       20.4690   44.5770   86.7990 O.co2 113  GLU113     -0.2457
    148  OE2       19.6650   42.5530   86.4470 O.co2 113  GLU113     -0.2457
    149  N         17.4220   37.8940   91.5170 N.3   217  ASP217     -0.1225
    150  CA        18.1280   38.0550   90.2430 C.3   217  ASP217      0.1805
    151  C         19.6190   38.0180   90.6160 C.2   217  ASP217      0.2598
    152  O         20.1690   38.9850   91.1640 O.2   217  ASP217     -0.2718
    153  CB        17.7320   39.3980   89.5830 C.3   217  ASP217      0.1424
    154  CG        18.3750   39.7490   88.2470 C.2   217  ASP217      0.3668
    155  OD1       19.4960   39.2670   87.9760 O.co2 217  ASP217     -0.2456
    156  OD2       17.7880   40.5620   87.5050 O.co2 217  ASP217     -0.2456
    157  N         20.2370   36.8690   90.3920 N.am  218  LEU218     -0.1966
    158  CA        21.6220   36.6430   90.7470 C.3   218  LEU218      0.1728
    159  C         22.6050   37.1430   89.6800 C.2   218  LEU218      0.2616
    160  O         22.4180   36.9020   88.4820 O.2   218  LEU218     -0.2715
    161  CB        21.8450   35.1640   91.1150 C.3   218  LEU218      0.0311
    162  CG        21.1690   34.7040   92.4290 C.3   218  LEU218      0.0022
    163  CD1       21.7710   33.4150   92.9110 C.3   218  LEU218      0.0001
    164  CD2       21.3510   35.7190   93.5510 C.3   218  LEU218      0.0001
    165  N         23.6470   37.8690   90.1320 N.am  219  HIS219     -0.1960
    166  CA        24.6370   38.4570   89.2400 C.3   219  HIS219      0.1772
    167  C         26.0760   37.8750   89.3380 C.2   219  HIS219      0.2462
    168  O         27.0070   38.6580   89.5310 O.2   219  HIS219     -0.2730
    169  CB        24.6780   39.9880   89.4130 C.3   219  HIS219      0.0785
    170  CG        23.5540   40.7350   88.7620 C.ar  219  HIS219      0.0821
    171  ND1       23.5870   42.1110   88.6350 N.ar  219  HIS219     -0.2267
    172  CD2       22.3880   40.2810   88.2440 C.ar  219  HIS219      0.1154
    173  CE1       22.4480   42.4500   88.0470 C.ar  219  HIS219      0.1986
    174  NE2       21.6930   41.3830   87.7990 N.ar  219  HIS219     -0.2212
    175  N         26.3410   36.5660   89.1300 N.am  220  PRO220     -0.2716
    176  CA        27.7400   36.1230   89.1190 C.3   220  PRO220      0.1536
    177  C         28.4470   36.6310   87.8480 C.2   220  PRO220      0.2598
    178  O         27.7930   37.2250   86.9690 O.2   220  PRO220     -0.2715
    179  CB        27.6240   34.5970   89.1380 C.3   220  PRO220      0.0310
    180  CG        26.3500   34.3150   88.4950 C.3   220  PRO220      0.0237
    181  CD        25.4290   35.4470   88.8200 C.3   220  PRO220      0.0939
    182  N         29.7780   36.4140   87.7500 N.am  221  ILE221     -0.1964
    183  CA        30.5720   36.8680   86.6030 C.3   221  ILE221      0.1727
    184  C         30.1100   36.0830   85.3760 C.2   221  ILE221      0.2616
    185  O         29.7990   34.9100   85.5150 O.2   221  ILE221     -0.2715
    186  CB        32.1060   36.7220   86.8910 C.3   221  ILE221      0.0290
    187  CG1       32.5670   37.5990   88.0890 C.3   221  ILE221      0.0022
    188  CG2       32.9720   36.9610   85.6490 C.3   221  ILE221      0.0023
    189  CD1       32.7280   39.1540   87.8720 C.3   221  ILE221      0.0001
    190  N         30.0220   36.7240   84.2000 N.am  222  MET222     -0.1977
    191  CA        29.6040   36.0240   82.9820 C.3   222  MET222      0.1605
    192  C         30.6000   36.2600   81.8410 C.2   222  MET222      0.2287
    193  O         31.1790   37.3460   81.7540 O.2   222  MET222     -0.2864
    194  CB        28.1650   36.4300   82.5810 C.3   222  MET222      0.0413
    195  CG        27.0930   35.8130   83.4750 C.3   222  MET222      0.0598
    196  SD        25.3990   36.1250   82.9390 S.3   222  MET222     -0.1393
    197  CE        24.4890   35.3460   84.2490 C.3   222  MET222      0.0692
    198  N         18.7190   34.4020   85.1720 N.3   248  PRO248     -0.2116
    199  CA        19.3350   34.9290   86.4130 C.3   248  PRO248      0.1372
    200  C         18.5780   34.7130   87.7100 C.2   248  PRO248      0.2244
    201  O         19.1730   34.8440   88.7690 O.2   248  PRO248     -0.2868
    202  CB        19.4010   36.4390   86.1510 C.3   248  PRO248      0.0268
    203  CG        19.3610   36.5850   84.6730 C.3   248  PRO248      0.0207
    204  CD        18.4610   35.4890   84.2120 C.3   248  PRO248      0.0892
    205  N         32.3580   37.9210   95.0650 N.3   264  VAL264     -0.1231
    206  CA        31.9460   39.2530   94.5990 C.3   264  VAL264      0.1692
    207  C         33.0980   40.0450   93.8900 C.2   264  VAL264      0.2592
    208  O         32.9200   40.4290   92.7220 O.2   264  VAL264     -0.2718
    209  CB        31.1980   40.1030   95.6820 C.3   264  VAL264      0.0266
    210  CG1       32.1250   40.6690   96.7620 C.3   264  VAL264      0.0020
    211  CG2       30.3620   41.2050   95.0380 C.3   264  VAL264      0.0020
    212  N         34.2200   40.2790   94.5780 N.am  265  GLY265     -0.1957
    213  CA        35.3140   41.0720   94.0290 C.3   265  GLY265      0.1869
    214  C         36.6020   40.3190   93.7970 C.2   265  GLY265      0.2309
    215  O         37.6700   40.7930   94.1930 O.2   265  GLY265     -0.2863
    216  N         40.2170   45.0200   88.0580 N.3   271  GLU271     -0.1245
    217  CA        39.1440   45.9540   87.7020 C.3   271  GLU271      0.1567
    218  C         39.5550   47.4150   87.9590 C.2   271  GLU271      0.2260
    219  O         39.4290   48.2400   87.0420 O.2   271  GLU271     -0.2867
    220  CB        37.8050   45.5660   88.3600 C.3   271  GLU271      0.0388
    221  CG        37.1750   44.3260   87.7200 C.3   271  GLU271      0.1160
    222  CD        36.1380   43.5370   88.4970 C.2   271  GLU271      0.3649
    223  OE1       35.8760   43.8680   89.6770 O.co2 271  GLU271     -0.2457
    224  OE2       35.5940   42.5660   87.9220 O.co2 271  GLU271     -0.2457
@<TRIPOS>BOND
     1    30    29    1
     2    29    31    1
     3    29    28    2
     4    27    28    1
     5    27    26    1
     6    26    25    1
     7    15    14    2
     8    12    13    1
     9    25    22    1
    10    14    21   am
    11    14    13    1
    12    22    21    1
    13    22    23    1
    14    13    16    1
    15     4     3    2
    16   111   110    1
    17     3     2    1
    18    23    32   am
    19    23    24    2
    20    32    33    1
    21    16    17    2
    22    35    34    2
    23    53    52    1
    24   118   116    1
    25   110   109    1
    26   115   114    2
    27    37    39    1
    28    37    36    1
    29     2     1    1
    30     2     5    1
    31    17    18    1
    32    50    49    2
    33   117   116    1
    34    51    52    1
    35    51    48    1
    36    34    33    1
    37    34    40   am
    38    33    36    1
    39    76    74    1
    40    57    58    2
    41    57    56    1
    42    52    54    1
    43   116   113    1
    44   113   114    1
    45   113   112    1
    46   114   119   am
    47     8    10   ar
    48     8     6   ar
    49    49    48    1
    50    49    55   am
    51   109   108    1
    52    62    63    1
    53    47    48    1
    54    47    42   am
    55    10    11   ar
    56    36    38    1
    57   106   105    2
    58     5     6    1
    59   122   121    2
    60     6     7   ar
    61    56    55    1
    62    56    59    1
    63   108   107    1
    64    41    40    1
    65    41    42    1
    66    41    44    1
    67    40    46    1
    68    18    20   ar
    69    18    19   ar
    70    11     9   ar
    71    74    75    1
    72    74    71    1
    73   112   105   am
    74    42    43    2
    75    63    64    1
    76    63    66    1
    77   119   120    1
    78   121   120    1
    79    67    69    1
    80    67    66    1
    81   105   104    1
    82     7     9   ar
    83   120   123    1
    84    70    64   am
    85    70    71    1
    86   193   192    2
    87    44    45    1
    88   192   191    1
    89    64    65    2
    90    66    68    1
    91    46    45    1
    92    59    61    1
    93    59    60    1
    94    71    72    1
    95   107   104    1
    96   104   103    1
    97   194   191    1
    98   194   195    1
    99   123   125    1
   100   123   124    1
   101   196   195    1
   102   196   197    1
   103   191   190    1
   104    73    72    2
   105    72    77   am
   106   102   101    2
   107   103   101   am
   108   138   137    1
   109   101   100    1
   110   190   184   am
   111   204   203    1
   112   204   198    1
   113   136   135    2
   114    77    78    1
   115   203   202    1
   116    80    79    2
   117   198   199    1
   118   137   139    1
   119   137   134    1
   120    79    78    1
   121   135   134    1
   122   135   140   am
   123   184   185    2
   124   184   183    1
   125    78    81    1
   126   100    99    1
   127   188   186    1
   128   145   146    1
   129   145   144    1
   130   134   133    1
   131    99    90   am
   132   141   140    1
   133   141   144    1
   134   141   142    1
   135   202   199    1
   136    88    89    1
   137   143   142    2
   138   146   148   ar
   139   146   147   ar
   140   199   200    1
   141   183   186    1
   142   183   182    1
   143   132   130    1
   144    81    82    1
   145   186   187    1
   146   178   177    2
   147   219   218    2
   148    90    89    1
   149    90    91    2
   150    89    92    1
   151    92    93    1
   152   156   154   ar
   153   217   218    1
   154   217   216    1
   155   217   220    1
   156   200   201    2
   157   221   220    1
   158   221   222    1
   159   182   177   am
   160   174   173   ar
   161   174   172   ar
   162   129   128    2
   163   177   176    1
   164   189   187    1
   165   224   222   ar
   166   155   154   ar
   167   173   171   ar
   168    82    83   ar
   169    82    84   ar
   170   130   131    1
   171   130   127    1
   172   172   170   ar
   173   154   153    1
   174   160   159    2
   175   180   181    1
   176   180   179    1
   177   222   223   ar
   178    83    85   ar
   179    94    93    1
   180    94    95    1
   181   171   170   ar
   182   170   169    1
   183    84    86   ar
   184   181   175    1
   185   128   127    1
   186    97    96    1
   187   127   126    1
   188   176   175    1
   189   176   179    1
   190   175   167   am
   191   166   167    1
   192   166   169    1
   193   166   165    1
   194   167   168    2
   195   153   150    1
   196    85    87   ar
   197   159   165   am
   198   159   158    1
   199    86    87   ar
   200    95    96    2
   201    96    98    1
   202   150   151    1
   203   150   149    1
   204   157   151   am
   205   157   158    1
   206   151   152    2
   207   158   161    1
   208   161   162    1
   209   162   163    1
   210   162   164    1
   211   208   207    2
   212   214   213    1
   213   214   215    2
   214   207   212   am
   215   207   206    1
   216   213   212    1
   217   206   205    1
   218   206   209    1
   219   211   209    1
   220   209   210    1
