@<TRIPOS>MOLECULE
tmp/5vjaB00.pdb
 152 140 0 0 0
SMALL
GASTEIGER

@<TRIPOS>ATOM
      1  N        -21.2300   26.9690    1.8990 N.3    13  LEU13      -0.1231
      2  CA       -21.1030   25.5780    1.4730 C.3    13  LEU13       0.1693
      3  C        -22.2940   25.0600    0.6450 C.2    13  LEU13       0.2593
      4  O        -22.1650   24.0210   -0.0630 O.2    13  LEU13      -0.2718
      5  CB       -20.9170   24.6880    2.7060 C.3    13  LEU13       0.0284
      6  CG       -19.7900   25.1000    3.7080 C.3    13  LEU13       0.0019
      7  CD1      -19.8210   24.3440    5.0060 C.3    13  LEU13       0.0001
      8  CD2      -18.4160   24.9320    3.0870 C.3    13  LEU13       0.0001
      9  N        -23.4330   25.7540    0.7020 N.am   14  GLY14      -0.1942
     10  CA       -24.6470   25.2580    0.0660 C.3    14  GLY14       0.2014
     11  C        -25.8520   26.1300    0.2860 C.2    14  GLY14       0.2640
     12  O        -25.9430   26.8380    1.2800 O.2    14  GLY14      -0.2714
     13  N        -26.7450   26.1220   -0.6850 N.am   15  SER15      -0.1935
     14  CA       -27.9610   26.9510   -0.6740 C.3    15  SER15       0.2055
     15  C        -29.1020   26.0660   -1.0880 C.2    15  SER15       0.2643
     16  O        -28.9600   25.2390   -1.9930 O.2    15  SER15      -0.2714
     17  CB       -27.8250   28.1560   -1.6360 C.3    15  SER15       0.2130
     18  OG       -26.5540   28.7150   -1.5440 O.3    15  SER15      -0.2179
     19  N        -30.2060   26.1630   -0.3610 N.am   16  GLY16      -0.1954
     20  CA       -31.4810   25.5200   -0.6960 C.3    16  GLY16       0.1869
     21  C        -32.4290   26.6550   -0.8600 C.2    16  GLY16       0.2309
     22  O        -31.9880   27.7820   -0.9980 O.2    16  GLY16      -0.2863
     23  N        -32.7720   27.9540    2.9740 N.3    19  ALA19      -0.1245
     24  CA       -31.6490   27.5900    3.8280 C.3    19  ALA19       0.1562
     25  C        -30.3120   27.9620    3.1680 C.2    19  ALA19       0.2260
     26  O        -30.1460   27.7640    1.9690 O.2    19  ALA19      -0.2867
     27  CB       -31.6740   26.1060    4.1370 C.3    19  ALA19       0.0290
     28  N        -26.0670   27.3690    4.1360 N.3    21  VAL21      -0.1245
     29  CA       -25.1620   26.6410    5.0440 C.3    21  VAL21       0.1561
     30  C        -23.7710   27.1870    4.8700 C.2    21  VAL21       0.2260
     31  O        -23.2390   27.2030    3.7880 O.2    21  VAL21      -0.2867
     32  CB       -25.1590   25.1030    4.7770 C.3    21  VAL21       0.0252
     33  CG1      -24.1910   24.3920    5.7150 C.3    21  VAL21       0.0019
     34  CG2      -26.5680   24.5330    4.8650 C.3    21  VAL21       0.0019
     35  N        -20.4920   23.7080   10.8030 N.3    34  ALA34      -0.1245
     36  CA       -21.3650   24.1890    9.7300 C.3    34  ALA34       0.1562
     37  C        -22.5640   24.8790   10.3660 C.2    34  ALA34       0.2260
     38  O        -23.1110   24.3800   11.3310 O.2    34  ALA34      -0.2867
     39  CB       -21.8180   23.0430    8.8460 C.3    34  ALA34       0.0290
     40  N        -26.3280   26.2290    9.5620 N.3    36  LYS36      -0.1245
     41  CA       -27.4600   26.1910    8.6380 C.3    36  LYS36       0.1561
     42  C        -28.5130   27.2060    9.0470 C.2    36  LYS36       0.2260
     43  O        -29.2590   26.9870   10.0150 O.2    36  LYS36      -0.2867
     44  CB       -28.0660   24.8020    8.5840 C.3    36  LYS36       0.0271
     45  CG       -29.2510   24.6630    7.6350 C.3    36  LYS36       0.0035
     46  CD       -29.6830   23.2310    7.4920 C.3    36  LYS36       0.0206
     47  CE       -30.8830   23.0780    6.5960 C.3    36  LYS36       0.1093
     48  NZ       -31.1220   21.5800    6.2980 N.3    36  LYS36      -0.1314
     49  N        -37.4670   18.7790   11.5300 N.3    52  GLU52      -0.1245
     50  CA       -36.0640   18.5760   11.1970 C.3    52  GLU52       0.1567
     51  C        -35.2320   18.5480   12.4610 C.2    52  GLU52       0.2260
     52  O        -34.3700   17.6990   12.5990 O.2    52  GLU52      -0.2867
     53  CB       -35.5340   19.6520   10.2340 C.3    52  GLU52       0.0388
     54  CG       -34.0870   19.4410    9.8070 C.3    52  GLU52       0.1160
     55  CD       -33.5870   20.3200    8.6560 C.2    52  GLU52       0.3649
     56  OE1      -34.3610   21.1710    8.1510 O.co2  52  GLU52      -0.2457
     57  OE2      -32.3910   20.1650    8.2640 O.co2  52  GLU52      -0.2457
     58  N        -32.9960   15.5930   14.2560 N.3    56  LEU56      -0.1245
     59  CA       -31.5730   15.7280   14.5150 C.3    56  LEU56       0.1561
     60  C        -31.2160   15.5660   15.9960 C.2    56  LEU56       0.2260
     61  O        -30.1930   14.9670   16.3280 O.2    56  LEU56      -0.2867
     62  CB       -31.0800   17.0450   13.9960 C.3    56  LEU56       0.0270
     63  CG       -31.0530   17.2590   12.5070 C.3    56  LEU56       0.0019
     64  CD1      -30.9110   18.7520   12.1760 C.3    56  LEU56       0.0001
     65  CD2      -29.8940   16.4790   11.9350 C.3    56  LEU56       0.0001
     66  N        -24.7300   13.0030   10.6310 N.3    65  ILE65      -0.1245
     67  CA       -24.3780   14.3550   11.0640 C.3    65  ILE65       0.1561
     68  C        -24.9280   14.6740   12.4590 C.2    65  ILE65       0.2260
     69  O        -26.0300   14.2720   12.8190 O.2    65  ILE65      -0.2867
     70  CB       -24.8380   15.3960    9.9940 C.3    65  ILE65       0.0252
     71  CG1      -24.0530   16.6920   10.1260 C.3    65  ILE65       0.0019
     72  CG2      -26.3460   15.6450   10.0500 C.3    65  ILE65       0.0019
     73  CD1      -22.6840   16.6010    9.4630 C.3    65  ILE65       0.0001
     74  N        -24.0880   22.6840   13.1500 N.3    81  LEU81      -0.1231
     75  CA       -23.9420   21.2800   12.7970 C.3    81  LEU81       0.1693
     76  C        -22.4700   20.9150   12.7250 C.2    81  LEU81       0.2592
     77  O        -21.6100   21.7490   12.6010 O.2    81  LEU81      -0.2718
     78  CB       -24.5550   21.0520   11.4340 C.3    81  LEU81       0.0284
     79  CG       -26.0650   21.2360   11.3410 C.3    81  LEU81       0.0019
     80  CD1      -26.4470   21.6750    9.9230 C.3    81  LEU81       0.0001
     81  CD2      -26.7580   19.9310   11.7430 C.3    81  LEU81       0.0001
     82  N        -22.2070   19.6450   12.7920 N.am   82  GLU82      -0.1966
     83  CA       -20.8700   19.1090   12.6500 C.3    82  GLU82       0.1733
     84  C        -20.4030   19.4380   11.2390 C.2    82  GLU82       0.2616
     85  O        -21.1690   19.3190   10.2840 O.2    82  GLU82      -0.2715
     86  CB       -20.9310   17.5930   12.9020 C.3    82  GLU82       0.0429
     87  CG       -19.7760   16.7420   12.4400 C.3    82  GLU82       0.1163
     88  CD       -19.8880   15.2900   12.8600 C.2    82  GLU82       0.3649
     89  OE1      -21.0640   14.7470   12.8540 O.co2  82  GLU82      -0.2457
     90  OE2      -18.7860   14.6820   13.1390 O.co2  82  GLU82      -0.2457
     91  N        -19.1670   19.8730   11.1130 N.am   83  LEU83      -0.1963
     92  CA       -18.5810   20.1610    9.8120 C.3    83  LEU83       0.1728
     93  C        -17.9810   18.9180    9.1370 C.2    83  LEU83       0.2616
     94  O        -17.1020   18.2560    9.6810 O.2    83  LEU83      -0.2715
     95  CB       -17.4760   21.2240    9.9860 C.3    83  LEU83       0.0311
     96  CG       -16.7690   21.6100    8.6730 C.3    83  LEU83       0.0022
     97  CD1      -17.7710   22.1810    7.6690 C.3    83  LEU83       0.0001
     98  CD2      -15.6180   22.5860    8.9620 C.3    83  LEU83       0.0001
     99  N        -18.4130   18.6370    7.9300 N.am   84  VAL84      -0.1977
    100  CA       -17.7940   17.5350    7.1530 C.3    84  VAL84       0.1596
    101  C        -16.8420   18.1630    6.1500 C.2    84  VAL84       0.2287
    102  O        -17.2720   18.9500    5.2750 O.2    84  VAL84      -0.2864
    103  CB       -18.7930   16.6530    6.4220 C.3    84  VAL84       0.0276
    104  CG1      -19.6990   15.9520    7.4150 C.3    84  VAL84       0.0022
    105  CG2      -19.6380   17.4590    5.4260 C.3    84  VAL84       0.0022
    106  N        -15.8160   16.2970    1.6940 N.3    87  GLY87      -0.1225
    107  CA       -16.4680   16.4370    0.3980 C.3    87  GLY87       0.1811
    108  C        -17.4000   15.2850    0.1380 C.2    87  GLY87       0.2280
    109  O        -17.5890   14.4030    1.0100 O.2    87  GLY87      -0.2866
    110  N        -25.7670   13.9920   -0.6950 N.3   132  ASN132     -0.1240
    111  CA       -25.9620   13.9140    0.7430 C.3   132  ASN132      0.1653
    112  C        -25.1310   12.8590    1.4770 C.2   132  ASN132      0.2266
    113  O        -25.3120   12.7230    2.7070 O.2   132  ASN132     -0.2867
    114  CB       -27.4640   13.7610    1.0690 C.3   132  ASN132      0.1155
    115  CG       -28.2650   14.9890    0.6620 C.2   132  ASN132      0.2627
    116  OD1      -27.7320   16.1080    0.7010 O.2   132  ASN132     -0.2716
    117  ND2      -29.5120   14.7970    0.2550 N.am  132  ASN132     -0.0877
    118  N        -21.4840   12.2770    2.5960 N.3   134  MET134     -0.1245
    119  CA       -20.2450   13.0510    2.7100 C.3   134  MET134      0.1570
    120  C        -19.1860   12.2380    3.4310 C.2   134  MET134      0.2261
    121  O        -19.4930   11.3030    4.1470 O.2   134  MET134     -0.2867
    122  CB       -20.5150   14.3650    3.4770 C.3   134  MET134      0.0387
    123  CG       -21.6090   15.2290    2.8770 C.3   134  MET134      0.0595
    124  SD       -21.1270   15.9910    1.3150 S.3   134  MET134     -0.1393
    125  CE       -19.9830   17.2220    1.8510 C.3   134  MET134      0.0692
    126  N        -26.0920   13.5600    5.6110 N.3   148  ILE148     -0.1231
    127  CA       -26.5280   14.8870    5.8660 C.3   148  ILE148      0.1692
    128  C        -27.9070   15.1580    5.2780 C.2   148  ILE148      0.2592
    129  O        -28.4580   14.3670    4.4740 O.2   148  ILE148     -0.2718
    130  CB       -25.5150   15.9090    5.3150 C.3   148  ILE148      0.0266
    131  CG1      -25.4790   15.9010    3.7660 C.3   148  ILE148      0.0019
    132  CG2      -24.1000   15.6400    5.9100 C.3   148  ILE148      0.0020
    133  CD1      -24.8120   17.1490    3.2240 C.3   148  ILE148      0.0001
    134  N        -28.4440   16.3030    5.6960 N.am  149  ASP149     -0.1960
    135  CA       -29.6140   16.9510    5.1340 C.3   149  ASP149      0.1840
    136  C        -30.9000   16.1580    5.4290 C.2   149  ASP149      0.2622
    137  O        -31.3910   15.3700    4.6220 O.2   149  ASP149     -0.2715
    138  CB       -29.4510   17.2120    3.6250 C.3   149  ASP149      0.1450
    139  CG       -30.5470   18.1280    3.0620 C.2   149  ASP149      0.3671
    140  OD1      -31.4560   18.5650    3.8320 O.co2 149  ASP149     -0.2456
    141  OD2      -30.4820   18.4310    1.8380 O.co2 149  ASP149     -0.2456
    142  N        -31.4450   16.4470    6.6010 N.am  150  PHE150     -0.1974
    143  CA       -32.6630   15.8500    7.1160 C.3   150  PHE150      0.1639
    144  C        -33.8400   16.8070    6.8820 C.2   150  PHE150      0.2290
    145  O        -34.8340   16.8220    7.6340 O.2   150  PHE150     -0.2864
    146  CB       -32.4550   15.4640    8.6100 C.3   150  PHE150      0.0560
    147  CG       -31.5870   14.2620    8.7690 C.ar  150  PHE150     -0.0200
    148  CD1      -30.2320   14.3400    8.5430 C.ar  150  PHE150     -0.0042
    149  CD2      -32.1440   13.0210    9.0680 C.ar  150  PHE150     -0.0042
    150  CE1      -29.4150   13.2110    8.6440 C.ar  150  PHE150     -0.0003
    151  CE2      -31.3670   11.8880    9.1480 C.ar  150  PHE150     -0.0003
    152  CZ       -29.9930   11.9900    8.9320 C.ar  150  PHE150     -0.0000
@<TRIPOS>BOND
     1    16    15    2
     2    17    18    1
     3    17    14    1
     4    15    14    1
     5    15    19   am
     6    22    21    2
     7    21    20    1
     8    20    19    1
     9   110   111    1
    10    13    14    1
    11    13    11   am
    12     4     3    2
    13    10    11    1
    14    10     9    1
    15   108   107    1
    16   108   109    2
    17   117   115   am
    18    11    12    2
    19   107   106    1
    20     3     9   am
    21     3     2    1
    22   115   116    2
    23   115   114    1
    24   111   114    1
    25   111   112    1
    26   124   125    1
    27   124   123    1
    28     2     1    1
    29     2     5    1
    30   112   113    2
    31   141   139   ar
    32    26    25    2
    33   118   119    1
    34     5     6    1
    35   119   120    1
    36   119   122    1
    37   123   122    1
    38    23    24    1
    39   139   138    1
    40   139   140   ar
    41     8     6    1
    42    25    24    1
    43   133   131    1
    44   120   121    2
    45   138   135    1
    46     6     7    1
    47   131   130    1
    48    31    30    2
    49    24    27    1
    50    28    29    1
    51   129   128    2
    52   137   136    2
    53    32    34    1
    54    32    29    1
    55    32    33    1
    56    30    29    1
    57   135   136    1
    58   135   134    1
    59   102   101    2
    60   128   134   am
    61   128   127    1
    62   130   127    1
    63   130   132    1
    64   105   103    1
    65   136   142   am
    66   126   127    1
    67   101   100    1
    68    48    47    1
    69   103   100    1
    70   103   104    1
    71    47    46    1
    72   142   143    1
    73   144   143    1
    74   144   145    2
    75   143   146    1
    76   100    99    1
    77    46    45    1
    78    45    44    1
    79    97    96    1
    80    99    93   am
    81    56    55   ar
    82    57    55   ar
    83   148   150   ar
    84   148   147   ar
    85    44    41    1
    86   146   147    1
    87    41    42    1
    88    41    40    1
    89   150   152   ar
    90    55    54    1
    91    96    98    1
    92    96    95    1
    93   147   149   ar
    94    39    36    1
    95   152   151   ar
    96    42    43    2
    97   149   151   ar
    98    93    94    2
    99    93    92    1
   100    73    71    1
   101    36    37    1
   102    36    35    1
   103    54    53    1
   104    92    95    1
   105    92    91    1
   106    80    79    1
   107    70    72    1
   108    70    71    1
   109    70    67    1
   110    53    50    1
   111    85    84    2
   112    37    38    2
   113    66    67    1
   114    67    68    1
   115    91    84   am
   116    50    49    1
   117    50    51    1
   118    84    83    1
   119    79    78    1
   120    79    81    1
   121    78    75    1
   122    65    63    1
   123    64    63    1
   124    87    88    1
   125    87    86    1
   126    68    69    2
   127    51    52    2
   128    63    62    1
   129    77    76    2
   130    83    82    1
   131    83    86    1
   132    76    82   am
   133    76    75    1
   134    75    74    1
   135    89    88   ar
   136    88    90   ar
   137    62    59    1
   138    58    59    1
   139    59    60    1
   140    60    61    2
