@<TRIPOS>MOLECULE
tmp/5vjaD01.pdb
 152 140 0 0 0
SMALL
GASTEIGER

@<TRIPOS>ATOM
      1  N        -18.6580   19.9010   42.0560 N.3    13  LEU13      -0.1231
      2  CA       -17.2450   19.8480   42.4340 C.3    13  LEU13       0.1693
      3  C        -16.7150   21.1260   43.1110 C.2    13  LEU13       0.2593
      4  O        -15.6860   21.0970   43.8100 O.2    13  LEU13      -0.2718
      5  CB       -16.3920   19.5470   41.1940 C.3    13  LEU13       0.0284
      6  CG       -16.7870   18.3280   40.3450 C.3    13  LEU13       0.0019
      7  CD1      -16.0290   18.3510   39.0070 C.3    13  LEU13       0.0001
      8  CD2      -16.5770   17.0190   41.1070 C.3    13  LEU13       0.0001
      9  N        -17.4060   22.2430   42.9130 N.am   14  GLY14      -0.1942
     10  CA       -16.9240   23.5400   43.3650 C.3    14  GLY14       0.2014
     11  C        -17.9800   24.6120   43.1630 C.2    14  GLY14       0.2640
     12  O        -18.7230   24.5800   42.1810 O.2    14  GLY14      -0.2714
     13  N        -18.0490   25.5570   44.1110 N.am   15  SER15      -0.1935
     14  CA       -18.8330   26.7590   43.9540 C.3    15  SER15       0.2055
     15  C        -17.9210   27.9500   44.2140 C.2    15  SER15       0.2643
     16  O        -17.0920   27.9040   45.1280 O.2    15  SER15      -0.2714
     17  CB       -20.0490   26.7550   44.8640 C.3    15  SER15       0.2130
     18  OG       -21.1020   26.0870   44.1620 O.3    15  SER15      -0.2179
     19  N        -18.0380   28.9530   43.3410 N.am   16  GLY16      -0.1954
     20  CA       -17.3880   30.2380   43.4920 C.3    16  GLY16       0.1869
     21  C        -18.5260   31.2150   43.6740 C.2    16  GLY16       0.2309
     22  O        -19.6660   30.7870   43.9520 O.2    16  GLY16      -0.2863
     23  N        -20.1730   31.1540   39.9670 N.3    19  ALA19      -0.1245
     24  CA       -19.8620   29.9520   39.1800 C.3    19  ALA19       0.1562
     25  C        -20.1480   28.6940   39.9900 C.2    19  ALA19       0.2260
     26  O        -19.8790   28.6480   41.1920 O.2    19  ALA19      -0.2867
     27  CB       -18.3940   29.9490   38.7500 C.3    19  ALA19       0.0290
     28  N        -19.3310   24.4320   39.3500 N.3    21  VAL21      -0.1245
     29  CA       -18.6330   23.4800   38.4880 C.3    21  VAL21       0.1561
     30  C        -19.1080   22.0740   38.8190 C.2    21  VAL21       0.2260
     31  O        -19.0500   21.6490   39.9630 O.2    21  VAL21      -0.2867
     32  CB       -17.0970   23.5600   38.6600 C.3    21  VAL21       0.0252
     33  CG1      -16.3780   22.4900   37.8040 C.3    21  VAL21       0.0019
     34  CG2      -16.6020   24.9560   38.2690 C.3    21  VAL21       0.0019
     35  N        -15.4560   18.6840   32.9600 N.3    34  ALA34      -0.1245
     36  CA       -15.9280   19.5910   34.0090 C.3    34  ALA34       0.1562
     37  C        -16.7860   20.6600   33.3420 C.2    34  ALA34       0.2260
     38  O        -16.3910   21.1940   32.2780 O.2    34  ALA34      -0.2867
     39  CB       -14.7460   20.2400   34.7080 C.3    34  ALA34       0.0290
     40  N        -18.5970   24.2660   33.8210 N.3    36  LYS36      -0.1245
     41  CA       -18.5800   25.4660   34.6440 C.3    36  LYS36       0.1561
     42  C        -19.7040   26.3870   34.2220 C.2    36  LYS36       0.2260
     43  O        -19.6210   27.0450   33.1680 O.2    36  LYS36      -0.2867
     44  CB       -17.2410   26.1780   34.5170 C.3    36  LYS36       0.0271
     45  CG       -17.1280   27.4480   35.3410 C.3    36  LYS36       0.0035
     46  CD       -15.7010   27.9720   35.2930 C.3    36  LYS36       0.0206
     47  CE       -15.6060   29.3300   35.9720 C.3    36  LYS36       0.1093
     48  NZ       -14.2750   29.9250   35.8790 N.3    36  LYS36      -0.1314
     49  N        -12.8710   36.0810   29.9860 N.3    53  GLU53      -0.1245
     50  CA       -12.4240   34.7750   30.4120 C.3    53  GLU53       0.1567
     51  C        -12.3330   33.8390   29.2220 C.2    53  GLU53       0.2260
     52  O        -11.3860   33.0940   29.0980 O.2    53  GLU53      -0.2867
     53  CB       -13.3510   34.1810   31.4820 C.3    53  GLU53       0.0388
     54  CG       -12.9050   32.8110   32.0010 C.3    53  GLU53       0.1160
     55  CD       -13.6740   32.3210   33.2330 C.2    53  GLU53       0.3649
     56  OE1      -14.6030   33.0130   33.7430 O.co2  53  GLU53      -0.2457
     57  OE2      -13.3370   31.1960   33.7050 O.co2  53  GLU53      -0.2457
     58  N         -9.1660   31.9220   27.4500 N.3    57  LEU57      -0.1245
     59  CA        -9.1300   30.4610   27.2610 C.3    57  LEU57       0.1561
     60  C         -8.9370   30.0610   25.8060 C.2    57  LEU57       0.2260
     61  O         -8.2080   29.1170   25.5230 O.2    57  LEU57      -0.2867
     62  CB       -10.4050   29.8000   27.8110 C.3    57  LEU57       0.0270
     63  CG       -10.5020   29.8580   29.3320 C.3    57  LEU57       0.0019
     64  CD1      -11.9380   29.5730   29.7780 C.3    57  LEU57       0.0001
     65  CD2       -9.5130   28.8790   29.9920 C.3    57  LEU57       0.0001
     66  N         -5.3560   24.2930   31.5460 N.3    66  ILE66      -0.1245
     67  CA        -6.6640   23.7230   31.2750 C.3    66  ILE66       0.1561
     68  C         -7.1630   24.0670   29.8430 C.2    66  ILE66       0.2260
     69  O         -6.9450   25.1560   29.3230 O.2    66  ILE66      -0.2867
     70  CB        -7.6940   24.1780   32.3460 C.3    66  ILE66       0.0252
     71  CG1       -8.9050   23.2210   32.4040 C.3    66  ILE66       0.0019
     72  CG2       -8.1320   25.6410   32.1400 C.3    66  ILE66       0.0019
     73  CD1       -8.6230   21.9840   33.2010 C.3    66  ILE66       0.0001
     74  N        -15.0130   22.1070   30.1840 N.3    82  LEU82      -0.1231
     75  CA       -13.5760   22.1730   30.3690 C.3    82  LEU82       0.1693
     76  C        -13.0460   20.7620   30.5490 C.2    82  LEU82       0.2592
     77  O        -13.7850   19.8120   30.8800 O.2    82  LEU82      -0.2718
     78  CB       -13.2880   22.9690   31.6080 C.3    82  LEU82       0.0284
     79  CG       -13.6560   24.4580   31.5480 C.3    82  LEU82       0.0019
     80  CD1      -14.0070   25.0320   32.9240 C.3    82  LEU82       0.0001
     81  CD2      -12.4890   25.2400   30.9130 C.3    82  LEU82       0.0001
     82  N        -11.7470   20.6440   30.3310 N.am   83  GLU83      -0.1966
     83  CA       -11.0310   19.4100   30.5590 C.3    83  GLU83       0.1733
     84  C        -11.1800   19.0640   32.0400 C.2    83  GLU83       0.2616
     85  O        -11.0810   19.9420   32.9030 O.2    83  GLU83      -0.2715
     86  CB        -9.5700   19.6460   30.1560 C.3    83  GLU83       0.0429
     87  CG        -8.5040   18.6880   30.6920 C.3    83  GLU83       0.1163
     88  CD        -7.1110   19.0020   30.0900 C.2    83  GLU83       0.3649
     89  OE1       -6.7500   20.2050   29.8860 O.co2  83  GLU83      -0.2457
     90  OE2       -6.3650   18.0240   29.7890 O.co2  83  GLU83      -0.2457
     91  N        -11.4760   17.8070   32.3310 N.am   84  LEU84      -0.1963
     92  CA       -11.5990   17.3570   33.7170 C.3    84  LEU84       0.1728
     93  C        -10.2340   16.9410   34.3000 C.2    84  LEU84       0.2616
     94  O         -9.5290   16.0800   33.7460 O.2    84  LEU84      -0.2715
     95  CB       -12.5470   16.1690   33.8420 C.3    84  LEU84       0.0311
     96  CG       -12.6960   15.5420   35.2180 C.3    84  LEU84       0.0022
     97  CD1      -13.2820   16.5650   36.1620 C.3    84  LEU84       0.0001
     98  CD2      -13.5340   14.2810   35.1610 C.3    84  LEU84       0.0001
     99  N         -9.8810   17.5190   35.4350 N.am   85  VAL85      -0.1977
    100  CA        -8.6820   17.0480   36.1380 C.3    85  VAL85       0.1596
    101  C         -9.0740   16.0880   37.2510 C.2    85  VAL85       0.2287
    102  O         -9.7730   16.4890   38.1680 O.2    85  VAL85      -0.2864
    103  CB        -7.8160   18.1860   36.6940 C.3    85  VAL85       0.0276
    104  CG1       -6.3610   17.8210   36.4000 C.3    85  VAL85       0.0022
    105  CG2       -8.1700   19.5760   36.1050 C.3    85  VAL85       0.0022
    106  N         -7.0480   15.8270   41.3890 N.3    88  GLY88      -0.1225
    107  CA        -7.3140   16.6880   42.5390 C.3    88  GLY88       0.1811
    108  C         -6.3020   17.8240   42.6410 C.2    88  GLY88       0.2280
    109  O         -5.4880   18.0150   41.7520 O.2    88  GLY88      -0.2866
    110  N         -5.9150   26.1710   42.7490 N.3   130  ASN130     -0.1240
    111  CA        -5.9570   26.2560   41.2970 C.3   130  ASN130      0.1653
    112  C         -4.8440   25.5190   40.5350 C.2   130  ASN130      0.2266
    113  O         -4.7660   25.6440   39.3380 O.2   130  ASN130     -0.2867
    114  CB        -6.0100   27.7520   40.8700 C.3   130  ASN130      0.1155
    115  CG        -7.3000   28.4090   41.2920 C.2   130  ASN130      0.2627
    116  OD1       -8.3410   27.7350   41.3810 O.2   130  ASN130     -0.2716
    117  ND2       -7.2450   29.7150   41.6030 N.am  130  ASN130     -0.0877
    118  N         -4.0080   21.8460   39.6280 N.3   132  MET132     -0.1245
    119  CA        -4.5920   20.5210   39.6200 C.3   132  MET132      0.1570
    120  C         -3.6550   19.4940   38.9790 C.2   132  MET132      0.2261
    121  O         -2.8040   19.8400   38.1950 O.2   132  MET132     -0.2867
    122  CB        -5.9100   20.5370   38.8710 C.3   132  MET132      0.0387
    123  CG        -6.9380   21.5400   39.3670 C.3   132  MET132      0.0595
    124  SD        -7.6340   21.1890   41.0020 S.3   132  MET132     -0.1393
    125  CE        -8.6320   19.7830   40.6080 C.3   132  MET132      0.0692
    126  N         -5.7900   26.1150   36.4550 N.3   144  ILE144     -0.1231
    127  CA        -7.1830   26.3480   36.2330 C.3   144  ILE144      0.1692
    128  C         -7.6230   27.7040   36.7340 C.2   144  ILE144      0.2592
    129  O         -6.8690   28.4150   37.4480 O.2   144  ILE144     -0.2718
    130  CB        -8.0540   25.2480   36.9120 C.3   144  ILE144      0.0266
    131  CG1       -7.9940   25.3230   38.4360 C.3   144  ILE144      0.0019
    132  CG2       -7.6190   23.8540   36.4510 C.3   144  ILE144      0.0020
    133  CD1       -9.1320   24.5800   39.1040 C.3   144  ILE144      0.0001
    134  N         -8.8530   28.0470   36.3350 N.am  145  ASP145     -0.1960
    135  CA        -9.6080   29.1820   36.8620 C.3   145  ASP145      0.1840
    136  C         -9.0260   30.5150   36.4000 C.2   145  ASP145      0.2622
    137  O         -8.2760   31.1840   37.1110 O.2   145  ASP145     -0.2715
    138  CB        -9.7580   29.1210   38.3890 C.3   145  ASP145      0.1450
    139  CG       -10.7780   30.1040   38.9240 C.2   145  ASP145      0.3671
    140  OD1      -11.3590   30.9310   38.1300 O.co2 145  ASP145     -0.2456
    141  OD2      -11.0240   30.0370   40.1620 O.co2 145  ASP145     -0.2456
    142  N         -9.4510   30.9040   35.1970 N.am  146  PHE146     -0.1974
    143  CA        -9.0670   32.1470   34.5510 C.3   146  PHE146      0.1639
    144  C        -10.1490   33.2090   34.7600 C.2   146  PHE146      0.2290
    145  O        -10.3380   34.1200   33.9430 O.2   146  PHE146     -0.2864
    146  CB        -8.7000   31.8750   33.0720 C.3   146  PHE146      0.0560
    147  CG        -7.3920   31.1590   32.9270 C.ar  146  PHE146     -0.0200
    148  CD1       -7.2880   29.8130   33.2480 C.ar  146  PHE146     -0.0042
    149  CD2       -6.2340   31.8470   32.5750 C.ar  146  PHE146     -0.0042
    150  CE1       -6.0650   29.1550   33.1780 C.ar  146  PHE146     -0.0003
    151  CE2       -5.0160   31.1800   32.4940 C.ar  146  PHE146     -0.0003
    152  CZ        -4.9350   29.8380   32.8020 C.ar  146  PHE146     -0.0000
@<TRIPOS>BOND
     1    61    60    2
     2    60    59    1
     3    59    58    1
     4    59    62    1
     5    62    63    1
     6    52    51    2
     7    51    50    1
     8    69    68    2
     9    63    64    1
    10    63    65    1
    11    90    88   ar
    12    68    67    1
    13    89    88   ar
    14    49    50    1
    15    88    87    1
    16    86    83    1
    17    86    87    1
    18    74    75    1
    19    82    76   am
    20    82    83    1
    21    75    76    1
    22    75    78    1
    23    50    53    1
    24    76    77    2
    25    83    84    1
    26    81    79    1
    27    67    66    1
    28    67    70    1
    29    53    54    1
    30    79    78    1
    31    79    80    1
    32    54    55    1
    33    84    91   am
    34    84    85    2
    35    72    70    1
    36    38    37    2
    37    91    92    1
    38    70    71    1
    39    71    73    1
    40   151   149   ar
    41   151   152   ar
    42   149   147   ar
    43   152   150   ar
    44   147   146    1
    45   147   148   ar
    46    35    36    1
    47   146   143    1
    48    43    42    2
    49   150   148   ar
    50    55    57   ar
    51    55    56   ar
    52    37    36    1
    53    92    95    1
    54    92    93    1
    55    94    93    2
    56    40    41    1
    57    95    96    1
    58   145   144    2
    59    36    39    1
    60    42    41    1
    61    93    99   am
    62    44    41    1
    63    44    45    1
    64   143   144    1
    65   143   142    1
    66    98    96    1
    67   142   136   am
    68    96    97    1
    69    46    45    1
    70    46    47    1
    71    99   100    1
    72    48    47    1
    73   105   103    1
    74   100   103    1
    75   100   101    1
    76   127   126    1
    77   127   128    1
    78   127   130    1
    79   134   128   am
    80   134   135    1
    81   104   103    1
    82   136   135    1
    83   136   137    2
    84   132   130    1
    85   128   129    2
    86   135   138    1
    87   130   131    1
    88   101   102    2
    89    33    32    1
    90   140   139   ar
    91   121   120    2
    92    34    32    1
    93   138   139    1
    94   131   133    1
    95    29    32    1
    96    29    30    1
    97    29    28    1
    98    27    24    1
    99    30    31    2
   100   122   123    1
   101   122   119    1
   102   139   141   ar
   103   120   119    1
   104     7     6    1
   105    24    23    1
   106    24    25    1
   107   113   112    2
   108   123   124    1
   109   119   118    1
   110    25    26    2
   111     6     8    1
   112     6     5    1
   113   112   111    1
   114   125   124    1
   115   114   115    1
   116   114   111    1
   117     5     2    1
   118   115   116    2
   119   115   117   am
   120   111   110    1
   121   106   107    1
   122   109   108    2
   123     1     2    1
   124    12    11    2
   125     2     3    1
   126   107   108    1
   127     9     3   am
   128     9    10    1
   129     3     4    2
   130    11    10    1
   131    11    13   am
   132    19    20    1
   133    19    15   am
   134    20    21    1
   135    21    22    2
   136    14    13    1
   137    14    15    1
   138    14    17    1
   139    18    17    1
   140    15    16    2
