@<TRIPOS>MOLECULE
tmp/5vjgA00.pdb
 125 115 0 0 0
SMALL
GASTEIGER

@<TRIPOS>ATOM
      1  N          8.0700   10.6080   19.0220 N.3    46  CYS46      -0.1221
      2  CA         7.8840   10.5580   20.4970 C.3    46  CYS46       0.1808
      3  C          7.5990    9.1360   20.9490 C.2    46  CYS46       0.2601
      4  O          6.9940    8.3380   20.2040 O.2    46  CYS46      -0.2717
      5  CB         6.7130   11.4730   20.9360 C.3    46  CYS46       0.0970
      6  SG         6.2310   11.5220   22.7120 S.3    46  CYS46      -0.0800
      7  N          7.9540    8.8390   22.2030 N.am   47  ARG47      -0.1965
      8  CA         7.6510    7.5660   22.8170 C.3    47  ARG47       0.1729
      9  C          6.1650    7.2500   22.6900 C.2    47  ARG47       0.2616
     10  O          5.8000    6.1010   22.4490 O.2    47  ARG47      -0.2715
     11  CB         8.0560    7.5750   24.2960 C.3    47  ARG47       0.0348
     12  CG         7.8960    6.2310   25.0260 C.3    47  ARG47       0.0492
     13  CD         8.8480    5.1330   24.5400 C.3    47  ARG47       0.2205
     14  NE        10.2550    5.5630   24.6080 N.pl3  47  ARG47      -0.0865
     15  CZ        11.3270    4.8610   24.2000 C.cat  47  ARG47       0.5346
     16  NH1       11.2160    3.6270   23.6850 N.pl3  47  ARG47       0.1354
     17  NH2       12.5410    5.4110   24.3240 N.pl3  47  ARG47       0.1354
     18  N          5.2900    8.2500   22.8650 N.am   48  SER48      -0.1950
     19  CA         3.8700    7.9580   22.7670 C.3    48  SER48       0.1924
     20  C          3.4180    7.4840   21.3960 C.2    48  SER48       0.2314
     21  O          2.4620    6.6790   21.2950 O.2    48  SER48      -0.2863
     22  CB         3.0300    9.1240   23.2680 C.3    48  SER48       0.2116
     23  OG         3.1460    9.2360   24.6550 O.3    48  SER48      -0.2180
     24  N         -1.0240    2.1620   23.7900 N.3    57  LEU57      -0.1245
     25  CA        -1.9430    3.2910   23.6430 C.3    57  LEU57       0.1561
     26  C         -3.0600    2.8450   22.7100 C.2    57  LEU57       0.2260
     27  O         -2.9500    2.9110   21.4820 O.2    57  LEU57      -0.2867
     28  CB        -1.2310    4.5610   23.1650 C.3    57  LEU57       0.0270
     29  CG        -1.8930    5.9300   23.4830 C.3    57  LEU57       0.0019
     30  CD1       -0.9510    7.0920   23.1950 C.3    57  LEU57       0.0001
     31  CD2       -3.1980    6.1800   22.7300 C.3    57  LEU57       0.0001
     32  N          2.2350   13.4330   16.6900 N.3    67  HIS67      -0.1241
     33  CA         1.5780   14.5050   17.4440 C.3    67  HIS67       0.1621
     34  C          2.5330   15.5820   17.9060 C.2    67  HIS67       0.2264
     35  O          2.1300   16.5190   18.5410 O.2    67  HIS67      -0.2867
     36  CB         0.8620   13.8330   18.6660 C.3    67  HIS67       0.0745
     37  CG         1.8050   13.2210   19.6450 C.ar   67  HIS67       0.0817
     38  ND1        2.3560   11.9790   19.4530 N.ar   67  HIS67      -0.2268
     39  CD2        2.3660   13.7100   20.7760 C.ar   67  HIS67       0.1154
     40  CE1        3.1830   11.7120   20.4410 C.ar   67  HIS67       0.1986
     41  NE2        3.1970   12.7420   21.2650 N.ar   67  HIS67      -0.2212
     42  N         -1.8870   18.4130   20.4800 N.3    93  PHE93      -0.1241
     43  CA        -2.4730   17.1140   20.8340 C.3    93  PHE93       0.1605
     44  C         -3.3850   17.1610   22.0740 C.2    93  PHE93       0.2264
     45  O         -4.3220   16.3510   22.1990 O.2    93  PHE93      -0.2867
     46  CB        -1.3800   16.0310   20.9600 C.3    93  PHE93       0.0534
     47  CG        -0.6060   16.0620   22.2230 C.ar   93  PHE93      -0.0203
     48  CD1       -1.0820   15.3970   23.3660 C.ar   93  PHE93      -0.0042
     49  CD2        0.6300   16.6790   22.2840 C.ar   93  PHE93      -0.0042
     50  CE1       -0.3560   15.3830   24.5630 C.ar   93  PHE93      -0.0003
     51  CE2        1.3350   16.6960   23.4810 C.ar   93  PHE93      -0.0003
     52  CZ         0.8730   15.9860   24.6050 C.ar   93  PHE93      -0.0000
     53  N         -7.8240   11.5380   24.0340 N.3   116  LEU116     -0.1245
     54  CA        -6.8710   10.6600   24.6790 C.3   116  LEU116      0.1561
     55  C         -7.6010    9.7250   25.6170 C.2   116  LEU116      0.2260
     56  O         -7.3670    8.5260   25.5740 O.2   116  LEU116     -0.2867
     57  CB        -5.8080   11.5070   25.4040 C.3   116  LEU116      0.0270
     58  CG        -4.6980   10.8300   26.1860 C.3   116  LEU116      0.0019
     59  CD1       -3.8880    9.8680   25.3300 C.3   116  LEU116      0.0001
     60  CD2       -3.8090   11.8880   26.7850 C.3   116  LEU116      0.0001
     61  N         -5.1000   11.6780   18.1850 N.3   141  LEU141     -0.1245
     62  CA        -5.1030   12.8410   19.0890 C.3   141  LEU141      0.1561
     63  C         -5.4700   14.1700   18.4310 C.2   141  LEU141      0.2260
     64  O         -4.9380   15.2370   18.8280 O.2   141  LEU141     -0.2867
     65  CB        -3.7280   12.9740   19.7770 C.3   141  LEU141      0.0270
     66  CG        -3.2980   11.7490   20.5330 C.3   141  LEU141      0.0019
     67  CD1       -1.9390   12.0510   21.1760 C.3   141  LEU141      0.0001
     68  CD2       -4.3920   11.3200   21.5130 C.3   141  LEU141      0.0001
     69  N          5.3610   18.6270   21.8570 N.3   174  CYS174     -0.1221
     70  CA         5.2720   17.6570   22.9260 C.3   174  CYS174      0.1808
     71  C          6.4060   17.6060   23.8780 C.2   174  CYS174      0.2601
     72  O          6.2330   17.9710   25.0490 O.2   174  CYS174     -0.2717
     73  CB         5.0130   16.2230   22.4000 C.3   174  CYS174      0.0970
     74  SG         4.6100   15.0950   23.7880 S.3   174  CYS174     -0.0800
     75  N          7.5530   17.1280   23.3890 N.am  175  GLY175     -0.1957
     76  CA         8.6170   16.6620   24.2520 C.3   175  GLY175      0.1869
     77  C          9.2390   17.6990   25.1860 C.2   175  GLY175      0.2309
     78  O          9.4770   17.4280   26.4050 O.2   175  GLY175     -0.2863
     79  N          6.4100   19.3890   27.6000 N.3   178  THR178     -0.1218
     80  CA         6.0980   18.4190   28.6270 C.3   178  THR178      0.1862
     81  C          7.1530   18.4300   29.7430 C.2   178  THR178      0.2287
     82  O          6.8370   18.5790   30.9070 O.2   178  THR178     -0.2866
     83  CB         5.9880   16.9980   28.0380 C.3   178  THR178      0.1770
     84  OG1        4.8490   16.9220   27.1690 O.3   178  THR178     -0.2211
     85  CG2        5.8400   15.9280   29.1670 C.3   178  THR178      0.0375
     86  N         12.7780   14.2150   27.2380 N.3   203  VAL203     -0.1245
     87  CA        11.8420   14.8410   28.1320 C.3   203  VAL203      0.1561
     88  C         12.5640   15.1400   29.4830 C.2   203  VAL203      0.2260
     89  O         12.3460   16.1670   30.0700 O.2   203  VAL203     -0.2867
     90  CB        10.5890   13.9780   28.3030 C.3   203  VAL203      0.0252
     91  CG1        9.6320   14.6460   29.3130 C.3   203  VAL203      0.0019
     92  CG2        9.9340   13.7670   26.9330 C.3   203  VAL203      0.0019
     93  N         10.6370   10.6580   34.9510 N.3   268  VAL268     -0.1245
     94  CA        10.3780   10.9100   33.5420 C.3   268  VAL268      0.1561
     95  C         10.4750    9.6420   32.6900 C.2   268  VAL268      0.2260
     96  O         10.1590    9.6950   31.5110 O.2   268  VAL268     -0.2867
     97  CB        11.1770   12.0990   32.9860 C.3   268  VAL268      0.0252
     98  CG1       11.4950   13.1170   34.0970 C.3   268  VAL268      0.0019
     99  CG2       12.4380   11.6280   32.3080 C.3   268  VAL268      0.0019
    100  N          5.8770   12.4380   35.1320 N.3   292  VAL292     -0.1231
    101  CA         5.9090   12.9740   33.7320 C.3   292  VAL292      0.1692
    102  C          5.5720   11.8970   32.6850 C.2   292  VAL292      0.2593
    103  O          4.6830   12.1020   31.8480 O.2   292  VAL292     -0.2718
    104  CB         7.2760   13.6760   33.4430 C.3   292  VAL292      0.0266
    105  CG1        7.3180   14.4190   32.1240 C.3   292  VAL292      0.0020
    106  CG2        7.6180   14.6350   34.5410 C.3   292  VAL292      0.0020
    107  N          6.2760   10.7650   32.6950 N.am  293  GLY293     -0.1942
    108  CA         6.0060    9.6990   31.7100 C.3   293  GLY293      0.2014
    109  C          5.0400    8.6810   32.2860 C.2   293  GLY293      0.2638
    110  O          4.9320    8.5760   33.4890 O.2   293  GLY293     -0.2714
    111  N          4.3670    7.9030   31.4420 N.am  294  VAL294     -0.1977
    112  CA         3.6590    6.6880   31.9280 C.3   294  VAL294      0.1596
    113  C          3.9030    5.5040   31.0010 C.2   294  VAL294      0.2287
    114  O          4.3780    5.7110   29.8820 O.2   294  VAL294     -0.2864
    115  CB         2.1470    6.9400   32.0610 C.3   294  VAL294      0.0276
    116  CG1        1.4310    6.7080   30.7160 C.3   294  VAL294      0.0022
    117  CG2        1.5410    6.1230   33.2110 C.3   294  VAL294      0.0022
    118  N         -0.4160   16.2500   31.9250 N.3   318  ILE318     -0.1245
    119  CA        -0.2430   16.1090   30.4680 C.3   318  ILE318      0.1561
    120  C          0.2300   17.4600   29.9580 C.2   318  ILE318      0.2260
    121  O         -0.1670   18.4930   30.4630 O.2   318  ILE318     -0.2867
    122  CB        -1.5280   15.6290   29.7880 C.3   318  ILE318      0.0252
    123  CG1       -1.7350   14.1690   30.1840 C.3   318  ILE318      0.0019
    124  CG2       -1.4690   15.6960   28.2370 C.3   318  ILE318      0.0019
    125  CD1       -3.1480   13.6780   29.9890 C.3   318  ILE318      0.0001
@<TRIPOS>BOND
     1    32    33    1
     2    33    34    1
     3    33    36    1
     4    34    35    2
     5    61    62    1
     6    63    64    2
     7    63    62    1
     8    36    37    1
     9     1     2    1
    10    62    65    1
    11    38    37   ar
    12    38    40   ar
    13    37    39   ar
    14    65    66    1
    15     4     3    2
    16    40    41   ar
    17    42    43    1
    18     2     5    1
    19     2     3    1
    20    66    67    1
    21    66    68    1
    22    39    41   ar
    23    43    46    1
    24    43    44    1
    25     5     6    1
    26     3     7   am
    27    46    47    1
    28    21    20    2
    29    20    19    1
    30    27    26    2
    31    69    70    1
    32    44    45    2
    33     7     8    1
    34    47    49   ar
    35    47    48   ar
    36    49    51   ar
    37    73    70    1
    38    73    74    1
    39    10     9    2
    40     9     8    1
    41     9    18   am
    42    26    25    1
    43    31    29    1
    44    19    18    1
    45    19    22    1
    46     8    11    1
    47    70    71    1
    48    28    29    1
    49    28    25    1
    50    30    29    1
    51    22    23    1
    52    48    50   ar
    53    75    71   am
    54    75    76    1
    55    51    52   ar
    56    25    24    1
    57    16    15    1
    58    71    72    2
    59    53    54    1
    60    15    17    1
    61    15    14    2
    62    76    77    1
    63    11    12    1
    64    13    14    1
    65    13    12    1
    66    50    52   ar
    67    54    57    1
    68    54    55    1
    69    77    78    2
    70    59    58    1
    71    57    58    1
    72    56    55    2
    73    58    60    1
    74    92    90    1
    75    84    83    1
    76    86    87    1
    77    79    80    1
    78    83    80    1
    79    83    85    1
    80    87    90    1
    81    87    88    1
    82   124   122    1
    83    90    91    1
    84    80    81    1
    85    88    89    2
    86    81    82    2
    87   122   123    1
    88   122   119    1
    89   114   113    2
    90   120   121    2
    91   120   119    1
    92   125   123    1
    93   119   118    1
    94   116   115    1
    95   113   112    1
    96   111   112    1
    97   111   109   am
    98    96    95    2
    99   108   109    1
   100   108   107    1
   101   103   102    2
   102   112   115    1
   103   115   117    1
   104   105   104    1
   105   109   110    2
   106    99    97    1
   107   102   107   am
   108   102   101    1
   109    95    94    1
   110    97    94    1
   111    97    98    1
   112   104   101    1
   113   104   106    1
   114    94    93    1
   115   101   100    1
