@<TRIPOS>MOLECULE
tmp/5vjhC00.pdb
 173 166 0 0 0
SMALL
GASTEIGER

@<TRIPOS>ATOM
      1  N        128.0800   83.7850  112.9850 N.3    20  ASP20      -0.1225
      2  CA       127.9570   82.9760  114.1710 C.3    20  ASP20       0.1790
      3  C        126.5930   82.3230  114.1410 C.2    20  ASP20       0.2440
      4  O        125.6230   83.0050  113.8490 O.2    20  ASP20      -0.2733
      5  CB       128.1200   83.8460  115.4100 C.3    20  ASP20       0.1423
      6  CG       129.5640   84.3720  115.5430 C.2    20  ASP20       0.3668
      7  OD1      130.4210   83.9370  114.7640 O.co2  20  ASP20      -0.2456
      8  OD2      129.8360   85.1740  116.4100 O.co2  20  ASP20      -0.2456
      9  N        126.4560   81.0330  114.4250 N.am   21  PRO21      -0.2718
     10  CA       125.1760   80.3950  114.4130 C.3    21  PRO21       0.1535
     11  C        124.3820   81.1080  115.4400 C.2    21  PRO21       0.2598
     12  O        124.8760   81.3190  116.5330 O.2    21  PRO21      -0.2715
     13  CB       125.4870   78.9740  114.8480 C.3    21  PRO21       0.0310
     14  CG       126.7510   79.1050  115.6610 C.3    21  PRO21       0.0237
     15  CD       127.5080   80.2840  115.0680 C.3    21  PRO21       0.0939
     16  N        123.1610   81.4640  115.1200 N.am   22  VAL22      -0.1964
     17  CA       122.3690   82.1840  116.0980 C.3    22  VAL22       0.1727
     18  C        121.5050   81.3020  116.9470 C.2    22  VAL22       0.2616
     19  O        120.8100   80.4230  116.4460 O.2    22  VAL22      -0.2715
     20  CB       121.5840   83.2820  115.4340 C.3    22  VAL22       0.0290
     21  CG1      120.6730   83.9940  116.4390 C.3    22  VAL22       0.0023
     22  CG2      122.6020   84.2270  114.8730 C.3    22  VAL22       0.0023
     23  N        121.5760   81.5250  118.2460 N.am   23  ILE23      -0.1977
     24  CA       120.8550   80.7080  119.1990 C.3    23  ILE23       0.1596
     25  C        119.7860   81.4250  119.9770 C.2    23  ILE23       0.2287
     26  O        120.0110   82.4790  120.5640 O.2    23  ILE23      -0.2864
     27  CB       121.8200   80.0660  120.1910 C.3    23  ILE23       0.0276
     28  CG1      122.7930   79.2100  119.4410 C.3    23  ILE23       0.0022
     29  CG2      121.0860   79.2830  121.2720 C.3    23  ILE23       0.0022
     30  CD1      124.1270   79.8950  119.2270 C.3    23  ILE23       0.0001
     31  N        116.4820   83.5820  120.9310 N.3    25  ARG25      -0.1245
     32  CA       115.9060   84.8560  120.5350 C.3    25  ARG25       0.1563
     33  C        114.7660   84.6740  119.5660 C.2    25  ARG25       0.2260
     34  O        114.5470   85.5170  118.7030 O.2    25  ARG25      -0.2867
     35  CB       116.9280   85.7350  119.8490 C.3    25  ARG25       0.0307
     36  CG       118.2080   85.8650  120.5500 C.3    25  ARG25       0.0489
     37  CD       118.0490   86.2850  121.9180 C.3    25  ARG25       0.2205
     38  NE       119.3030   86.4820  122.4800 N.pl3  25  ARG25      -0.0865
     39  CZ       119.9010   87.6540  122.4860 C.cat  25  ARG25       0.5346
     40  NH1      119.3030   88.7100  122.0280 N.pl3  25  ARG25       0.1354
     41  NH2      121.1110   87.7970  122.9470 N.pl3  25  ARG25       0.1354
     42  N        124.0520   98.0160  124.0530 N.3    50  PRO50      -0.2102
     43  CA       125.1220   97.6220  123.1790 C.3    50  PRO50       0.1504
     44  C        125.4650   96.1530  123.1420 C.2    50  PRO50       0.2576
     45  O        125.8840   95.6750  122.1080 O.2    50  PRO50      -0.2718
     46  CB       126.3120   98.3530  123.7840 C.3    50  PRO50       0.0282
     47  CG       125.7410   99.5410  124.4130 C.3    50  PRO50       0.0208
     48  CD       124.4550   99.0650  125.0050 C.3    50  PRO50       0.0893
     49  N        125.3240   95.4230  124.2280 N.am   51  GLY51      -0.1943
     50  CA       125.7450   94.0200  124.1970 C.3    51  GLY51       0.2014
     51  C        124.6650   92.9510  124.1410 C.2    51  GLY51       0.2639
     52  O        124.9050   91.8130  124.5230 O.2    51  GLY51      -0.2714
     53  N        123.4790   93.2710  123.7090 N.am   52  ILE52      -0.1963
     54  CA       122.4550   92.2510  123.8040 C.3    52  ILE52       0.1727
     55  C        122.1630   91.4010  122.5770 C.2    52  ILE52       0.2617
     56  O        121.2120   90.6270  122.6200 O.2    52  ILE52      -0.2715
     57  CB       121.1970   92.9070  124.2250 C.3    52  ILE52       0.0290
     58  CG1      120.8220   93.7670  123.1580 C.3    52  ILE52       0.0022
     59  CG2      121.4030   93.6510  125.5050 C.3    52  ILE52       0.0023
     60  CD1      119.6260   94.4100  123.3850 C.3    52  ILE52       0.0001
     61  N        122.9430   91.4740  121.5030 N.am   53  GLY53      -0.1940
     62  CA       122.6770   90.5850  120.3620 C.3    53  GLY53       0.2014
     63  C        121.8680   91.1820  119.2220 C.2    53  GLY53       0.2639
     64  O        121.1790   90.4730  118.4890 O.2    53  GLY53      -0.2714
     65  N        121.9110   92.4770  119.0620 N.am   54  LYS54      -0.1963
     66  CA       121.1530   93.0540  117.9800 C.3    54  LYS54       0.1728
     67  C        121.6260   92.5440  116.6260 C.2    54  LYS54       0.2617
     68  O        120.8370   91.9880  115.8630 O.2    54  LYS54      -0.2715
     69  CB       121.1840   94.5500  118.0480 C.3    54  LYS54       0.0311
     70  CG       120.5190   95.1010  119.2710 C.3    54  LYS54       0.0038
     71  CD       120.5150   96.5730  119.1960 C.3    54  LYS54       0.0206
     72  CE       121.9000   97.1220  119.3500 C.3    54  LYS54       0.1093
     73  NZ       122.3340   97.0660  120.7190 N.3    54  LYS54      -0.1314
     74  N        122.9030   92.6760  116.2980 N.am   55  THR55      -0.1937
     75  CA       123.2650   92.2000  114.9840 C.3    55  THR55       0.2028
     76  C        123.1610   90.6880  114.9610 C.2    55  THR55       0.2642
     77  O        122.8040   90.1170  113.9390 O.2    55  THR55      -0.2714
     78  CB       124.6450   92.6910  114.5270 C.3    55  THR55       0.1808
     79  OG1      125.6610   92.2460  115.4140 O.3    55  THR55      -0.2208
     80  CG2      124.6450   94.2020  114.4690 C.3    55  THR55       0.0379
     81  N        123.3380   90.0300  116.1020 N.am   56  ALA56      -0.1977
     82  CA       123.1710   88.5830  116.0810 C.3    56  ALA56       0.1597
     83  C        121.7790   88.2520  115.5580 C.2    56  ALA56       0.2287
     84  O        121.6200   87.3350  114.7640 O.2    56  ALA56      -0.2864
     85  CB       123.3800   87.9680  117.4550 C.3    56  ALA56       0.0319
     86  N        121.8000   88.5230  111.7760 N.3    59  GLU59      -0.1245
     87  CA       122.5340   87.4120  111.2460 C.3    59  GLU59       0.1567
     88  C        121.6570   86.1860  111.3280 C.2    59  GLU59       0.2260
     89  O        121.6260   85.3700  110.4100 O.2    59  GLU59      -0.2867
     90  CB       123.8190   87.3060  112.0410 C.3    59  GLU59       0.0388
     91  CG       124.7380   88.4960  111.7480 C.3    59  GLU59       0.1160
     92  CD       125.8820   88.6740  112.7080 C.2    59  GLU59       0.3649
     93  OE1      125.8410   88.1090  113.7770 O.co2  59  GLU59      -0.2457
     94  OE2      126.8020   89.3910  112.3770 O.co2  59  GLU59      -0.2457
     95  N        124.6330  100.5180  113.0230 N.3   121  GLU121     -0.1245
     96  CA       124.8500  101.8830  113.4800 C.3   121  GLU121      0.1567
     97  C        123.9520  102.8250  112.6580 C.2   121  GLU121      0.2260
     98  O        124.3740  103.8970  112.2170 O.2   121  GLU121     -0.2867
     99  CB       126.3330  102.2430  113.2890 C.3   121  GLU121      0.0388
    100  CG       127.4300  101.3490  114.0550 C.3   121  GLU121      0.1160
    101  CD       127.6510  101.6120  115.5740 C.2   121  GLU121      0.3649
    102  OE1      127.1750  102.5820  116.0650 O.co2 121  GLU121     -0.2457
    103  OE2      128.3280  100.8290  116.2170 O.co2 121  GLU121     -0.2457
    104  N        119.4830   98.8520  113.1050 N.3   151  ALA151     -0.1231
    105  CA       119.8130   98.5210  114.4790 C.3   151  ALA151      0.1694
    106  C        120.7380   99.5430  115.0960 C.2   151  ALA151      0.2593
    107  O        121.6810  100.0200  114.4520 O.2   151  ALA151     -0.2718
    108  CB       120.4580   97.1500  114.5550 C.3   151  ALA151      0.0304
    109  N        120.4520   99.8840  116.3490 N.am  152  THR152     -0.1939
    110  CA       121.3280  100.7510  117.1160 C.3   152  THR152      0.2028
    111  C        121.0410  100.6820  118.6260 C.2   152  THR152      0.2642
    112  O        120.2030   99.9030  119.0940 O.2   152  THR152     -0.2714
    113  CB       121.3260  102.2000  116.6090 C.3   152  THR152      0.1808
    114  OG1      122.4040  102.8880  117.2460 O.3   152  THR152     -0.2208
    115  CG2      120.0110  102.8900  116.9080 C.3   152  THR152      0.0379
    116  N        121.7720  101.4790  119.3740 N.am  153  THR153     -0.1950
    117  CA       121.6640  101.4700  120.8160 C.3   153  THR153      0.1897
    118  C        120.5250  102.2910  121.3140 C.2   153  THR153      0.2313
    119  O        119.9960  103.1420  120.6070 O.2   153  THR153     -0.2863
    120  CB       122.9190  102.0230  121.4610 C.3   153  THR153      0.1794
    121  OG1      123.0680  103.4000  121.1100 O.3   153  THR153     -0.2208
    122  CG2      124.1110  101.2580  120.9710 C.3   153  THR153      0.0378
    123  N        123.3860   79.8820  124.8000 N.3   187  ILE187     -0.1245
    124  CA       124.0060   80.5120  123.6640 C.3   187  ILE187      0.1561
    125  C        125.4550   80.1240  123.6160 C.2   187  ILE187      0.2260
    126  O        125.9770   79.7820  122.5550 O.2   187  ILE187     -0.2867
    127  CB       123.8910   82.0300  123.7060 C.3   187  ILE187      0.0252
    128  CG1      122.4460   82.4370  123.5370 C.3   187  ILE187      0.0019
    129  CG2      124.7520   82.6200  122.6040 C.3   187  ILE187      0.0019
    130  CD1      122.1940   83.8840  123.8620 C.3   187  ILE187      0.0001
    131  N        127.6730   78.3700  120.6380 N.3   191  LEU191     -0.1245
    132  CA       128.8540   78.9500  120.0450 C.3   191  LEU191      0.1561
    133  C        130.1020   78.1480  120.3500 C.2   191  LEU191      0.2260
    134  O        131.1080   78.2490  119.6390 O.2   191  LEU191     -0.2867
    135  CB       129.0170   80.3600  120.5490 C.3   191  LEU191      0.0270
    136  CG       127.8930   81.2650  120.1920 C.3   191  LEU191      0.0019
    137  CD1      128.1050   82.6040  120.8240 C.3   191  LEU191      0.0001
    138  CD2      127.8220   81.3530  118.7060 C.3   191  LEU191      0.0001
    139  N        134.2960   78.3140  119.0090 N.3   195  TYR195     -0.1241
    140  CA       135.4340   78.7450  119.7920 C.3   195  TYR195      0.1605
    141  C        136.4240   77.6310  119.9070 C.2   195  TYR195      0.2264
    142  O        137.6290   77.8430  119.7590 O.2   195  TYR195     -0.2867
    143  CB       135.0140   79.1930  121.1780 C.3   195  TYR195      0.0534
    144  CG       134.3730   80.4620  121.1210 C.ar  195  TYR195     -0.0201
    145  CD1      135.1460   81.5720  120.9200 C.ar  195  TYR195     -0.0009
    146  CD2      133.0280   80.5550  121.2310 C.ar  195  TYR195     -0.0009
    147  CE1      134.5680   82.7760  120.8160 C.ar  195  TYR195      0.0417
    148  CE2      132.4540   81.7730  121.1270 C.ar  195  TYR195      0.0417
    149  CZ       133.2330   82.8780  120.9110 C.ar  195  TYR195      0.1957
    150  OH       132.6490   84.0820  120.7560 O.3   195  TYR195     -0.2866
    151  N        125.7080   88.5250  126.7640 N.3   225  PRO225     -0.2102
    152  CA       126.0950   87.9530  125.5110 C.3   225  PRO225      0.1504
    153  C        127.5240   88.3220  125.1570 C.2   225  PRO225      0.2575
    154  O        128.1770   87.5900  124.4290 O.2   225  PRO225     -0.2718
    155  CB       125.0700   88.5180  124.5720 C.3   225  PRO225      0.0282
    156  CG       123.9160   88.7590  125.4280 C.3   225  PRO225      0.0208
    157  CD       124.4710   89.2380  126.7190 C.3   225  PRO225      0.0893
    158  N        128.0310   89.4430  125.6720 N.am  226  ASP226     -0.1974
    159  CA       129.4050   89.7990  125.4150 C.3   226  ASP226      0.1708
    160  C        130.2850   89.3910  126.5370 C.2   226  ASP226      0.2293
    161  O        131.3350   88.7970  126.3330 O.2   226  ASP226     -0.2864
    162  CB       129.6010   91.2940  125.2770 C.3   226  ASP226      0.1436
    163  CG       129.1070   91.8590  124.0520 C.2   226  ASP226      0.3671
    164  OD1      129.6510   91.5270  123.0000 O.co2 226  ASP226     -0.2456
    165  OD2      128.2560   92.6680  124.1150 O.co2 226  ASP226     -0.2456
    166  N        131.0180   85.8440  126.7430 N.3   229  LEU229     -0.1245
    167  CA       131.9280   85.4350  125.7080 C.3   229  LEU229      0.1561
    168  C        133.3070   85.9270  125.9600 C.2   229  LEU229      0.2260
    169  O        134.2690   85.2410  125.6620 O.2   229  LEU229     -0.2867
    170  CB       131.4760   85.8670  124.3400 C.3   229  LEU229      0.0270
    171  CG       130.3290   85.1390  123.8630 C.3   229  LEU229      0.0019
    172  CD1      129.8850   85.6950  122.5410 C.3   229  LEU229      0.0001
    173  CD2      130.7430   83.7100  123.7570 C.3   229  LEU229      0.0001
@<TRIPOS>BOND
     1    89    88    2
     2    87    88    1
     3    87    86    1
     4    87    90    1
     5    91    90    1
     6    91    92    1
     7    98    97    2
     8    94    92   ar
     9    97    96    1
    10    92    93   ar
    11     1     2    1
    12    95    96    1
    13   104   105    1
    14    99    96    1
    15    99   100    1
    16     4     3    2
    17    77    76    2
    18   100   101    1
    19     3     2    1
    20     3     9   am
    21     2     5    1
    22    10     9    1
    23    10    13    1
    24    10    11    1
    25     9    15    1
    26   107   106    2
    27    80    78    1
    28   105   108    1
    29   105   106    1
    30    78    75    1
    31    78    79    1
    32     7     6   ar
    33    84    83    2
    34    13    14    1
    35    22    20    1
    36    76    75    1
    37    76    81   am
    38    75    74    1
    39    15    14    1
    40   106   109   am
    41    16    11   am
    42    16    17    1
    43     5     6    1
    44    20    17    1
    45    20    21    1
    46    11    12    2
    47     6     8   ar
    48    83    82    1
    49   101   102   ar
    50   101   103   ar
    51    68    67    2
    52    82    81    1
    53    82    85    1
    54    17    18    1
    55    74    67   am
    56   109   110    1
    57    19    18    2
    58   113   115    1
    59   113   110    1
    60   113   114    1
    61    67    66    1
    62    18    23   am
    63   110   111    1
    64    66    69    1
    65    66    65    1
    66    69    70    1
    67    23    24    1
    68    64    63    2
    69   111   112    2
    70   111   116   am
    71    34    33    2
    72   138   136    1
    73   139   140    1
    74    65    63   am
    75    71    70    1
    76    71    72    1
    77    24    25    1
    78    24    27    1
    79    63    62    1
    80    30    28    1
    81    72    73    1
    82   116   117    1
    83    28    27    1
    84    33    32    1
    85   134   133    2
    86   142   141    2
    87   140   141    1
    88   140   143    1
    89    35    32    1
    90    35    36    1
    91    25    26    2
    92   132   133    1
    93   132   135    1
    94   132   131    1
    95    27    29    1
    96   136   135    1
    97   136   137    1
    98    62    61    1
    99    32    31    1
   100    36    37    1
   101   119   118    2
   102   150   149    1
   103   117   118    1
   104   117   120    1
   105   147   149   ar
   106   147   145   ar
   107   149   148   ar
   108   145   144   ar
   109   122   120    1
   110   121   120    1
   111   144   143    1
   112   144   146   ar
   113   148   146   ar
   114    61    55   am
   115    37    38    1
   116    40    39    1
   117    45    44    2
   118    38    39    2
   119    39    41    1
   120   172   171    1
   121   126   125    2
   122    55    56    2
   123    55    54    1
   124   129   127    1
   125   164   163   ar
   126    44    43    1
   127    44    49   am
   128    58    60    1
   129    58    57    1
   130    43    46    1
   131    43    42    1
   132   128   127    1
   133   128   130    1
   134   125   124    1
   135   124   127    1
   136   124   123    1
   137    53    54    1
   138    53    51   am
   139   173   171    1
   140    46    47    1
   141    54    57    1
   142   171   170    1
   143   163   165   ar
   144   163   162    1
   145    42    48    1
   146    51    50    1
   147    51    52    2
   148    50    49    1
   149    57    59    1
   150   170   167    1
   151    47    48    1
   152   154   153    2
   153   155   156    1
   154   155   152    1
   155   153   152    1
   156   153   158   am
   157   162   159    1
   158   159   158    1
   159   159   160    1
   160   156   157    1
   161   152   151    1
   162   169   168    2
   163   167   168    1
   164   167   166    1
   165   161   160    2
   166   157   151    1
