@<TRIPOS>MOLECULE
tmp/5vjpB01.pdb
 110 105 0 0 0
SMALL
GASTEIGER

@<TRIPOS>ATOM
      1  N        -33.4320  -40.3160    4.3060 N.3    21  PRO21      -0.2116
      2  CA       -34.7610  -39.6740    4.2580 C.3    21  PRO21       0.1372
      3  C        -35.8460  -40.4240    3.4610 C.2    21  PRO21       0.2244
      4  O        -37.0280  -40.1240    3.6310 O.2    21  PRO21      -0.2868
      5  CB       -34.4660  -38.3230    3.5910 C.3    21  PRO21       0.0268
      6  CG       -33.2500  -38.5680    2.7650 C.3    21  PRO21       0.0207
      7  CD       -32.4250  -39.5590    3.5390 C.3    21  PRO21       0.0892
      8  N        -32.1780  -45.5790    1.3320 N.3    25  ILE25      -0.1231
      9  CA       -31.0520  -44.7800    1.7940 C.3    25  ILE25       0.1692
     10  C        -30.7520  -45.1310    3.2510 C.2    25  ILE25       0.2592
     11  O        -31.6550  -45.1710    4.0860 O.2    25  ILE25      -0.2718
     12  CB       -31.3280  -43.2620    1.6500 C.3    25  ILE25       0.0266
     13  CG1      -31.6340  -42.9070    0.1810 C.3    25  ILE25       0.0019
     14  CG2      -30.1350  -42.4500    2.1490 C.3    25  ILE25       0.0020
     15  CD1      -32.2270  -41.5260   -0.0300 C.3    25  ILE25       0.0001
     16  N        -29.4800  -45.4010    3.5420 N.am   26  LEU26      -0.1966
     17  CA       -29.0160  -45.6370    4.9090 C.3    26  LEU26       0.1728
     18  C        -28.3700  -44.3550    5.4360 C.2    26  LEU26       0.2616
     19  O        -27.3200  -43.9400    4.9380 O.2    26  LEU26      -0.2715
     20  CB       -28.0160  -46.7940    4.9410 C.3    26  LEU26       0.0311
     21  CG       -27.5080  -47.2120    6.3230 C.3    26  LEU26       0.0022
     22  CD1      -28.6380  -47.7840    7.1620 C.3    26  LEU26       0.0001
     23  CD2      -26.3730  -48.2160    6.1860 C.3    26  LEU26       0.0001
     24  N        -28.9990  -43.7350    6.4380 N.am   27  PHE27      -0.1960
     25  CA       -28.5160  -42.4700    7.0020 C.3    27  PHE27       0.1771
     26  C        -27.4990  -42.7480    8.1080 C.2    27  PHE27       0.2619
     27  O        -27.7940  -43.4600    9.0680 O.2    27  PHE27      -0.2715
     28  CB       -29.6820  -41.6470    7.5570 C.3    27  PHE27       0.0574
     29  CG       -29.3910  -40.1790    7.6970 C.ar   27  PHE27      -0.0200
     30  CD1      -28.7990  -39.6730    8.8610 C.ar   27  PHE27      -0.0042
     31  CD2      -29.7080  -39.2970    6.6710 C.ar   27  PHE27      -0.0042
     32  CE1      -28.5280  -38.3210    8.9820 C.ar   27  PHE27      -0.0003
     33  CE2      -29.4460  -37.9400    6.7930 C.ar   27  PHE27      -0.0003
     34  CZ       -28.8560  -37.4490    7.9480 C.ar   27  PHE27      -0.0000
     35  N        -26.2990  -42.1990    7.9460 N.am   28  GLU28      -0.1977
     36  CA       -25.2610  -42.2310    8.9720 C.3    28  GLU28       0.1602
     37  C        -25.3900  -40.9380    9.7810 C.2    28  GLU28       0.2287
     38  O        -25.0710  -39.8550    9.2740 O.2    28  GLU28      -0.2864
     39  CB       -23.8770  -42.2820    8.3160 C.3    28  GLU28       0.0415
     40  CG       -23.5830  -43.5270    7.4890 C.3    28  GLU28       0.1163
     41  CD       -23.4220  -44.7770    8.3290 C.2    28  GLU28       0.3649
     42  OE1      -23.0880  -44.6640    9.5310 O.co2  28  GLU28      -0.2457
     43  OE2      -23.6230  -45.8830    7.7820 O.co2  28  GLU28      -0.2457
     44  N        -24.0920  -29.2510    7.7280 N.3    69  ARG69      -0.1245
     45  CA       -23.4470  -30.1310    8.7180 C.3    69  ARG69       0.1563
     46  C        -21.9230  -29.9690    8.8400 C.2    69  ARG69       0.2260
     47  O        -21.3450  -30.3110    9.8730 O.2    69  ARG69      -0.2867
     48  CB       -23.8170  -31.5930    8.4670 C.3    69  ARG69       0.0307
     49  CG       -25.1170  -31.9980    9.1440 C.3    69  ARG69       0.0489
     50  CD       -25.4920  -33.4360    8.8250 C.3    69  ARG69       0.2205
     51  NE       -26.4370  -33.5450    7.7030 N.pl3  69  ARG69      -0.0865
     52  CZ       -26.5890  -34.6170    6.9220 C.cat  69  ARG69       0.5346
     53  NH1      -25.8330  -35.7090    7.0650 N.pl3  69  ARG69       0.1354
     54  NH2      -27.5020  -34.5890    5.9580 N.pl3  69  ARG69       0.1354
     55  N        -19.3710  -33.0170    6.5440 N.3   130  ASP130     -0.1225
     56  CA       -19.6660  -34.2500    7.2730 C.3   130  ASP130      0.1805
     57  C        -19.4310  -35.4900    6.4070 C.2   130  ASP130      0.2597
     58  O        -18.6980  -36.3920    6.8020 O.2   130  ASP130     -0.2718
     59  CB       -21.0850  -34.2330    7.8850 C.3   130  ASP130      0.1424
     60  CG       -22.2090  -34.2780    6.8460 C.2   130  ASP130      0.3668
     61  OD1      -22.1310  -33.5610    5.8210 O.co2 130  ASP130     -0.2456
     62  OD2      -23.1800  -35.0410    7.0630 O.co2 130  ASP130     -0.2456
     63  N        -19.9900  -35.4920    5.2010 N.am  131  ILE131     -0.1980
     64  CA       -20.0170  -36.6890    4.3650 C.3   131  ILE131      0.1595
     65  C        -19.8980  -36.3260    2.8810 C.2   131  ILE131      0.2287
     66  O        -20.3560  -35.2700    2.4550 O.2   131  ILE131     -0.2864
     67  CB       -21.2940  -37.5170    4.6450 C.3   131  ILE131      0.0276
     68  CG1      -21.1980  -38.9160    4.0200 C.3   131  ILE131      0.0022
     69  CG2      -22.5440  -36.7920    4.1530 C.3   131  ILE131      0.0022
     70  CD1      -22.2630  -39.8730    4.5130 C.3   131  ILE131      0.0001
     71  N        -21.0210  -37.9320   -0.7220 N.3   133  ALA133     -0.1245
     72  CA       -21.9250  -38.9130   -1.3220 C.3   133  ALA133      0.1562
     73  C        -21.6390  -38.9500   -2.8240 C.2   133  ALA133      0.2260
     74  O        -20.7420  -39.6870   -3.2490 O.2   133  ALA133     -0.2867
     75  CB       -23.3800  -38.5600   -1.0130 C.3   133  ALA133      0.0290
     76  N        -17.2540  -38.9320    7.0260 N.3   159  MET159     -0.1245
     77  CA       -17.6900  -40.1770    6.3980 C.3   159  MET159      0.1570
     78  C        -17.5990  -40.0670    4.8800 C.2   159  MET159      0.2261
     79  O        -17.5670  -38.9650    4.3300 O.2   159  MET159     -0.2867
     80  CB       -19.1300  -40.4960    6.8180 C.3   159  MET159      0.0387
     81  CG       -19.2980  -40.7800    8.3080 C.3   159  MET159      0.0595
     82  SD       -20.9510  -40.4400    8.9440 S.3   159  MET159     -0.1393
     83  CE       -21.0710  -38.6720    8.8410 C.3   159  MET159      0.0692
     84  N        -19.2550  -42.3140    1.3700 N.3   161  LEU161     -0.1245
     85  CA       -20.0070  -43.3980    0.7490 C.3   161  LEU161      0.1561
     86  C        -19.2430  -43.8660   -0.4940 C.2   161  LEU161      0.2260
     87  O        -19.4220  -43.3290   -1.5890 O.2   161  LEU161     -0.2867
     88  CB       -21.4260  -42.9280    0.4080 C.3   161  LEU161      0.0270
     89  CG       -22.2130  -42.3620    1.5960 C.3   161  LEU161      0.0019
     90  CD1      -23.5320  -41.7800    1.1220 C.3   161  LEU161      0.0001
     91  CD2      -22.4520  -43.4230    2.6610 C.3   161  LEU161      0.0001
     92  N        -19.2010  -46.5020   -2.4570 N.3   163  PHE163     -0.1227
     93  CA       -19.9900  -47.0050   -3.5950 C.3   163  PHE163      0.1736
     94  C        -20.4800  -45.9260   -4.5740 C.2   163  PHE163      0.2595
     95  O        -20.6180  -46.2020   -5.7680 O.2   163  PHE163     -0.2718
     96  CB       -21.1680  -47.8850   -3.1150 C.3   163  PHE163      0.0547
     97  CG       -22.1400  -47.1870   -2.1940 C.ar  163  PHE163     -0.0202
     98  CD1      -23.2300  -46.4910   -2.7080 C.ar  163  PHE163     -0.0042
     99  CD2      -21.9840  -47.2470   -0.8060 C.ar  163  PHE163     -0.0042
    100  CE1      -24.1330  -45.8570   -1.8620 C.ar  163  PHE163     -0.0003
    101  CE2      -22.8790  -46.6090    0.0400 C.ar  163  PHE163     -0.0003
    102  CZ       -23.9520  -45.9050   -0.4880 C.ar  163  PHE163     -0.0000
    103  N        -20.7240  -44.7110   -4.0800 N.am  164  LEU164     -0.1980
    104  CA       -21.1270  -43.5850   -4.9430 C.3   164  LEU164      0.1596
    105  C        -19.9840  -42.9580   -5.7590 C.2   164  LEU164      0.2287
    106  O        -20.2490  -42.2270   -6.7160 O.2   164  LEU164     -0.2864
    107  CB       -21.8420  -42.5020   -4.1200 C.3   164  LEU164      0.0297
    108  CG       -23.2740  -42.8390   -3.7030 C.3   164  LEU164      0.0022
    109  CD1      -23.7570  -41.9310   -2.5790 C.3   164  LEU164      0.0001
    110  CD2      -24.2190  -42.7690   -4.9000 C.3   164  LEU164      0.0001
@<TRIPOS>BOND
     1   106   105    2
     2    95    94    2
     3   105   104    1
     4   104   107    1
     5   104   103    1
     6   110   108    1
     7    94   103   am
     8    94    93    1
     9   107   108    1
    10   108   109    1
    11    93    96    1
    12    93    92    1
    13    74    73    2
    14    96    97    1
    15    73    72    1
    16    98    97   ar
    17    98   100   ar
    18    97    99   ar
    19   100   102   ar
    20    87    86    2
    21    72    75    1
    22    72    71    1
    23    99   101   ar
    24    86    85    1
    25   102   101   ar
    26    15    13    1
    27    13    12    1
    28    88    85    1
    29    88    89    1
    30    85    84    1
    31    90    89    1
    32     8     9    1
    33    89    91    1
    34    12     9    1
    35    12    14    1
    36     9    10    1
    37    66    65    2
    38     6     7    1
    39     6     5    1
    40    65    64    1
    41    10    16   am
    42    10    11    2
    43     3     4    2
    44     3     2    1
    45     7     1    1
    46    16    17    1
    47     5     2    1
    48    68    70    1
    49    68    67    1
    50    69    67    1
    51     2     1    1
    52    79    78    2
    53    64    67    1
    54    64    63    1
    55    78    77    1
    56    17    20    1
    57    17    18    1
    58    19    18    2
    59    20    21    1
    60    63    57   am
    61    18    24   am
    62    61    60   ar
    63    54    52    1
    64    23    21    1
    65    21    22    1
    66    77    80    1
    67    77    76    1
    68    57    58    2
    69    57    56    1
    70    24    25    1
    71    55    56    1
    72    31    33   ar
    73    31    29   ar
    74    33    34   ar
    75    80    81    1
    76    60    62   ar
    77    60    59    1
    78    52    53    1
    79    52    51    2
    80    25    28    1
    81    25    26    1
    82    56    59    1
    83    40    39    1
    84    40    41    1
    85    28    29    1
    86    29    30   ar
    87    51    50    1
    88    44    45    1
    89    43    41   ar
    90    35    26   am
    91    35    36    1
    92    34    32   ar
    93    26    27    2
    94    81    82    1
    95    39    36    1
    96    41    42   ar
    97    48    45    1
    98    48    49    1
    99    45    46    1
   100    50    49    1
   101    46    47    2
   102    83    82    1
   103    30    32   ar
   104    36    37    1
   105    38    37    2
