@<TRIPOS>MOLECULE
tmp/5vjpB00.pdb
 147 144 0 0 0
SMALL
GASTEIGER

@<TRIPOS>ATOM
      1  N        -18.8020  -26.6190    4.3950 N.3    66  LEU66      -0.1231
      2  CA       -20.0360  -26.6280    3.6080 C.3    66  LEU66       0.1693
      3  C        -21.2480  -26.5760    4.5280 C.2    66  LEU66       0.2592
      4  O        -21.2620  -27.2020    5.5930 O.2    66  LEU66      -0.2718
      5  CB       -20.1180  -27.8860    2.7310 C.3    66  LEU66       0.0284
      6  CG       -19.3570  -27.8390    1.4010 C.3    66  LEU66       0.0019
      7  CD1      -17.8650  -27.6870    1.6410 C.3    66  LEU66       0.0001
      8  CD2      -19.6380  -29.0820    0.5690 C.3    66  LEU66       0.0001
      9  N        -22.2630  -25.8290    4.1040 N.am   67  GLU67      -0.1966
     10  CA       -23.5470  -25.7770    4.8080 C.3    67  GLU67       0.1733
     11  C        -24.2500  -27.1270    4.5930 C.2    67  GLU67       0.2617
     12  O        -24.1030  -27.7050    3.5170 O.2    67  GLU67      -0.2715
     13  CB       -24.4130  -24.6300    4.2630 C.3    67  GLU67       0.0429
     14  CG       -25.7870  -24.4740    4.9120 C.3    67  GLU67       0.1163
     15  CD       -26.5420  -23.2330    4.4380 C.2    67  GLU67       0.3649
     16  OE1      -26.1010  -22.5750    3.4720 O.co2  67  GLU67      -0.2457
     17  OE2      -27.5910  -22.9110    5.0370 O.co2  67  GLU67      -0.2457
     18  N        -24.9820  -27.6640    5.5770 N.am   68  SER68      -0.1936
     19  CA       -25.1040  -27.1420    6.9510 C.3    68  SER68       0.2055
     20  C        -24.3340  -27.9660    7.9920 C.2    68  SER68       0.2642
     21  O        -23.9610  -27.4290    9.0240 O.2    68  SER68      -0.2714
     22  CB       -26.5850  -27.0230    7.3510 C.3    68  SER68       0.2130
     23  OG       -27.3570  -28.0950    6.8440 O.3    68  SER68      -0.2179
     24  N        -24.0920  -29.2510    7.7280 N.am   69  ARG69      -0.1977
     25  CA       -23.4470  -30.1310    8.7180 C.3    69  ARG69       0.1597
     26  C        -21.9230  -29.9690    8.8400 C.2    69  ARG69       0.2287
     27  O        -21.3450  -30.3110    9.8730 O.2    69  ARG69      -0.2864
     28  CB       -23.8170  -31.5930    8.4670 C.3    69  ARG69       0.0334
     29  CG       -25.1170  -31.9980    9.1440 C.3    69  ARG69       0.0492
     30  CD       -25.4920  -33.4360    8.8250 C.3    69  ARG69       0.2205
     31  NE       -26.4370  -33.5450    7.7030 N.pl3  69  ARG69      -0.0865
     32  CZ       -26.5890  -34.6170    6.9220 C.cat  69  ARG69       0.5346
     33  NH1      -25.8330  -35.7090    7.0650 N.pl3  69  ARG69       0.1354
     34  NH2      -27.5020  -34.5890    5.9580 N.pl3  69  ARG69       0.1354
     35  N        -25.6100  -22.2820    0.7050 N.3    90  LYS90      -0.1245
     36  CA       -26.5940  -22.4310   -0.3640 C.3    90  LYS90       0.1561
     37  C        -26.8570  -21.0620   -0.9900 C.2    90  LYS90       0.2260
     38  O        -26.4710  -20.0320   -0.4350 O.2    90  LYS90      -0.2867
     39  CB       -27.9170  -23.0230    0.1460 C.3    90  LYS90       0.0271
     40  CG       -27.8300  -24.3310    0.9450 C.3    90  LYS90       0.0035
     41  CD       -26.9730  -25.4000    0.2810 C.3    90  LYS90       0.0206
     42  CE       -27.0990  -26.7420    0.9980 C.3    90  LYS90       0.1093
     43  NZ       -28.4950  -27.2650    1.0980 N.3    90  LYS90      -0.1314
     44  N        -24.2040  -27.2100   -8.6630 N.3   103  TYR103     -0.1227
     45  CA       -24.2730  -28.6400   -8.3450 C.3   103  TYR103      0.1736
     46  C        -25.7120  -29.1440   -8.4620 C.2   103  TYR103      0.2595
     47  O        -26.6590  -28.3690   -8.3410 O.2   103  TYR103     -0.2718
     48  CB       -23.7240  -28.9170   -6.9430 C.3   103  TYR103      0.0548
     49  CG       -24.6930  -28.6130   -5.8180 C.ar  103  TYR103     -0.0200
     50  CD1      -25.0720  -27.3010   -5.5390 C.ar  103  TYR103     -0.0009
     51  CD2      -25.2420  -29.6380   -5.0380 C.ar  103  TYR103     -0.0009
     52  CE1      -25.9570  -27.0130   -4.5090 C.ar  103  TYR103      0.0417
     53  CE2      -26.1290  -29.3580   -4.0050 C.ar  103  TYR103      0.0417
     54  CZ       -26.4820  -28.0410   -3.7460 C.ar  103  TYR103      0.1957
     55  OH       -27.3510  -27.7340   -2.7270 O.3   103  TYR103     -0.2866
     56  N        -25.8570  -30.4470   -8.6730 N.am  104  GLU104     -0.1965
     57  CA       -27.1680  -31.0720   -8.8690 C.3   104  GLU104      0.1733
     58  C        -27.4830  -32.0350   -7.7250 C.2   104  GLU104      0.2616
     59  O        -26.5740  -32.6660   -7.1840 O.2   104  GLU104     -0.2715
     60  CB       -27.2390  -31.7790  -10.2300 C.3   104  GLU104      0.0429
     61  CG       -26.1140  -32.7630  -10.5140 C.3   104  GLU104      0.1163
     62  CD       -26.3590  -33.5830  -11.7670 C.2   104  GLU104      0.3649
     63  OE1      -26.3730  -34.8300  -11.6680 O.co2 104  GLU104     -0.2457
     64  OE2      -26.5380  -32.9800  -12.8490 O.co2 104  GLU104     -0.2457
     65  N        -28.7660  -32.1340   -7.3610 N.am  105  LYS105     -0.1977
     66  CA       -29.2140  -32.9790   -6.2390 C.3   105  LYS105      0.1596
     67  C        -29.9300  -34.2480   -6.7170 C.2   105  LYS105      0.2287
     68  O        -29.4430  -35.3580   -6.4880 O.2   105  LYS105     -0.2864
     69  CB       -30.1210  -32.1930   -5.2840 C.3   105  LYS105      0.0298
     70  CG       -29.5810  -30.8370   -4.8730 C.3   105  LYS105      0.0038
     71  CD       -30.2300  -30.3460   -3.5850 C.3   105  LYS105      0.0206
     72  CE       -30.1920  -28.8330   -3.4950 C.3   105  LYS105      0.1093
     73  NZ       -30.1200  -28.3100   -2.1000 N.3   105  LYS105     -0.1314
     74  N        -24.1670  -23.3150   -4.9250 N.3   112  PHE112     -0.1241
     75  CA       -23.4030  -22.9110   -3.7440 C.3   112  PHE112      0.1605
     76  C        -22.7300  -21.5650   -3.9850 C.2   112  PHE112      0.2264
     77  O        -22.5900  -21.1300   -5.1250 O.2   112  PHE112     -0.2867
     78  CB       -22.3460  -23.9520   -3.3900 C.3   112  PHE112      0.0534
     79  CG       -22.8870  -25.1500   -2.6660 C.ar  112  PHE112     -0.0203
     80  CD1      -23.2280  -25.0750   -1.3180 C.ar  112  PHE112     -0.0042
     81  CD2      -23.0080  -26.3650   -3.3150 C.ar  112  PHE112     -0.0042
     82  CE1      -23.7130  -26.1920   -0.6460 C.ar  112  PHE112     -0.0003
     83  CE2      -23.4820  -27.4890   -2.6440 C.ar  112  PHE112     -0.0003
     84  CZ       -23.8480  -27.4040   -1.3100 C.ar  112  PHE112     -0.0000
     85  N        -16.5090  -31.1400    5.3160 N.3   129  ASP129     -0.1225
     86  CA       -17.9310  -31.4630    5.3120 C.3   129  ASP129      0.1805
     87  C        -18.1530  -32.7830    6.0660 C.2   129  ASP129      0.2598
     88  O        -17.2210  -33.5700    6.2320 O.2   129  ASP129     -0.2718
     89  CB       -18.4360  -31.5680    3.8710 C.3   129  ASP129      0.1424
     90  CG       -19.9470  -31.4430    3.7570 C.2   129  ASP129      0.3668
     91  OD1      -20.6350  -31.2310    4.7860 O.co2 129  ASP129     -0.2456
     92  OD2      -20.4460  -31.5350    2.6130 O.co2 129  ASP129     -0.2456
     93  N        -19.3710  -33.0170    6.5440 N.am  130  ASP130     -0.1960
     94  CA       -19.6660  -34.2500    7.2730 C.3   130  ASP130      0.1840
     95  C        -19.4310  -35.4900    6.4070 C.2   130  ASP130      0.2622
     96  O        -18.6980  -36.3920    6.8020 O.2   130  ASP130     -0.2715
     97  CB       -21.0850  -34.2330    7.8850 C.3   130  ASP130      0.1450
     98  CG       -22.2090  -34.2780    6.8460 C.2   130  ASP130      0.3671
     99  OD1      -22.1310  -33.5610    5.8210 O.co2 130  ASP130     -0.2456
    100  OD2      -23.1800  -35.0410    7.0630 O.co2 130  ASP130     -0.2456
    101  N        -19.9900  -35.4920    5.2010 N.am  131  ILE131     -0.1963
    102  CA       -20.0170  -36.6890    4.3650 C.3   131  ILE131      0.1727
    103  C        -19.8980  -36.3260    2.8810 C.2   131  ILE131      0.2616
    104  O        -20.3560  -35.2700    2.4550 O.2   131  ILE131     -0.2715
    105  CB       -21.2940  -37.5170    4.6450 C.3   131  ILE131      0.0290
    106  CG1      -21.1980  -38.9160    4.0200 C.3   131  ILE131      0.0022
    107  CG2      -22.5440  -36.7920    4.1530 C.3   131  ILE131      0.0023
    108  CD1      -22.2630  -39.8730    4.5130 C.3   131  ILE131      0.0001
    109  N        -19.2430  -37.1970    2.1180 N.am  132  ILE132     -0.1963
    110  CA       -19.2060  -37.0940    0.6580 C.3   132  ILE132      0.1727
    111  C        -20.0340  -38.2590    0.1100 C.2   132  ILE132      0.2616
    112  O        -19.8060  -39.4120    0.4720 O.2   132  ILE132     -0.2715
    113  CB       -17.7590  -37.0550    0.0910 C.3   132  ILE132      0.0290
    114  CG1      -17.7690  -37.1080   -1.4410 C.3   132  ILE132      0.0022
    115  CG2      -16.8800  -38.1620    0.6590 C.3   132  ILE132      0.0023
    116  CD1      -16.5110  -36.5570   -2.0810 C.3   132  ILE132      0.0001
    117  N        -21.0210  -37.9320   -0.7220 N.am  133  ALA133     -0.1963
    118  CA       -21.9250  -38.9130   -1.3220 C.3   133  ALA133      0.1728
    119  C        -21.6390  -38.9500   -2.8240 C.2   133  ALA133      0.2617
    120  O        -20.7420  -39.6870   -3.2490 O.2   133  ALA133     -0.2715
    121  CB       -23.3800  -38.5600   -1.0130 C.3   133  ALA133      0.0334
    122  N        -22.3490  -38.1460   -3.6200 N.am  134  THR134     -0.1937
    123  CA       -22.0900  -38.0580   -5.0620 C.3   134  THR134      0.2028
    124  C        -20.8360  -37.2440   -5.3810 C.2   134  THR134      0.2643
    125  O        -20.2730  -37.3850   -6.4660 O.2   134  THR134     -0.2714
    126  CB       -23.2660  -37.4190   -5.8370 C.3   134  THR134      0.1808
    127  OG1      -23.3900  -36.0360   -5.4790 O.3   134  THR134     -0.2208
    128  CG2      -24.5810  -38.1460   -5.5570 C.3   134  THR134      0.0379
    129  N        -20.4240  -36.3740   -4.4560 N.am  135  GLY135     -0.1939
    130  CA       -19.2580  -35.5130   -4.6430 C.3   135  GLY135      0.2014
    131  C        -19.5760  -34.1400   -5.2120 C.2   135  GLY135      0.2639
    132  O        -18.7040  -33.2700   -5.2310 O.2   135  GLY135     -0.2714
    133  N        -20.8150  -33.9340   -5.6650 N.am  136  GLY136     -0.1939
    134  CA       -21.2180  -32.6910   -6.3260 C.3   136  GLY136      0.2014
    135  C        -21.0660  -31.4390   -5.4810 C.2   136  GLY136      0.2640
    136  O        -20.5860  -30.4120   -5.9730 O.2   136  GLY136     -0.2714
    137  N        -21.4660  -31.5260   -4.2140 N.am  137  SER137     -0.1935
    138  CA       -21.3660  -30.3940   -3.2930 C.3   137  SER137      0.2055
    139  C        -19.9100  -30.0480   -2.9930 C.2   137  SER137      0.2642
    140  O        -19.5450  -28.8710   -3.0080 O.2   137  SER137     -0.2714
    141  CB       -22.1250  -30.6670   -1.9890 C.3   137  SER137      0.2130
    142  OG       -23.4760  -31.0190   -2.2440 O.3   137  SER137     -0.2179
    143  N        -19.0960  -31.0710   -2.7270 N.am  138  ALA138     -0.1977
    144  CA       -17.6420  -30.9040   -2.5440 C.3   138  ALA138      0.1597
    145  C        -16.9630  -30.3030   -3.7830 C.2   138  ALA138      0.2287
    146  O        -16.1200  -29.4100   -3.6550 O.2   138  ALA138     -0.2864
    147  CB       -16.9880  -32.2330   -2.1880 C.3   138  ALA138      0.0319
@<TRIPOS>BOND
     1    64    62   ar
     2    62    63   ar
     3    62    61    1
     4    61    60    1
     5    60    57    1
     6    57    56    1
     7    57    58    1
     8    56    46   am
     9    44    45    1
    10    46    45    1
    11    46    47    2
    12    45    48    1
    13    58    65   am
    14    58    59    2
    15    65    66    1
    16    48    49    1
    17    67    68    2
    18    67    66    1
    19   125   124    2
    20   134   133    1
    21   134   135    1
    22    66    69    1
    23   136   135    2
    24   126   128    1
    25   126   127    1
    26   126   123    1
    27    49    50   ar
    28    49    51   ar
    29   133   131   am
    30    50    52   ar
    31   135   137   am
    32   124   123    1
    33   124   129   am
    34    69    70    1
    35   132   131    2
    36   131   130    1
    37    77    76    2
    38   123   122    1
    39    51    53   ar
    40    74    75    1
    41    70    71    1
    42   130   129    1
    43    52    54   ar
    44   137   138    1
    45    53    54   ar
    46    76    75    1
    47   145   146    2
    48   145   144    1
    49    54    55    1
    50    75    78    1
    51   122   119   am
    52    71    72    1
    53    72    73    1
    54    78    79    1
    55    81    79   ar
    56    81    83   ar
    57   138   139    1
    58   138   141    1
    59   120   119    2
    60   140   139    2
    61   139   143   am
    62   119   118    1
    63   143   144    1
    64    79    80   ar
    65    83    84   ar
    66   144   147    1
    67   142   141    1
    68   116   114    1
    69   114   113    1
    70   118   121    1
    71   118   117    1
    72    80    82   ar
    73    84    82   ar
    74    37    38    2
    75    37    36    1
    76   117   111   am
    77    36    39    1
    78    36    35    1
    79   113   110    1
    80   113   115    1
    81   111   112    2
    82   111   110    1
    83    39    40    1
    84    41    40    1
    85    41    42    1
    86     8     6    1
    87   110   109    1
    88    42    43    1
    89     6     7    1
    90     6     5    1
    91   109   103   am
    92   104   103    2
    93    92    90   ar
    94     5     2    1
    95   103   102    1
    96    16    15   ar
    97    12    11    2
    98     2     1    1
    99     2     3    1
   100    90    89    1
   101    90    91   ar
   102    89    86    1
   103   106   108    1
   104   106   105    1
   105     9     3   am
   106     9    10    1
   107   107   105    1
   108    13    10    1
   109    13    14    1
   110   102   105    1
   111   102   101    1
   112    15    14    1
   113    15    17   ar
   114     3     4    2
   115    11    10    1
   116    11    18   am
   117   101    95   am
   118    86    85    1
   119    86    87    1
   120    18    19    1
   121    99    98   ar
   122    34    32    1
   123    87    88    2
   124    87    93   am
   125    95    96    2
   126    95    94    1
   127    93    94    1
   128    23    22    1
   129    98   100   ar
   130    98    97    1
   131    32    33    1
   132    32    31    2
   133    19    22    1
   134    19    20    1
   135    94    97    1
   136    31    30    1
   137    24    20   am
   138    24    25    1
   139    20    21    2
   140    28    25    1
   141    28    29    1
   142    25    26    1
   143    30    29    1
   144    26    27    2
