@<TRIPOS>MOLECULE
tmp/5vjsA01.pdb
 186 173 0 0 0
SMALL
GASTEIGER

@<TRIPOS>ATOM
      1  N         22.4580   13.7410  119.4020 N.3    20  LEU20      -0.1245
      2  CA        21.2990   13.1310  118.7920 C.3    20  LEU20       0.1561
      3  C         20.3040   14.1380  118.2220 C.2    20  LEU20       0.2260
      4  O         19.7350   13.9400  117.1060 O.2    20  LEU20      -0.2867
      5  CB        20.5950   12.2950  119.8170 C.3    20  LEU20       0.0270
      6  CG        19.9950   11.0430  119.2900 C.3    20  LEU20       0.0019
      7  CD1       21.0760   10.1820  118.6630 C.3    20  LEU20       0.0001
      8  CD2       19.3790   10.2870  120.4480 C.3    20  LEU20       0.0001
      9  N         21.6230   15.7490  115.1830 N.3    23  ILE23      -0.1231
     10  CA        21.5840   14.8750  114.0620 C.3    23  ILE23       0.1692
     11  C         20.2010   14.8220  113.4380 C.2    23  ILE23       0.2591
     12  O         20.0570   14.7660  112.1920 O.2    23  ILE23      -0.2718
     13  CB        22.0330   13.4540  114.4380 C.3    23  ILE23       0.0266
     14  CG1       23.5650   13.3370  114.5760 C.3    23  ILE23       0.0019
     15  CG2       21.6560   12.5110  113.3810 C.3    23  ILE23       0.0020
     16  CD1       24.0600   12.0150  115.1850 C.3    23  ILE23       0.0001
     17  N         19.1770   14.7390  114.2910 N.am   24  GLN24      -0.1979
     18  CA        17.7960   14.8440  113.8480 C.3    24  GLN24       0.1601
     19  C         17.5900   16.1420  113.0240 C.2    24  GLN24       0.2287
     20  O         16.9460   16.1380  112.0030 O.2    24  GLN24      -0.2864
     21  CB        16.8070   14.8070  115.0200 C.3    24  GLN24       0.0394
     22  CG        16.6840   13.4440  115.6850 C.3    24  GLN24       0.0908
     23  CD        15.7090   12.4510  115.0130 C.2    24  GLN24       0.2608
     24  OE1       15.2310   12.5970  113.9050 O.2    24  GLN24      -0.2717
     25  NE2       15.3970   11.4370  115.7390 N.am   24  GLN24      -0.0878
     26  N         19.3390   15.8520  109.6290 N.3    27  GLY27      -0.1210
     27  CA        18.5480   15.0050  108.7760 C.3    27  GLY27       0.1956
     28  C         17.2470   15.6080  108.2160 C.2    27  GLY27       0.2611
     29  O         16.7740   15.1620  107.1780 O.2    27  GLY27      -0.2717
     30  N         16.6530   16.5790  108.9130 N.am   28  ARG28      -0.1979
     31  CA        15.4840   17.3040  108.3780 C.3    28  ARG28       0.1597
     32  C         15.9210   18.2880  107.2940 C.2    28  ARG28       0.2287
     33  O         15.2810   18.4070  106.3090 O.2    28  ARG28      -0.2864
     34  CB        14.6950   18.0440  109.4750 C.3    28  ARG28       0.0334
     35  CG        13.5720   17.2000  110.0860 C.3    28  ARG28       0.0492
     36  CD        12.8040   17.9020  111.2270 C.3    28  ARG28       0.2205
     37  NE        13.1280   17.3510  112.5570 N.pl3  28  ARG28      -0.0865
     38  CZ        13.9540   17.8790  113.4710 C.cat  28  ARG28       0.5346
     39  NH1       14.5850   19.0230  113.2680 N.pl3  28  ARG28       0.1354
     40  NH2       14.1180   17.2660  114.6380 N.pl3  28  ARG28       0.1354
     41  N         18.4950   17.6870  105.3900 N.3    30  LEU30      -0.1231
     42  CA        18.7630   16.7800  104.2800 C.3    30  LEU30       0.1693
     43  C         17.5610   16.3710  103.5350 C.2    30  LEU30       0.2591
     44  O         17.5870   16.1790  102.3130 O.2    30  LEU30      -0.2718
     45  CB        19.3840   15.4660  104.7820 C.3    30  LEU30       0.0284
     46  CG        20.8900   15.5200  105.0580 C.3    30  LEU30       0.0019
     47  CD1       21.3510   14.1570  105.5940 C.3    30  LEU30       0.0001
     48  CD2       21.6800   15.8120  103.8010 C.3    30  LEU30       0.0001
     49  N         16.5030   16.1340  104.2770 N.am   31  LEU31      -0.1980
     50  CA        15.2360   15.8080  103.6430 C.3    31  LEU31       0.1596
     51  C         14.7300   16.9780  102.7830 C.2    31  LEU31       0.2287
     52  O         14.2920   16.7590  101.6510 O.2    31  LEU31      -0.2864
     53  CB        14.2430   15.3480  104.7220 C.3    31  LEU31       0.0297
     54  CG        13.0240   14.4710  104.4980 C.3    31  LEU31       0.0022
     55  CD1       13.1910   13.3360  103.5040 C.3    31  LEU31       0.0001
     56  CD2       12.5980   13.9480  105.8600 C.3    31  LEU31       0.0001
     57  N         15.5430    8.0780  103.9650 N.3    71  LEU71      -0.1245
     58  CA        15.5780    9.1160  104.9400 C.3    71  LEU71       0.1561
     59  C         14.4770    9.0820  105.9560 C.2    71  LEU71       0.2260
     60  O         14.7190    9.4660  107.1120 O.2    71  LEU71      -0.2867
     61  CB        15.5750   10.4960  104.2720 C.3    71  LEU71       0.0270
     62  CG        16.9030   10.9630  103.6120 C.3    71  LEU71       0.0019
     63  CD1       16.6890   12.2810  102.9070 C.3    71  LEU71       0.0001
     64  CD2       18.0240   11.1830  104.6400 C.3    71  LEU71       0.0001
     65  N         15.3040    6.4470  108.3500 N.3    74  LEU74      -0.1231
     66  CA        16.3650    7.0440  109.1900 C.3    74  LEU74       0.1693
     67  C         15.8340    7.9730  110.2730 C.2    74  LEU74       0.2591
     68  O         16.2260    7.8670  111.4240 O.2    74  LEU74      -0.2718
     69  CB        17.3550    7.8160  108.3490 C.3    74  LEU74       0.0284
     70  CG        18.4340    6.9690  107.7230 C.3    74  LEU74       0.0019
     71  CD1       19.0560    7.7210  106.5650 C.3    74  LEU74       0.0001
     72  CD2       19.5230    6.6420  108.7290 C.3    74  LEU74       0.0001
     73  N         14.9520    8.8710  109.8950 N.am   75  GLN75      -0.1979
     74  CA        14.2700    9.7610  110.8590 C.3    75  GLN75       0.1601
     75  C         13.5610    8.9840  111.9710 C.2    75  GLN75       0.2287
     76  O         13.5740    9.4120  113.1240 O.2    75  GLN75      -0.2864
     77  CB        13.1930   10.6040  110.1460 C.3    75  GLN75       0.0394
     78  CG        12.4530   11.6590  110.9960 C.3    75  GLN75       0.0908
     79  CD        11.3030   12.3600  110.2270 C.2    75  GLN75       0.2608
     80  OE1       11.2880   13.6130  110.0400 O.2    75  GLN75      -0.2717
     81  NE2       10.3260   11.5360  109.7660 N.am   75  GLN75      -0.0878
     82  N         16.0080    7.3900  114.2920 N.3    78  GLY78      -0.1225
     83  CA        16.4200    8.5070  115.0740 C.3    78  GLY78       0.1811
     84  C         15.4640    8.7780  116.2070 C.2    78  GLY78       0.2280
     85  O         15.8590    8.8920  117.3760 O.2    78  GLY78      -0.2866
     86  N         15.5580    6.1740  118.7570 N.3    81  ALA81      -0.1245
     87  CA        16.7410    6.2590  119.6130 C.3    81  ALA81       0.1562
     88  C         16.5230    7.2950  120.6810 C.2    81  ALA81       0.2260
     89  O         16.9980    7.1370  121.8100 O.2    81  ALA81      -0.2867
     90  CB        17.9820    6.5950  118.7990 C.3    81  ALA81       0.0290
     91  N         21.8390    2.6840  116.1160 N.3   121  LEU121     -0.1231
     92  CA        22.9290    3.4390  115.5600 C.3   121  LEU121      0.1693
     93  C         23.6180    2.7530  114.3950 C.2   121  LEU121      0.2591
     94  O         23.9080    3.3800  113.3860 O.2   121  LEU121     -0.2718
     95  CB        23.9110    3.8200  116.6300 C.3   121  LEU121      0.0284
     96  CG        23.4090    4.8040  117.6860 C.3   121  LEU121      0.0019
     97  CD1       24.6140    5.4480  118.3340 C.3   121  LEU121      0.0001
     98  CD2       22.5020    5.8710  117.1430 C.3   121  LEU121      0.0001
     99  N         23.8710    1.4610  114.4910 N.am  122  GLN122     -0.1979
    100  CA        24.4400    0.7410  113.3550 C.3   122  GLN122      0.1601
    101  C         23.5490    0.7170  112.1420 C.2   122  GLN122      0.2287
    102  O         24.0180    0.8290  111.0200 O.2   122  GLN122     -0.2864
    103  CB        24.7480   -0.6850  113.7730 C.3   122  GLN122      0.0394
    104  CG        26.0220   -0.7590  114.5800 C.3   122  GLN122      0.0908
    105  CD        26.0710   -1.9340  115.5260 C.2   122  GLN122      0.2608
    106  OE1       25.3980   -2.9620  115.3200 O.2   122  GLN122     -0.2717
    107  NE2       26.8740   -1.7940  116.5820 N.am  122  GLN122     -0.0878
    108  N         21.3700    2.7920  111.4080 N.3   124  HIS124     -0.1226
    109  CA        21.4610    4.1240  110.9390 C.3   124  HIS124      0.1752
    110  C         22.6010    4.4370  110.0650 C.2   124  HIS124      0.2595
    111  O         22.4230    5.1190  109.0630 O.2   124  HIS124     -0.2718
    112  CB        21.6040    4.9750  112.1040 C.3   124  HIS124      0.0759
    113  CG        20.7590    6.1310  112.0240 C.ar  124  HIS124      0.0818
    114  ND1       19.4110    6.0640  112.2580 N.ar  124  HIS124     -0.2268
    115  CD2       21.0470    7.3830  111.6640 C.ar  124  HIS124      0.1154
    116  CE1       18.9100    7.2740  112.1050 C.ar  124  HIS124      0.1986
    117  NE2       19.8840    8.0870  111.7520 N.ar  124  HIS124     -0.2212
    118  N         23.7750    3.9590  110.4650 N.am  125  GLN125     -0.1979
    119  CA        24.9880    4.1210  109.7000 C.3   125  GLN125      0.1601
    120  C         24.9240    3.3700  108.3940 C.2   125  GLN125      0.2287
    121  O         25.4410    3.8640  107.3750 O.2   125  GLN125     -0.2864
    122  CB        26.2320    3.6690  110.5380 C.3   125  GLN125      0.0394
    123  CG        27.6150    3.6920  109.8500 C.3   125  GLN125      0.0908
    124  CD        28.3140    5.0890  109.7210 C.2   125  GLN125      0.2608
    125  OE1       28.0230    6.0320  110.4560 O.2   125  GLN125     -0.2717
    126  NE2       29.2620    5.1990  108.7720 N.am  125  GLN125     -0.0878
    127  N         22.5520    5.1990  105.9810 N.3   128  GLY128     -0.1225
    128  CA        23.2310    6.3990  105.5460 C.3   128  GLY128      0.1811
    129  C         24.2860    6.0910  104.4600 C.2   128  GLY128      0.2280
    130  O         24.3910    6.7770  103.4500 O.2   128  GLY128     -0.2866
    131  N         25.3930   14.9970  104.0020 N.3   168  TYR168     -0.1241
    132  CA        25.4580   13.5560  104.3360 C.3   168  TYR168      0.1605
    133  C         26.7340   13.1910  105.1190 C.2   168  TYR168      0.2264
    134  O         26.6790   12.4110  106.0560 O.2   168  TYR168     -0.2867
    135  CB        25.4230   12.6440  103.1090 C.3   168  TYR168      0.0534
    136  CG        24.0210   12.4690  102.5260 C.ar  168  TYR168     -0.0201
    137  CD1       23.0540   11.7680  103.2450 C.ar  168  TYR168     -0.0009
    138  CD2       23.6350   13.0410  101.2630 C.ar  168  TYR168     -0.0009
    139  CE1       21.7540   11.6460  102.7600 C.ar  168  TYR168      0.0417
    140  CE2       22.3200   12.9270  100.7690 C.ar  168  TYR168      0.0417
    141  CZ        21.3900   12.2220  101.5250 C.ar  168  TYR168      0.1957
    142  OH        20.0870   12.0480  101.1380 O.3   168  TYR168     -0.2866
    143  N         26.9230   14.3710  108.6540 N.3   171  LEU171     -0.1231
    144  CA        26.0090   13.5530  109.4100 C.3   171  LEU171      0.1693
    145  C         26.5530   12.1700  109.7300 C.2   171  LEU171      0.2591
    146  O         26.3760   11.6970  110.8590 O.2   171  LEU171     -0.2718
    147  CB        24.7040   13.3490  108.6120 C.3   171  LEU171      0.0284
    148  CG        23.4820   12.9920  109.4700 C.3   171  LEU171      0.0019
    149  CD1       22.2100   13.0470  108.6680 C.3   171  LEU171      0.0001
    150  CD2       23.6320   11.6150  110.0440 C.3   171  LEU171      0.0001
    151  N         27.1550   11.4870  108.7610 N.am  172  GLN172     -0.1979
    152  CA        27.8670   10.2550  109.1040 C.3   172  GLN172      0.1601
    153  C         28.9300   10.5910  110.1860 C.2   172  GLN172      0.2287
    154  O         29.1500    9.8010  111.0660 O.2   172  GLN172     -0.2864
    155  CB        28.5280    9.5360  107.9510 C.3   172  GLN172      0.0394
    156  CG        27.7270    9.3730  106.6810 C.3   172  GLN172      0.0908
    157  CD        26.9320    8.0790  106.4830 C.2   172  GLN172      0.2608
    158  OE1       27.0390    7.0590  107.2150 O.2   172  GLN172     -0.2717
    159  NE2       26.1090    8.1200  105.4330 N.am  172  GLN172     -0.0878
    160  N         27.2080   10.8820  113.5950 N.3   175  GLY175     -0.1210
    161  CA        26.8570    9.5730  114.0370 C.3   175  GLY175      0.1956
    162  C         27.9930    8.6830  114.5300 C.2   175  GLY175      0.2611
    163  O         27.7720    7.7870  115.3660 O.2   175  GLY175     -0.2717
    164  N         29.1840    8.8910  113.9510 N.am  176  GLN176     -0.1979
    165  CA        30.3880    8.2020  114.4010 C.3   176  GLN176      0.1601
    166  C         30.7060    8.6180  115.8220 C.2   176  GLN176      0.2287
    167  O         30.9610    7.7950  116.6480 O.2   176  GLN176     -0.2864
    168  CB        31.5770    8.4980  113.4790 C.3   176  GLN176      0.0394
    169  CG        32.6690    7.4600  113.5970 C.3   176  GLN176      0.0908
    170  CD        32.1000    6.0670  113.4690 C.2   176  GLN176      0.2608
    171  OE1       31.3820    5.7660  112.5180 O.2   176  GLN176     -0.2717
    172  NE2       32.3750    5.2250  114.4520 N.am  176  GLN176     -0.0878
    173  N         28.5530    9.8840  117.9480 N.3   178  ALA178     -0.1231
    174  CA        27.4730    9.2800  118.7370 C.3   178  ALA178      0.1694
    175  C         27.7830    7.8250  119.0760 C.2   178  ALA178      0.2591
    176  O         27.5750    7.4160  120.2270 O.2   178  ALA178     -0.2718
    177  CB        26.1450    9.3130  117.9440 C.3   178  ALA178      0.0304
    178  N         28.2440    7.0290  118.1020 N.am  179  GLN179     -0.1979
    179  CA        28.4950    5.5920  118.3910 C.3   179  GLN179      0.1601
    180  C         29.6880    5.5000  119.3670 C.2   179  GLN179      0.2287
    181  O         29.7130    4.6390  120.2230 O.2   179  GLN179     -0.2864
    182  CB        28.7110    4.7450  117.1520 C.3   179  GLN179      0.0394
    183  CG        28.9390    3.2490  117.4410 C.3   179  GLN179      0.0908
    184  CD        27.7500    2.4610  118.0690 C.2   179  GLN179      0.2608
    185  OE1       27.6870    2.2710  119.3080 O.2   179  GLN179     -0.2717
    186  NE2       26.8530    1.9330  117.2130 N.am  179  GLN179     -0.0878
@<TRIPOS>BOND
     1   140   138   ar
     2   140   141   ar
     3   142   141    1
     4   138   136   ar
     5   141   139   ar
     6    52    51    2
     7    44    43    2
     8   136   135    1
     9   136   137   ar
    10   139   137   ar
    11    51    50    1
    12    63    62    1
    13   135   132    1
    14   130   129    2
    15    55    54    1
    16    43    49   am
    17    43    42    1
    18    62    61    1
    19    62    64    1
    20    50    49    1
    21    50    53    1
    22    48    46    1
    23    57    58    1
    24   131   132    1
    25    61    58    1
    26    42    45    1
    27    42    41    1
    28   132   133    1
    29   129   128    1
    30    54    53    1
    31    54    56    1
    32    45    46    1
    33    58    59    1
    34    46    47    1
    35   133   134    2
    36   159   157   am
    37   128   127    1
    38    59    60    2
    39    33    32    2
    40   157   156    1
    41   157   158    2
    42    71    70    1
    43   156   155    1
    44    29    28    2
    45    32    31    1
    46   121   120    2
    47    70    69    1
    48    70    72    1
    49   155   152    1
    50    28    27    1
    51    28    30   am
    52    69    66    1
    53    65    66    1
    54    31    30    1
    55    31    34    1
    56   120   119    1
    57   147   144    1
    58   147   148    1
    59   143   144    1
    60   149   148    1
    61   151   152    1
    62   151   145   am
    63   126   124   am
    64    27    26    1
    65   111   110    2
    66   152   153    1
    67    66    67    1
    68   144   145    1
    69   148   150    1
    70    34    35    1
    71   119   118    1
    72   119   122    1
    73   124   123    1
    74   124   125    2
    75   145   146    2
    76    81    79   am
    77   123   122    1
    78    73    67   am
    79    73    74    1
    80    80    79    2
    81   110   118   am
    82   110   109    1
    83    35    36    1
    84    77    74    1
    85    77    78    1
    86   153   154    2
    87    79    78    1
    88    67    68    2
    89    74    75    1
    90   109   108    1
    91   109   112    1
    92   102   101    2
    93    36    37    1
    94   115   117   ar
    95   115   113   ar
    96   117   116   ar
    97    75    76    2
    98    20    19    2
    99   113   112    1
   100   113   114   ar
   101   116   114   ar
   102   101   100    1
   103    12    11    2
   104   171   170    2
   105    37    38    2
   106    19    18    1
   107    39    38    1
   108   100   103    1
   109   100    99    1
   110    15    13    1
   111    94    93    2
   112    11    10    1
   113    11    17   am
   114   170   169    1
   115   170   172   am
   116    38    40    1
   117   168   169    1
   118   168   165    1
   119   160   161    1
   120   103   104    1
   121    18    17    1
   122    18    21    1
   123    24    23    2
   124   164   165    1
   125   164   162   am
   126   161   162    1
   127    10    13    1
   128    10     9    1
   129    82    83    1
   130    93    99   am
   131    93    92    1
   132   165   166    1
   133    13    14    1
   134   162   163    2
   135    14    16    1
   136   104   105    1
   137    23    22    1
   138    23    25   am
   139    21    22    1
   140    83    84    1
   141   106   105    2
   142   105   107   am
   143    92    91    1
   144    92    95    1
   145   166   167    2
   146    84    85    2
   147    95    96    1
   148     4     3    2
   149    98    96    1
   150   182   183    1
   151   182   179    1
   152   186   184   am
   153   183   184    1
   154    96    97    1
   155   177   174    1
   156   173   174    1
   157   184   185    2
   158   178   179    1
   159   178   175   am
   160     3     2    1
   161   179   180    1
   162     7     6    1
   163   174   175    1
   164    86    87    1
   165     2     1    1
   166     2     5    1
   167    90    87    1
   168   175   176    2
   169     6     5    1
   170     6     8    1
   171   180   181    2
   172    87    88    1
   173    88    89    2
