@<TRIPOS>MOLECULE
tmp/5vjtA00.pdb
 208 199 0 0 0
SMALL
GASTEIGER

@<TRIPOS>ATOM
      1  N         30.9740    9.2530  137.6530 N.3     6  ARG6       -0.1245
      2  CA        29.5370    9.6680  137.4970 C.3     6  ARG6        0.1563
      3  C         29.5110   10.9650  136.7180 C.2     6  ARG6        0.2260
      4  O         28.6960   11.1430  135.8230 O.2     6  ARG6       -0.2867
      5  CB        28.8330    9.8350  138.8470 C.3     6  ARG6        0.0307
      6  CG        28.5070    8.5200  139.5780 C.3     6  ARG6        0.0489
      7  CD        27.5060    8.7050  140.7370 C.3     6  ARG6        0.2205
      8  NE        28.0820    9.4720  141.7980 N.pl3   6  ARG6       -0.0865
      9  CZ        28.8730    8.9800  142.7580 C.cat   6  ARG6        0.5346
     10  NH1       29.1370    7.6750  142.8450 N.pl3   6  ARG6        0.1354
     11  NH2       29.3700    9.8120  143.6640 N.pl3   6  ARG6        0.1354
     12  N         30.2470   10.1910  133.0310 N.3     9  HIS9       -0.1226
     13  CA        29.0850    9.5390  132.4230 C.3     9  HIS9        0.1752
     14  C         28.0000   10.5990  132.2030 C.2     9  HIS9        0.2595
     15  O         27.3930   10.6040  131.0900 O.2     9  HIS9       -0.2718
     16  CB        28.5230    8.4170  133.3610 C.3     9  HIS9        0.0759
     17  CG        27.6290    7.3640  132.6890 C.ar    9  HIS9        0.0818
     18  ND1       28.1310    6.3360  131.9490 N.ar    9  HIS9       -0.2268
     19  CD2       26.2580    7.0910  132.7810 C.ar    9  HIS9        0.1154
     20  CE1       27.1260    5.5220  131.5700 C.ar    9  HIS9        0.1986
     21  NE2       25.9470    5.8860  132.1230 N.ar    9  HIS9       -0.2212
     22  N         27.7440   11.5180  133.1500 N.am   10  GLN10      -0.1979
     23  CA        26.7430   12.5250  132.9750 C.3    10  GLN10       0.1601
     24  C         27.0540   13.4330  131.7960 C.2    10  GLN10       0.2287
     25  O         26.1640   13.7070  130.9580 O.2    10  GLN10      -0.2864
     26  CB        26.5500   13.3830  134.2540 C.3    10  GLN10       0.0394
     27  CG        25.8040   12.6170  135.3120 C.3    10  GLN10       0.0908
     28  CD        26.0890   13.0650  136.7400 C.2    10  GLN10       0.2608
     29  OE1       26.4200   14.2350  136.9550 O.2    10  GLN10      -0.2717
     30  NE2       25.9840   12.1230  137.7290 N.am   10  GLN10      -0.0878
     31  N         26.6600   11.8120  128.4270 N.3    13  ALA13      -0.1245
     32  CA        25.2610   11.6740  128.0010 C.3    13  ALA13       0.1562
     33  C         24.7110   13.0070  127.4990 C.2    13  ALA13       0.2260
     34  O         23.8640   13.0240  126.5460 O.2    13  ALA13      -0.2867
     35  CB        24.4570   11.0690  129.1380 C.3    13  ALA13       0.0290
     36  N         26.0500   13.4590  124.1070 N.3    16  PHE16      -0.1241
     37  CA        25.3910   12.5660  123.2040 C.3    16  PHE16       0.1605
     38  C         24.0260   13.1500  122.8440 C.2    16  PHE16       0.2264
     39  O         23.6000   13.1440  121.6730 O.2    16  PHE16      -0.2867
     40  CB        25.3380   11.1690  123.7670 C.3    16  PHE16       0.0534
     41  CG        24.5190   10.2190  122.9410 C.ar   16  PHE16      -0.0203
     42  CD1       24.9720    9.6810  121.7820 C.ar   16  PHE16      -0.0042
     43  CD2       23.2350    9.9310  123.2820 C.ar   16  PHE16      -0.0042
     44  CE1       24.2110    8.8650  120.9980 C.ar   16  PHE16      -0.0003
     45  CE2       22.4360    9.0900  122.4880 C.ar   16  PHE16      -0.0003
     46  CZ        22.9320    8.5570  121.3390 C.ar   16  PHE16      -0.0000
     47  N         17.1000    7.2890  124.6000 N.3    85  LEU85      -0.1245
     48  CA        17.9230    8.2160  125.4020 C.3    85  LEU85       0.1561
     49  C         17.0830    8.7440  126.6110 C.2    85  LEU85       0.2260
     50  O         17.5560    8.8690  127.7420 O.2    85  LEU85      -0.2867
     51  CB        18.4400    9.3180  124.5490 C.3    85  LEU85       0.0270
     52  CG        19.1060   10.4140  125.2950 C.3    85  LEU85       0.0019
     53  CD1       20.3310    9.9260  126.0510 C.3    85  LEU85       0.0001
     54  CD2       19.5020   11.5410  124.3990 C.3    85  LEU85       0.0001
     55  N         17.0180    6.1030  129.1230 N.3    88  LEU88      -0.1231
     56  CA        18.3350    6.0490  129.7870 C.3    88  LEU88       0.1693
     57  C         18.4580    7.1060  130.8490 C.2    88  LEU88       0.2591
     58  O         18.9740    6.8810  131.9350 O.2    88  LEU88      -0.2718
     59  CB        19.4810    6.1150  128.7520 C.3    88  LEU88       0.0284
     60  CG        19.7450    4.8200  127.9730 C.3    88  LEU88       0.0019
     61  CD1       20.4070    5.0930  126.6060 C.3    88  LEU88       0.0001
     62  CD2       20.5560    3.8010  128.8160 C.3    88  LEU88       0.0001
     63  N         18.0080    8.3000  130.5230 N.am   89  GLN89      -0.1979
     64  CA        17.9850    9.3320  131.4890 C.3    89  GLN89       0.1601
     65  C         17.1720    9.1000  132.7140 C.2    89  GLN89       0.2287
     66  O         17.6740    9.3470  133.8380 O.2    89  GLN89      -0.2864
     67  CB        17.6060   10.6960  130.8740 C.3    89  GLN89       0.0394
     68  CG        18.5970   11.2020  129.8510 C.3    89  GLN89       0.0908
     69  CD        18.0720   12.3040  128.9270 C.2    89  GLN89       0.2608
     70  OE1       18.8550   13.1750  128.4500 O.2    89  GLN89      -0.2717
     71  NE2       16.8180   12.2720  128.6490 N.am   89  GLN89      -0.0878
     72  N         18.6860    6.0870  134.5140 N.3    92  GLY92      -0.1210
     73  CA        20.0040    6.4000  135.0870 C.3    92  GLY92       0.1956
     74  C         19.8210    7.2270  136.3510 C.2    92  GLY92       0.2611
     75  O         20.5830    7.0330  137.2800 O.2    92  GLY92      -0.2717
     76  N         18.8720    8.1930  136.3530 N.am   93  GLN93      -0.1979
     77  CA        18.6390    9.0800  137.5230 C.3    93  GLN93       0.1601
     78  C         18.1570    8.1650  138.6980 C.2    93  GLN93       0.2287
     79  O         18.5720    8.3470  139.8350 O.2    93  GLN93      -0.2864
     80  CB        17.5930   10.1620  137.2410 C.3    93  GLN93       0.0394
     81  CG        17.1500   11.0520  138.4530 C.3    93  GLN93       0.0908
     82  CD        18.3080   11.7150  139.1490 C.2    93  GLN93       0.2608
     83  OE1       19.2120   12.2030  138.4550 O.2    93  GLN93      -0.2717
     84  NE2       18.3110   11.7500  140.5020 N.am   93  GLN93      -0.0878
     85  N         19.0130    4.8940  139.0370 N.3    95  LEU95      -0.1231
     86  CA        20.2140    4.1850  139.4300 C.3    95  LEU95       0.1693
     87  C         21.1380    5.0430  140.2640 C.2    95  LEU95       0.2592
     88  O         21.7460    4.5600  141.2160 O.2    95  LEU95      -0.2718
     89  CB        20.9520    3.6610  138.1730 C.3    95  LEU95       0.0284
     90  CG        20.4260    2.4090  137.4450 C.3    95  LEU95       0.0019
     91  CD1       21.2060    2.2430  136.1530 C.3    95  LEU95       0.0001
     92  CD2       20.4180    1.1320  138.2820 C.3    95  LEU95       0.0001
     93  N         21.1490    6.3580  140.0260 N.am   96  TRP96      -0.1976
     94  CA        21.9410    7.2560  140.8910 C.3    96  TRP96       0.1640
     95  C         21.5390    7.1000  142.3650 C.2    96  TRP96       0.2290
     96  O         22.4130    7.0930  143.2130 O.2    96  TRP96      -0.2864
     97  CB        21.7230    8.7310  140.4210 C.3    96  TRP96       0.0576
     98  CG        22.5090    9.7140  141.1480 C.ar   96  TRP96       0.0006
     99  CD1       23.7840   10.1150  140.8270 C.ar   96  TRP96       0.0946
    100  CD2       22.1360   10.4320  142.3030 C.ar   96  TRP96       0.0152
    101  NE1       24.2070   11.0830  141.7370 N.ar   96  TRP96      -0.2442
    102  CE2       23.2090   11.2610  142.6590 C.ar   96  TRP96       0.0810
    103  CE3       20.9640   10.4750  143.0840 C.ar   96  TRP96       0.0012
    104  CZ2       23.1450   12.1320  143.7670 C.ar   96  TRP96       0.0191
    105  CZ3       20.9510   11.2960  144.2010 C.ar   96  TRP96       0.0001
    106  CH2       22.0260   12.0840  144.5190 C.ar   96  TRP96       0.0015
    107  N         19.2030   -2.2390  136.5410 N.3   107  ARG107     -0.1245
    108  CA        20.5310   -2.2190  135.9650 C.3   107  ARG107      0.1563
    109  C         20.5250   -2.7930  134.5500 C.2   107  ARG107      0.2260
    110  O         21.1830   -2.2480  133.6300 O.2   107  ARG107     -0.2867
    111  CB        21.5130   -2.9440  136.8310 C.3   107  ARG107      0.0307
    112  CG        22.8670   -3.2230  136.2060 C.3   107  ARG107      0.0489
    113  CD        23.8360   -3.9060  137.1690 C.3   107  ARG107      0.2205
    114  NE        25.1230   -4.1580  136.5460 N.pl3 107  ARG107     -0.0865
    115  CZ        26.2230   -4.6290  137.1790 C.cat 107  ARG107      0.5346
    116  NH1       26.2280   -4.8560  138.4860 N.pl3 107  ARG107      0.1354
    117  NH2       27.3380   -4.8390  136.4900 N.pl3 107  ARG107      0.1354
    118  N         18.8240   -0.5310  131.8830 N.3   110  HIS110     -0.1226
    119  CA        19.6990    0.5530  131.4610 C.3   110  HIS110      0.1752
    120  C         20.8090    0.0180  130.4980 C.2   110  HIS110      0.2595
    121  O         21.0880    0.6040  129.4030 O.2   110  HIS110     -0.2718
    122  CB        20.3700    1.2110  132.6810 C.3   110  HIS110      0.0759
    123  CG        21.0850    2.5120  132.4400 C.ar  110  HIS110      0.0818
    124  ND1       20.4170    3.7020  132.4030 N.ar  110  HIS110     -0.2268
    125  CD2       22.4190    2.8410  132.2730 C.ar  110  HIS110      0.1154
    126  CE1       21.2800    4.7080  132.2240 C.ar  110  HIS110      0.1986
    127  NE2       22.5720    4.2880  132.1940 N.ar  110  HIS110     -0.2212
    128  N         21.3680   -1.1390  130.8060 N.am  111  GLN111     -0.1979
    129  CA        22.3680   -1.7430  129.8930 C.3   111  GLN111      0.1601
    130  C         21.8000   -2.1370  128.5630 C.2   111  GLN111      0.2287
    131  O         22.4170   -1.8580  127.5080 O.2   111  GLN111     -0.2864
    132  CB        22.9790   -2.9470  130.6010 C.3   111  GLN111      0.0394
    133  CG        24.2680   -3.4390  129.9610 C.3   111  GLN111      0.0908
    134  CD        24.0040   -4.4320  128.8840 C.2   111  GLN111      0.2608
    135  OE1       22.9940   -5.1480  128.9170 O.2   111  GLN111     -0.2717
    136  NE2       24.8840   -4.4720  127.8810 N.am  111  GLN111     -0.0878
    137  N         21.1490    0.8980  126.3390 N.3   114  ALA114     -0.1245
    138  CA        22.4030    1.2900  125.7530 C.3   114  ALA114      0.1562
    139  C         22.7640    0.3880  124.5610 C.2   114  ALA114      0.2260
    140  O         23.1760    0.8620  123.4910 O.2   114  ALA114     -0.2867
    141  CB        23.4910    1.2410  126.7660 C.3   114  ALA114      0.0290
    142  N         20.5330    1.3630  121.6270 N.3   117  ILE117     -0.1245
    143  CA        20.8780    2.5860  120.9920 C.3   117  ILE117      0.1561
    144  C         22.1700    2.3270  120.1130 C.2   117  ILE117      0.2260
    145  O         22.2760    2.8560  119.0160 O.2   117  ILE117     -0.2867
    146  CB        20.9160    3.7530  122.0410 C.3   117  ILE117      0.0252
    147  CG1       20.6150    5.1040  121.4390 C.3   117  ILE117      0.0019
    148  CG2       22.2190    3.8230  122.8310 C.3   117  ILE117      0.0019
    149  CD1       20.5430    6.1860  122.4710 C.3   117  ILE117      0.0001
    150  N         28.7500    6.6010  122.7460 N.3   182  VAL182     -0.1245
    151  CA        28.0510    5.4740  123.3090 C.3   182  VAL182      0.1561
    152  C         29.0840    4.4450  123.8120 C.2   182  VAL182      0.2260
    153  O         28.8750    3.8270  124.8770 O.2   182  VAL182     -0.2867
    154  CB        27.0070    4.8520  122.3420 C.3   182  VAL182      0.0252
    155  CG1       26.5170    3.4700  122.7100 C.3   182  VAL182      0.0019
    156  CG2       25.8370    5.8000  122.1820 C.3   182  VAL182      0.0019
    157  N         30.2490    5.7840  127.0700 N.3   185  LEU185     -0.1231
    158  CA        29.1860    5.6170  128.0620 C.3   185  LEU185      0.1693
    159  C         29.1850    4.1840  128.5890 C.2   185  LEU185      0.2591
    160  O         29.0860    3.9630  129.8290 O.2   185  LEU185     -0.2718
    161  CB        27.8130    6.0130  127.4660 C.3   185  LEU185      0.0284
    162  CG        27.6340    7.5460  127.4780 C.3   185  LEU185      0.0019
    163  CD1       26.7310    7.9860  126.3510 C.3   185  LEU185      0.0001
    164  CD2       27.1400    8.0600  128.7870 C.3   185  LEU185      0.0001
    165  N         29.2680    3.2320  127.7010 N.am  186  GLN186     -0.1979
    166  CA        29.3990    1.8470  128.1350 C.3   186  GLN186      0.1601
    167  C         30.6220    1.5810  129.0330 C.2   186  GLN186      0.2287
    168  O         30.5230    0.9150  130.0590 O.2   186  GLN186     -0.2864
    169  CB        29.3620    0.8780  126.9860 C.3   186  GLN186      0.0394
    170  CG        27.9470    0.7790  126.2960 C.3   186  GLN186      0.0908
    171  CD        27.9080    0.1700  124.8850 C.2   186  GLN186      0.2608
    172  OE1       26.8450   -0.3300  124.4080 O.2   186  GLN186     -0.2717
    173  NE2       29.0180    0.1880  124.2070 N.am  186  GLN186     -0.0878
    174  N         30.2050    3.3900  132.3860 N.3   189  GLY189     -0.1210
    175  CA        29.1550    2.8130  133.2150 C.3   189  GLY189      0.1956
    176  C         29.5750    1.4430  133.7770 C.2   189  GLY189      0.2611
    177  O         29.3500    1.1250  134.9280 O.2   189  GLY189     -0.2717
    178  N         30.2910    0.6730  132.9820 N.am  190  GLN190     -0.1979
    179  CA        30.8450   -0.6030  133.4370 C.3   190  GLN190      0.1601
    180  C         31.8000   -0.3780  134.6000 C.2   190  GLN190      0.2287
    181  O         31.7390   -1.1080  135.6000 O.2   190  GLN190     -0.2864
    182  CB        31.6000   -1.2590  132.3130 C.3   190  GLN190      0.0394
    183  CG        30.6680   -1.9500  131.3480 C.3   190  GLN190      0.0908
    184  CD        31.3650   -2.4060  130.0500 C.2   190  GLN190      0.2608
    185  OE1       30.7870   -2.3370  128.9460 O.2   190  GLN190     -0.2717
    186  NE2       32.6050   -2.8550  130.1720 N.am  190  GLN190     -0.0878
    187  N         31.6670    2.0390  136.6880 N.3   192  LEU192     -0.1231
    188  CA        30.8250    2.4160  137.8340 C.3   192  LEU192      0.1693
    189  C         30.3490    1.1750  138.5420 C.2   192  LEU192      0.2592
    190  O         30.4510    1.0960  139.7760 O.2   192  LEU192     -0.2718
    191  CB        29.6290    3.3200  137.4540 C.3   192  LEU192      0.0284
    192  CG        30.0270    4.8100  137.2070 C.3   192  LEU192      0.0019
    193  CD1       28.9770    5.5960  136.4470 C.3   192  LEU192      0.0001
    194  CD2       30.3610    5.5060  138.5100 C.3   192  LEU192      0.0001
    195  N         29.9340    0.1630  137.8110 N.am  193  TRP193     -0.1976
    196  CA        29.4980   -1.0680  138.4880 C.3   193  TRP193      0.1640
    197  C         30.6800   -1.8160  139.1720 C.2   193  TRP193      0.2290
    198  O         30.5220   -2.3420  140.3120 O.2   193  TRP193     -0.2864
    199  CB        28.7590   -1.9500  137.5390 C.3   193  TRP193      0.0576
    200  CG        27.3990   -1.4450  137.2320 C.ar  193  TRP193      0.0006
    201  CD1       26.9080   -1.1700  136.0040 C.ar  193  TRP193      0.0946
    202  CD2       26.3480   -1.1200  138.1590 C.ar  193  TRP193      0.0152
    203  NE1       25.5600   -0.7960  136.0840 N.ar  193  TRP193     -0.2442
    204  CE2       25.2120   -0.7450  137.3940 C.ar  193  TRP193      0.0810
    205  CE3       26.1950   -1.2600  139.5620 C.ar  193  TRP193      0.0012
    206  CZ2       23.9990   -0.3970  137.9880 C.ar  193  TRP193      0.0191
    207  CZ3       24.9360   -0.9600  140.1440 C.ar  193  TRP193      0.0001
    208  CH2       23.8820   -0.4700  139.3650 C.ar  193  TRP193      0.0015
@<TRIPOS>BOND
     1   145   144    2
     2   144   143    1
     3   143   142    1
     4   143   146    1
     5    44    46   ar
     6    44    42   ar
     7    46    45   ar
     8   147   146    1
     9   147   149    1
    10    39    38    2
    11    42    41   ar
    12   146   148    1
    13   156   154    1
    14   154   155    1
    15   154   151    1
    16    45    43   ar
    17   150   151    1
    18    38    37    1
    19    41    43   ar
    20    41    40    1
    21    37    40    1
    22    37    36    1
    23   151   152    1
    24   140   139    2
    25   152   153    2
    26   173   171   am
    27    54    52    1
    28   172   171    2
    29    51    52    1
    30    51    48    1
    31   139   138    1
    32    47    48    1
    33   171   170    1
    34    52    53    1
    35    48    49    1
    36   138   137    1
    37   138   141    1
    38   170   169    1
    39   163   162    1
    40    34    33    2
    41    61    60    1
    42    49    50    2
    43   169   166    1
    44   157   158    1
    45   161   162    1
    46   161   158    1
    47   162   164    1
    48    33    32    1
    49   131   130    2
    50   165   166    1
    51   165   159   am
    52   136   134   am
    53    60    59    1
    54    60    62    1
    55    32    31    1
    56    32    35    1
    57   158   159    1
    58   166   167    1
    59    70    69    2
    60   130   129    1
    61   159   160    2
    62    71    69   am
    63    59    56    1
    64   134   135    2
    65   134   133    1
    66    69    68    1
    67   185   184    2
    68   167   168    2
    69    55    56    1
    70   121   120    2
    71    56    57    1
    72    68    67    1
    73   129   132    1
    74   129   128    1
    75   133   132    1
    76   184   186   am
    77   184   183    1
    78   120   128   am
    79   120   119    1
    80    63    57   am
    81    63    64    1
    82    57    58    2
    83    67    64    1
    84    25    24    2
    85    15    14    2
    86   183   182    1
    87   119   118    1
    88   119   122    1
    89    64    65    1
    90    20    18   ar
    91    20    21   ar
    92    24    23    1
    93    18    17   ar
    94    21    19   ar
    95   127   126   ar
    96   127   125   ar
    97    14    13    1
    98    14    22   am
    99   126   124   ar
   100   125   123   ar
   101   182   179    1
   102   174   175    1
   103   124   123   ar
   104    13    12    1
   105    13    16    1
   106   123   122    1
   107    17    19   ar
   108    17    16    1
   109    65    66    2
   110    23    22    1
   111    23    26    1
   112   178   179    1
   113   178   176   am
   114   175   176    1
   115   179   180    1
   116   110   109    2
   117   176   177    2
   118    26    27    1
   119    72    73    1
   120   109   108    1
   121   180   181    2
   122    73    74    1
   123    27    28    1
   124     4     3    2
   125   108   107    1
   126   108   111    1
   127   201   203   ar
   128   201   200   ar
   129   203   204   ar
   130    91    90    1
   131   112   111    1
   132   112   113    1
   133    74    76   am
   134    74    75    2
   135    76    77    1
   136   193   192    1
   137   117   115    1
   138   114   113    1
   139   114   115    2
   140   187   188    1
   141     3     2    1
   142    28    29    2
   143    28    30   am
   144   115   116    1
   145   192   191    1
   146   192   194    1
   147   200   199    1
   148   200   202   ar
   149    80    77    1
   150    80    81    1
   151   204   206   ar
   152   204   202   ar
   153    90    89    1
   154    90    92    1
   155   191   188    1
   156     2     1    1
   157     2     5    1
   158    77    78    1
   159   199   196    1
   160   195   196    1
   161   195   189   am
   162   188   189    1
   163   206   208   ar
   164   202   205   ar
   165    89    86    1
   166    81    82    1
   167    83    82    2
   168   196   197    1
   169   189   190    2
   170    78    79    2
   171     5     6    1
   172    85    86    1
   173    82    84   am
   174   197   198    2
   175   208   207   ar
   176    86    87    1
   177   205   207   ar
   178     6     7    1
   179    93    87   am
   180    93    94    1
   181    87    88    2
   182    97    94    1
   183    97    98    1
   184     7     8    1
   185    99    98   ar
   186    99   101   ar
   187    94    95    1
   188    98   100   ar
   189   101   102   ar
   190     8     9    2
   191   100   102   ar
   192   100   103   ar
   193    95    96    2
   194   102   104   ar
   195     9    10    1
   196     9    11    1
   197   103   105   ar
   198   104   106   ar
   199   105   106   ar
