@<TRIPOS>MOLECULE
tmp/5vjyC00.pdb
 93 89 0 0 0
SMALL
GASTEIGER

@<TRIPOS>ATOM
      1  N        -82.8990   22.5470  -27.3980 N.3    47  LEU47      -0.1245
      2  CA       -82.7450   22.2690  -25.9710 C.3    47  LEU47       0.1561
      3  C        -84.1050   22.4330  -25.2990 C.2    47  LEU47       0.2260
      4  O        -84.6380   23.5420  -25.2310 O.2    47  LEU47      -0.2867
      5  CB       -81.7030   23.1920  -25.3330 C.3    47  LEU47       0.0270
      6  CG       -81.4250   22.9960  -23.8310 C.3    47  LEU47       0.0019
      7  CD1      -80.9380   21.5690  -23.5410 C.3    47  LEU47       0.0001
      8  CD2      -80.4350   24.0340  -23.2690 C.3    47  LEU47       0.0001
      9  N        -79.7620   11.1290  -19.8440 N.3    64  VAL64      -0.1245
     10  CA       -80.8900   11.4390  -20.7190 C.3    64  VAL64       0.1561
     11  C        -80.7510   10.5790  -21.9640 C.2    64  VAL64       0.2260
     12  O        -79.7010   10.5820  -22.6200 O.2    64  VAL64      -0.2867
     13  CB       -80.9350   12.9290  -21.0740 C.3    64  VAL64       0.0252
     14  CG1      -82.1780   13.2310  -21.9350 C.3    64  VAL64       0.0019
     15  CG2      -80.9180   13.7920  -19.8090 C.3    64  VAL64       0.0019
     16  N        -75.7850   15.3540  -25.8180 N.3    80  ALA80      -0.1231
     17  CA       -75.3420   15.6960  -24.4580 C.3    80  ALA80       0.1694
     18  C        -75.8290   14.5790  -23.5360 C.2    80  ALA80       0.2593
     19  O        -75.5820   13.4040  -23.8360 O.2    80  ALA80      -0.2718
     20  CB       -75.8340   17.0950  -24.1100 C.3    80  ALA80       0.0304
     21  N        -76.5360   14.8850  -22.4520 N.am   81  GLY81      -0.1942
     22  CA       -77.2620   13.8710  -21.7140 C.3    81  GLY81       0.2014
     23  C        -76.5890   13.3200  -20.4760 C.2    81  GLY81       0.2639
     24  O        -77.1830   12.4650  -19.8120 O.2    81  GLY81      -0.2714
     25  N        -75.3670   13.7440  -20.1530 N.am   82  VAL82      -0.1963
     26  CA       -74.6930   13.2860  -18.9410 C.3    82  VAL82       0.1727
     27  C        -75.0700   14.2390  -17.8090 C.2    82  VAL82       0.2616
     28  O        -74.5850   15.3740  -17.7610 O.2    82  VAL82      -0.2715
     29  CB       -73.1710   13.2180  -19.1390 C.3    82  VAL82       0.0290
     30  CG1      -72.4600   12.8330  -17.8300 C.3    82  VAL82       0.0023
     31  CG2      -72.8430   12.2070  -20.2640 C.3    82  VAL82       0.0023
     32  N        -75.9420   13.7880  -16.9020 N.am   83  VAL83      -0.1963
     33  CA       -76.4030   14.6030  -15.7770 C.3    83  VAL83       0.1727
     34  C        -75.6830   14.1260  -14.5230 C.2    83  VAL83       0.2616
     35  O        -75.9770   13.0430  -13.9990 O.2    83  VAL83      -0.2715
     36  CB       -77.9260   14.5310  -15.5920 C.3    83  VAL83       0.0290
     37  CG1      -78.3290   15.3990  -14.3970 C.3    83  VAL83       0.0023
     38  CG2      -78.6580   14.9870  -16.8670 C.3    83  VAL83       0.0023
     39  N        -74.7660   14.9510  -14.0180 N.am   84  ASP84      -0.1971
     40  CA       -73.9490   14.5630  -12.8770 C.3    84  ASP84       0.1709
     41  C        -74.7890   14.5250  -11.6090 C.2    84  ASP84       0.2293
     42  O        -75.7860   15.2460  -11.4760 O.2    84  ASP84      -0.2864
     43  CB       -72.7880   15.5400  -12.6840 C.3    84  ASP84       0.1436
     44  CG       -71.9530   15.7070  -13.9370 C.2    84  ASP84       0.3671
     45  OD1      -71.6360   14.6940  -14.5910 O.co2  84  ASP84      -0.2456
     46  OD2      -71.6110   16.8590  -14.2690 O.co2  84  ASP84      -0.2456
     47  N        -75.0730   17.9290  -10.2490 N.3    87  TYR87      -0.1241
     48  CA       -75.7000   18.9610  -11.0700 C.3    87  TYR87       0.1605
     49  C        -77.0270   19.3810  -10.4520 C.2    87  TYR87       0.2264
     50  O        -77.8640   18.5320  -10.1210 O.2    87  TYR87      -0.2867
     51  CB       -75.9320   18.4490  -12.4930 C.3    87  TYR87       0.0534
     52  CG       -76.6910   19.4270  -13.3720 C.ar   87  TYR87      -0.0201
     53  CD1      -76.0840   20.5950  -13.8320 C.ar   87  TYR87      -0.0009
     54  CD2      -78.0130   19.1870  -13.7300 C.ar   87  TYR87      -0.0009
     55  CE1      -76.7750   21.4920  -14.6320 C.ar   87  TYR87       0.0417
     56  CE2      -78.7150   20.0770  -14.5310 C.ar   87  TYR87       0.0417
     57  CZ       -78.0860   21.2210  -14.9850 C.ar   87  TYR87       0.1957
     58  OH       -78.7770   22.1060  -15.7850 O.3    87  TYR87      -0.2866
     59  N        -81.5650   23.3730  -14.1250 N.3    90  ASN90      -0.1225
     60  CA       -82.7360   22.8980  -14.8570 C.3    90  ASN90       0.1785
     61  C        -82.3590   21.7000  -15.7190 C.2    90  ASN90       0.2597
     62  O        -81.4050   21.7580  -16.4990 O.2    90  ASN90      -0.2718
     63  CB       -83.2830   24.0360  -15.7300 C.3    90  ASN90       0.1169
     64  CG       -84.7170   23.8010  -16.2010 C.2    90  ASN90       0.2627
     65  OD1      -85.1290   22.6700  -16.4430 O.2    90  ASN90      -0.2716
     66  ND2      -85.4780   24.8910  -16.3540 N.am   90  ASN90      -0.0877
     67  N        -83.0890   20.6010  -15.5630 N.am   91  LEU91      -0.1966
     68  CA       -82.8080   19.4030  -16.3540 C.3    91  LEU91       0.1728
     69  C        -83.2750   19.6370  -17.7830 C.2    91  LEU91       0.2617
     70  O        -84.4810   19.6900  -18.0510 O.2    91  LEU91      -0.2715
     71  CB       -83.4990   18.1890  -15.7400 C.3    91  LEU91       0.0311
     72  CG       -83.4150   16.8680  -16.5100 C.3    91  LEU91       0.0022
     73  CD1      -81.9720   16.4380  -16.6570 C.3    91  LEU91       0.0001
     74  CD2      -84.2310   15.7820  -15.8030 C.3    91  LEU91       0.0001
     75  N        -82.3260   19.7950  -18.6980 N.am   92  GLY92      -0.1940
     76  CA       -82.6310   20.0330  -20.0930 C.3    92  GLY92       0.2014
     77  C        -82.4040   18.7870  -20.9270 C.2    92  GLY92       0.2639
     78  O        -81.6160   17.9180  -20.5670 O.2    92  GLY92      -0.2714
     79  N        -83.1430   18.6920  -22.0310 N.am   93  VAL93      -0.1963
     80  CA       -83.0460   17.5780  -22.9670 C.3    93  VAL93       0.1727
     81  C        -82.6450   18.1480  -24.3200 C.2    93  VAL93       0.2616
     82  O        -83.4020   18.9150  -24.9270 O.2    93  VAL93      -0.2715
     83  CB       -84.3680   16.7960  -23.0690 C.3    93  VAL93       0.0290
     84  CG1      -84.2600   15.7100  -24.1250 C.3    93  VAL93       0.0023
     85  CG2      -84.7200   16.1750  -21.7300 C.3    93  VAL93       0.0023
     86  N        -81.4570   17.7830  -24.7890 N.am   94  LEU94      -0.1977
     87  CA       -80.9520   18.2650  -26.0710 C.3    94  LEU94       0.1596
     88  C        -81.3600   17.2690  -27.1430 C.2    94  LEU94       0.2287
     89  O        -80.8900   16.1310  -27.1460 O.2    94  LEU94      -0.2864
     90  CB       -79.4340   18.4350  -26.0350 C.3    94  LEU94       0.0297
     91  CG       -78.8900   18.9060  -27.3790 C.3    94  LEU94       0.0022
     92  CD1      -79.3800   20.3180  -27.6350 C.3    94  LEU94       0.0001
     93  CD2      -77.3750   18.8560  -27.3630 C.3    94  LEU94       0.0001
@<TRIPOS>BOND
     1    92    91    1
     2     1     2    1
     3    91    93    1
     4    91    90    1
     5    89    88    2
     6    88    87    1
     7    87    90    1
     8    87    86    1
     9     2     5    1
    10     2     3    1
    11    16    17    1
    12     5     6    1
    13     3     4    2
    14    82    81    2
    15    86    81   am
    16    17    20    1
    17    17    18    1
    18    81    80    1
    19    84    83    1
    20    19    18    2
    21     6     7    1
    22     6     8    1
    23    18    21   am
    24    83    80    1
    25    83    85    1
    26    80    79    1
    27    12    11    2
    28    21    22    1
    29    79    77   am
    30    11    10    1
    31    14    13    1
    32    22    23    1
    33    13    10    1
    34    13    15    1
    35    77    78    2
    36    77    76    1
    37    10     9    1
    38    23    25   am
    39    23    24    2
    40    31    29    1
    41    25    26    1
    42    76    75    1
    43    29    26    1
    44    29    30    1
    45    26    27    1
    46    75    69   am
    47    70    69    2
    48    27    28    2
    49    27    32   am
    50    69    68    1
    51    32    33    1
    52    38    36    1
    53    73    72    1
    54    72    74    1
    55    72    71    1
    56    62    61    2
    57    65    64    2
    58    68    71    1
    59    68    67    1
    60    66    64   am
    61    64    63    1
    62    58    57    1
    63    33    36    1
    64    33    34    1
    65    63    60    1
    66    61    67   am
    67    61    60    1
    68    36    37    1
    69    57    55   ar
    70    57    56   ar
    71    60    59    1
    72    55    53   ar
    73    45    44   ar
    74    56    54   ar
    75    34    39   am
    76    34    35    2
    77    46    44   ar
    78    39    40    1
    79    44    43    1
    80    53    52   ar
    81    54    52   ar
    82    52    51    1
    83    40    43    1
    84    40    41    1
    85    51    48    1
    86    41    42    2
    87    48    49    1
    88    48    47    1
    89    49    50    2
