@<TRIPOS>MOLECULE
tmp/5vk2D01.pdb
 82 80 0 0 0
SMALL
GASTEIGER

@<TRIPOS>ATOM
      1  N        -89.6710   72.6500   17.1450 N.3    31  LEU31      -0.1231
      2  CA       -88.4160   71.9140   17.1930 C.3    31  LEU31       0.1693
      3  C        -88.4580   70.8450   18.2800 C.2    31  LEU31       0.2592
      4  O        -89.0710   71.0230   19.3370 O.2    31  LEU31      -0.2718
      5  CB       -87.2360   72.8640   17.4220 C.3    31  LEU31       0.0284
      6  CG       -86.9040   73.3700   18.8310 C.3    31  LEU31       0.0019
      7  CD1      -85.8750   72.4750   19.5130 C.3    31  LEU31       0.0001
      8  CD2      -86.4180   74.8130   18.7870 C.3    31  LEU31       0.0001
      9  N        -87.7940   69.7220   18.0040 N.am   32  LYS32      -0.1966
     10  CA       -87.7610   68.5760   18.9020 C.3    32  LYS32       0.1728
     11  C        -86.3190   68.1300   19.0820 C.2    32  LYS32       0.2616
     12  O        -85.5730   68.0230   18.1040 O.2    32  LYS32      -0.2715
     13  CB       -88.6080   67.4220   18.3570 C.3    32  LYS32       0.0311
     14  CG       -90.0520   67.8040   18.0670 C.3    32  LYS32       0.0038
     15  CD       -90.9350   66.5770   17.9040 C.3    32  LYS32       0.0206
     16  CE       -92.4010   66.9700   17.8030 C.3    32  LYS32       0.1093
     17  NZ       -93.3080   65.7980   17.9610 N.3    32  LYS32      -0.1314
     18  N        -85.9340   67.8630   20.3270 N.am   33  CYS33      -0.1954
     19  CA       -84.5700   67.4820   20.6650 C.3    33  CYS33       0.1843
     20  C        -84.5550   66.0900   21.2760 C.2    33  CYS33       0.2625
     21  O        -85.4460   65.7330   22.0530 O.2    33  CYS33      -0.2714
     22  CB       -83.9470   68.4730   21.6420 C.3    33  CYS33       0.0997
     23  SG       -83.4120   70.0120   20.8860 S.3    33  CYS33      -0.0797
     24  N        -83.5310   65.3140   20.9370 N.am   34  PHE34      -0.1974
     25  CA       -83.3970   63.9430   21.4070 C.3    34  PHE34       0.1639
     26  C        -82.0880   63.7830   22.1640 C.2    34  PHE34       0.2290
     27  O        -81.0460   64.2930   21.7400 O.2    34  PHE34      -0.2864
     28  CB       -83.4670   62.9560   20.2380 C.3    34  PHE34       0.0560
     29  CG       -84.8170   62.8960   19.5840 C.ar   34  PHE34      -0.0200
     30  CD1      -85.1140   63.7110   18.5030 C.ar   34  PHE34      -0.0042
     31  CD2      -85.7950   62.0410   20.0610 C.ar   34  PHE34      -0.0042
     32  CE1      -86.3580   63.6650   17.9060 C.ar   34  PHE34      -0.0003
     33  CE2      -87.0410   61.9910   19.4690 C.ar   34  PHE34      -0.0003
     34  CZ       -87.3230   62.8020   18.3900 C.ar   34  PHE34      -0.0000
     35  N        -92.3550   57.4910   18.8720 N.3   112  TYR112     -0.1241
     36  CA       -91.4570   57.2660   19.9960 C.3   112  TYR112      0.1605
     37  C        -92.2360   57.4170   21.2950 C.2   112  TYR112      0.2264
     38  O        -93.3570   57.9310   21.3190 O.2   112  TYR112     -0.2867
     39  CB       -90.2550   58.2200   19.9590 C.3   112  TYR112      0.0534
     40  CG       -90.6120   59.6910   19.9050 C.ar  112  TYR112     -0.0201
     41  CD1      -90.9380   60.3930   21.0560 C.ar  112  TYR112     -0.0009
     42  CD2      -90.6160   60.3780   18.7000 C.ar  112  TYR112     -0.0009
     43  CE1      -91.2590   61.7350   21.0060 C.ar  112  TYR112      0.0417
     44  CE2      -90.9370   61.7180   18.6420 C.ar  112  TYR112      0.0417
     45  CZ       -91.2570   62.3910   19.7940 C.ar  112  TYR112      0.1957
     46  OH       -91.5760   63.7280   19.7310 O.3   112  TYR112     -0.2866
     47  N        -92.3000   59.0840   25.0770 N.3   114  ASN114     -0.1225
     48  CA       -91.7940   60.2380   25.8100 C.3   114  ASN114      0.1785
     49  C        -92.2930   60.1350   27.2430 C.2   114  ASN114      0.2597
     50  O        -93.5050   60.0860   27.4720 O.2   114  ASN114     -0.2718
     51  CB       -92.2660   61.5440   25.1620 C.3   114  ASN114      0.1169
     52  CG       -91.6030   62.7810   25.7550 C.2   114  ASN114      0.2627
     53  OD1      -90.8750   62.7050   26.7420 O.2   114  ASN114     -0.2716
     54  ND2      -91.8960   63.9390   25.1660 N.am  114  ASN114     -0.0877
     55  N        -91.3670   60.0870   28.1990 N.am  115  HIS115     -0.1961
     56  CA       -91.7490   60.0170   29.6040 C.3   115  HIS115      0.1787
     57  C        -92.3450   61.3500   30.0440 C.2   115  HIS115      0.2620
     58  O        -91.7580   62.4110   29.8110 O.2   115  HIS115     -0.2715
     59  CB       -90.5400   59.6540   30.4650 C.3   115  HIS115      0.0785
     60  CG       -90.8890   59.2150   31.8550 C.ar  115  HIS115      0.0821
     61  ND1      -91.3300   60.0880   32.8260 N.ar  115  HIS115     -0.2267
     62  CD2      -90.8550   57.9930   32.4370 C.ar  115  HIS115      0.1154
     63  CE1      -91.5560   59.4220   33.9450 C.ar  115  HIS115      0.1986
     64  NE2      -91.2760   58.1480   33.7350 N.ar  115  HIS115     -0.2212
     65  N        -93.5140   61.2930   30.6910 N.am  116  THR116     -0.1951
     66  CA       -94.3030   62.5020   30.9120 C.3   116  THR116      0.1897
     67  C        -93.6030   63.4970   31.8290 C.2   116  THR116      0.2313
     68  O        -93.8320   64.7070   31.7130 O.2   116  THR116     -0.2863
     69  CB       -95.6750   62.1400   31.4860 C.3   116  THR116      0.1794
     70  OG1      -95.5200   61.1780   32.5360 O.3   116  THR116     -0.2208
     71  CG2      -96.5750   61.5620   30.4020 C.3   116  THR116      0.0378
     72  N        -88.8970   63.4020   30.6770 N.3   119  GLY119     -0.1225
     73  CA       -88.6980   64.0060   29.3790 C.3   119  GLY119      0.1811
     74  C        -87.8480   63.2080   28.4170 C.2   119  GLY119      0.2280
     75  O        -87.6990   63.6240   27.2600 O.2   119  GLY119     -0.2866
     76  N        -86.7770   60.3170   25.7750 N.3   121  THR121     -0.1218
     77  CA       -87.5060   59.6930   24.6830 C.3   121  THR121      0.1862
     78  C        -86.7080   58.5290   24.1180 C.2   121  THR121      0.2287
     79  O        -85.4750   58.5230   24.1540 O.2   121  THR121     -0.2866
     80  CB       -87.8110   60.6920   23.5590 C.3   121  THR121      0.1770
     81  OG1      -86.5830   61.1780   23.0030 O.3   121  THR121     -0.2211
     82  CG2      -88.6180   61.8630   24.0940 C.3   121  THR121      0.0375
@<TRIPOS>BOND
     1     1     2    1
     2     2     5    1
     3     2     3    1
     4     5     6    1
     5    16    15    1
     6    16    17    1
     7    15    14    1
     8    32    34   ar
     9    32    30   ar
    10     9     3   am
    11     9    10    1
    12    14    13    1
    13    12    11    2
    14     3     4    2
    15    13    10    1
    16    34    33   ar
    17    30    29   ar
    18    44    42   ar
    19    44    45   ar
    20    42    40   ar
    21     8     6    1
    22     6     7    1
    23    35    36    1
    24    10    11    1
    25    11    18   am
    26    33    31   ar
    27    29    31   ar
    28    29    28    1
    29    46    45    1
    30    45    43   ar
    31    40    39    1
    32    40    41   ar
    33    39    36    1
    34    36    37    1
    35    28    25    1
    36    18    19    1
    37    19    20    1
    38    19    22    1
    39    23    22    1
    40    24    20   am
    41    24    25    1
    42    43    41   ar
    43    20    21    2
    44    37    38    2
    45    25    26    1
    46    27    26    2
    47    81    80    1
    48    80    82    1
    49    80    77    1
    50    78    79    2
    51    78    77    1
    52    77    76    1
    53    47    48    1
    54    51    52    1
    55    51    48    1
    56    54    52   am
    57    52    53    2
    58    48    49    1
    59    49    50    2
    60    49    55   am
    61    75    74    2
    62    55    56    1
    63    74    73    1
    64    73    72    1
    65    56    57    1
    66    56    59    1
    67    58    57    2
    68    57    65   am
    69    71    69    1
    70    59    60    1
    71    65    66    1
    72    66    69    1
    73    66    67    1
    74    69    70    1
    75    68    67    2
    76    60    62   ar
    77    60    61   ar
    78    62    64   ar
    79    61    63   ar
    80    64    63   ar
