@<TRIPOS>MOLECULE
tmp/5vk4B01.pdb
 125 119 0 0 0
SMALL
GASTEIGER

@<TRIPOS>ATOM
      1  N         12.0590   11.5270    4.1990 N.3     4  ASP4       -0.1239
      2  CA        11.3780   12.7970    4.4280 C.3     4  ASP4        0.1674
      3  C         11.9880   13.8950    3.5600 C.2     4  ASP4        0.2266
      4  O         11.2770   14.7720    3.0520 O.2     4  ASP4       -0.2867
      5  CB        11.4500   13.1620    5.9130 C.3     4  ASP4        0.1410
      6  CG        10.6030   12.2430    6.7850 C.2     4  ASP4        0.3668
      7  OD1        9.5910   11.6990    6.2870 O.co2   4  ASP4       -0.2456
      8  OD2       10.9590   12.0560    7.9710 O.co2   4  ASP4       -0.2456
      9  N         13.3640   13.2720    0.5910 N.3     6  LEU6       -0.1231
     10  CA        12.9640   12.9890   -0.7830 C.3     6  LEU6        0.1693
     11  C         11.5490   13.4750   -1.0610 C.2     6  LEU6        0.2591
     12  O         11.2770   14.0060   -2.1440 O.2     6  LEU6       -0.2718
     13  CB        13.0840   11.4920   -1.0700 C.3     6  LEU6        0.0284
     14  CG        12.6300   11.0380   -2.4600 C.3     6  LEU6        0.0019
     15  CD1       13.5290   11.6010   -3.5450 C.3     6  LEU6        0.0001
     16  CD2       12.5800    9.5220   -2.5400 C.3     6  LEU6        0.0001
     17  N         10.6360   13.3090   -0.0980 N.am    7  VAL7       -0.1980
     18  CA         9.2510   13.7320   -0.3090 C.3     7  VAL7        0.1595
     19  C          9.1880   15.2320   -0.5660 C.2     7  VAL7        0.2287
     20  O          8.4310   15.6990   -1.4260 O.2     7  VAL7       -0.2864
     21  CB         8.3670   13.3170    0.8830 C.3     7  VAL7        0.0276
     22  CG1        7.0640   14.1160    0.8830 C.3     7  VAL7        0.0022
     23  CG2        8.0710   11.8200    0.8340 C.3     7  VAL7        0.0022
     24  N         10.3670   16.1490   -4.1900 N.3    10  ILE10      -0.1245
     25  CA         9.5010   15.7640   -5.3040 C.3    10  ILE10       0.1561
     26  C          8.1430   16.4420   -5.2770 C.2    10  ILE10       0.2260
     27  O          7.4440   16.4360   -6.3020 O.2    10  ILE10      -0.2867
     28  CB         9.2760   14.2400   -5.3470 C.3    10  ILE10       0.0252
     29  CG1        8.5930   13.7720   -4.0630 C.3    10  ILE10       0.0019
     30  CG2       10.5950   13.5140   -5.5640 C.3    10  ILE10       0.0019
     31  CD1        8.0330   12.3720   -4.1410 C.3    10  ILE10       0.0001
     32  N          0.1550   16.1790   -1.6880 N.3    26  LEU26      -0.1231
     33  CA         1.0270   15.1400   -1.1540 C.3    26  LEU26       0.1693
     34  C          1.1840   15.3020    0.3520 C.2    26  LEU26       0.2593
     35  O          1.3180   16.4170    0.8640 O.2    26  LEU26      -0.2718
     36  CB         2.3970   15.1810   -1.8360 C.3    26  LEU26       0.0284
     37  CG         2.6490   14.1480   -2.9390 C.3    26  LEU26       0.0019
     38  CD1        1.8160   14.4630   -4.1760 C.3    26  LEU26       0.0001
     39  CD2        4.1300   14.0560   -3.2830 C.3    26  LEU26       0.0001
     40  N          1.1510   14.1790    1.0620 N.am   27  GLY27      -0.1942
     41  CA         1.2060   14.2040    2.5090 C.3    27  GLY27       0.2014
     42  C         -0.1510   13.9770    3.1430 C.2    27  GLY27       0.2639
     43  O         -1.0660   14.7920    2.9800 O.2    27  GLY27      -0.2714
     44  N         -0.2870   12.8810    3.8680 N.am   28  GLY28      -0.1939
     45  CA        -1.5490   12.4720    4.4560 C.3    28  GLY28       0.2014
     46  C         -1.6950   10.9660    4.3580 C.2    28  GLY28       0.2638
     47  O         -1.0310   10.2970    3.5640 O.2    28  GLY28      -0.2714
     48  N         -2.5920   10.4230    5.1870 N.am   29  PHE29      -0.1973
     49  CA        -2.7640    8.9730    5.2630 C.3    29  PHE29       0.1639
     50  C         -3.2140    8.3910    3.9260 C.2    29  PHE29       0.2290
     51  O         -2.6980    7.3590    3.4790 O.2    29  PHE29      -0.2864
     52  CB        -3.7720    8.6230    6.3570 C.3    29  PHE29       0.0560
     53  CG        -3.1460    8.1660    7.6420 C.ar   29  PHE29      -0.0200
     54  CD1       -2.4520    6.9740    7.7000 C.ar   29  PHE29      -0.0042
     55  CD2       -3.2740    8.9170    8.7990 C.ar   29  PHE29      -0.0042
     56  CE1       -1.8800    6.5490    8.8830 C.ar   29  PHE29      -0.0003
     57  CE2       -2.7060    8.4950    9.9860 C.ar   29  PHE29      -0.0003
     58  CZ        -2.0070    7.3120   10.0250 C.ar   29  PHE29      -0.0000
     59  N          3.3780    5.5060   -7.0690 N.3    91  ASP91      -0.1239
     60  CA         4.6010    4.7530   -7.3240 C.3    91  ASP91       0.1674
     61  C          5.1890    4.2100   -6.0300 C.2    91  ASP91       0.2266
     62  O          5.0470    4.7940   -4.9590 O.2    91  ASP91      -0.2867
     63  CB         5.6680    5.5890   -8.0380 C.3    91  ASP91       0.1410
     64  CG         6.3180    6.5830   -7.1260 C.2    91  ASP91       0.3668
     65  OD1        5.7140    7.6490   -6.8900 O.co2  91  ASP91      -0.2456
     66  OD2        7.4290    6.2990   -6.6310 O.co2  91  ASP91      -0.2456
     67  N          8.8790    2.8440   -4.5620 N.3    93  PHE93      -0.1241
     68  CA        10.3090    2.9550   -4.8320 C.3    93  PHE93       0.1605
     69  C         11.0390    2.2300   -3.7070 C.2    93  PHE93       0.2264
     70  O         10.9390    2.6290   -2.5420 O.2    93  PHE93      -0.2867
     71  CB        10.7010    4.4350   -4.9130 C.3    93  PHE93       0.0534
     72  CG        12.1420    4.6930   -5.2630 C.ar   93  PHE93      -0.0203
     73  CD1       13.1540    4.5190   -4.3220 C.ar   93  PHE93      -0.0042
     74  CD2       12.4820    5.1940   -6.5080 C.ar   93  PHE93      -0.0042
     75  CE1       14.4910    4.7810   -4.6460 C.ar   93  PHE93      -0.0003
     76  CE2       13.8160    5.4680   -6.8320 C.ar   93  PHE93      -0.0003
     77  CZ        14.8150    5.2590   -5.9020 C.ar   93  PHE93      -0.0000
     78  N         11.8620    9.8510   -9.6980 N.3   107  ILE107     -0.1245
     79  CA        10.4830   10.2640   -9.4870 C.3   107  ILE107      0.1561
     80  C         10.1540   11.4720  -10.3520 C.2   107  ILE107      0.2260
     81  O          9.0070   11.6440  -10.7880 O.2   107  ILE107     -0.2867
     82  CB        10.2550   10.5120   -7.9860 C.3   107  ILE107      0.0252
     83  CG1       10.4450    9.1940   -7.2180 C.3   107  ILE107      0.0019
     84  CG2        8.8990   11.1180   -7.7310 C.3   107  ILE107      0.0019
     85  CD1       10.5010    9.3320   -5.7110 C.3   107  ILE107      0.0001
     86  N         -0.0720   12.4580  -10.1210 N.3   121  LEU121     -0.1231
     87  CA         0.7690   11.6480   -9.2460 C.3   121  LEU121      0.1693
     88  C          0.4470   12.0610   -7.8190 C.2   121  LEU121      0.2592
     89  O          0.9180   13.1000   -7.3420 O.2   121  LEU121     -0.2718
     90  CB         2.2420   11.8610   -9.5620 C.3   121  LEU121      0.0284
     91  CG         3.1840   11.1000   -8.6350 C.3   121  LEU121      0.0019
     92  CD1        2.9990    9.5870   -8.8660 C.3   121  LEU121      0.0001
     93  CD2        4.6290   11.5520   -8.8380 C.3   121  LEU121      0.0001
     94  N         -0.3740   11.2610   -7.1380 N.am  122  ILE122     -0.1966
     95  CA        -0.9650   11.6680   -5.8660 C.3   122  ILE122      0.1727
     96  C         -0.3540   10.9880   -4.6540 C.2   122  ILE122      0.2617
     97  O         -0.7250   11.3330   -3.5200 O.2   122  ILE122     -0.2715
     98  CB        -2.4920   11.4680   -5.8670 C.3   122  ILE122      0.0290
     99  CG1       -2.8420    9.9800   -5.9560 C.3   122  ILE122      0.0022
    100  CG2       -3.1020   12.2590   -7.0130 C.3   122  ILE122      0.0023
    101  CD1       -4.3310    9.7170   -5.9430 C.3   122  ILE122      0.0001
    102  N          0.5530   10.0410   -4.8290 N.am  123  GLY123     -0.1940
    103  CA         1.0910    9.4030   -3.6470 C.3   123  GLY123      0.2014
    104  C          2.1000    8.3490   -4.0160 C.2   123  GLY123      0.2639
    105  O          2.3640    8.0850   -5.1930 O.2   123  GLY123     -0.2714
    106  N          2.6780    7.7560   -2.9820 N.am  124  GLY124     -0.1939
    107  CA         3.6790    6.7390   -3.2110 C.3   124  GLY124      0.2014
    108  C          4.2730    6.2390   -1.9160 C.2   124  GLY124      0.2639
    109  O          3.7590    6.4930   -0.8220 O.2   124  GLY124     -0.2714
    110  N          5.3780    5.5190   -2.0660 N.am  125  GLU125     -0.1963
    111  CA         6.0820    4.9270   -0.9420 C.3   125  GLU125      0.1733
    112  C          7.5530    4.8380   -1.3080 C.2   125  GLU125      0.2617
    113  O          7.8980    4.5450   -2.4590 O.2   125  GLU125     -0.2715
    114  CB         5.5050    3.5460   -0.6030 C.3   125  GLU125      0.0429
    115  CG         6.3680    2.6390    0.2600 C.3   125  GLU125      0.1163
    116  CD         6.3770    3.0230    1.7210 C.2   125  GLU125      0.3649
    117  OE1        5.7530    4.0390    2.0880 O.co2 125  GLU125     -0.2457
    118  OE2        6.9820    2.2770    2.5170 O.co2 125  GLU125     -0.2457
    119  N          8.4130    5.1770   -0.3550 N.am  126  THR126     -0.1951
    120  CA         9.8520    4.9980   -0.5090 C.3   126  THR126      0.1897
    121  C         10.3150    4.0400    0.5770 C.2   126  THR126      0.2313
    122  O         10.3070    4.3950    1.7570 O.2   126  THR126     -0.2863
    123  CB        10.5860    6.3340   -0.4380 C.3   126  THR126      0.1794
    124  OG1       10.0040    7.2300   -1.3920 O.3   126  THR126     -0.2208
    125  CG2       12.0800    6.1590   -0.7400 C.3   126  THR126      0.0378
@<TRIPOS>BOND
     1    81    80    2
     2    80    79    1
     3    86    87    1
     4    78    79    1
     5    90    87    1
     6    90    91    1
     7    79    82    1
     8    87    88    1
     9    92    91    1
    10    93    91    1
    11    63    60    1
    12    63    64    1
    13    82    84    1
    14    82    83    1
    15    88    89    2
    16    88    94   am
    17    60    59    1
    18    60    61    1
    19    83    85    1
    20    94    95    1
    21    64    65   ar
    22    64    66   ar
    23   100    98    1
    24    76    74   ar
    25    76    77   ar
    26    74    72   ar
    27    27    26    2
    28    61    62    2
    29    99   101    1
    30    99    98    1
    31    77    75   ar
    32    98    95    1
    33    95    96    1
    34    30    28    1
    35    28    25    1
    36    28    29    1
    37    25    26    1
    38    25    24    1
    39    72    71    1
    40    72    73   ar
    41   105   104    2
    42    71    68    1
    43    68    67    1
    44    68    69    1
    45   102    96   am
    46   102   103    1
    47    96    97    2
    48    75    73   ar
    49    38    37    1
    50    31    29    1
    51   104   103    1
    52   104   106   am
    53    69    70    2
    54    15    14    1
    55    39    37    1
    56   107   106    1
    57   107   108    1
    58    37    36    1
    59    16    14    1
    60    14    13    1
    61   113   112    2
    62    12    11    2
    63   110   108   am
    64   110   111    1
    65   108   109    2
    66    36    33    1
    67    32    33    1
    68    20    19    2
    69   124   123    1
    70   112   111    1
    71   112   119   am
    72    33    34    1
    73    13    10    1
    74    11    10    1
    75    11    17   am
    76   111   114    1
    77    10     9    1
    78   125   123    1
    79   114   115    1
    80    19    18    1
    81   120   123    1
    82   120   119    1
    83   120   121    1
    84    18    17    1
    85    18    21    1
    86   115   116    1
    87    34    35    2
    88    34    40   am
    89   121   122    2
    90    23    21    1
    91    22    21    1
    92    40    41    1
    93   116   117   ar
    94   116   118   ar
    95    41    42    1
    96    43    42    2
    97     4     3    2
    98    42    44   am
    99    51    50    2
   100     3     2    1
   101    47    46    2
   102    44    45    1
   103    50    49    1
   104     1     2    1
   105    46    45    1
   106    46    48   am
   107     2     5    1
   108    48    49    1
   109    49    52    1
   110     5     6    1
   111     7     6   ar
   112    52    53    1
   113     6     8   ar
   114    53    54   ar
   115    53    55   ar
   116    54    56   ar
   117    55    57   ar
   118    56    58   ar
   119    57    58   ar
