@<TRIPOS>MOLECULE
tmp/5vkaA01.pdb
 151 146 0 0 0
SMALL
GASTEIGER

@<TRIPOS>ATOM
      1  N         11.6170   -2.2960   11.1740 N.3    81  GLU81      -0.1231
      2  CA        11.0450   -3.3340   10.3270 C.3    81  GLU81       0.1699
      3  C         12.1150   -3.9130    9.4140 C.2    81  GLU81       0.2592
      4  O         13.0480   -3.2210    9.0020 O.2    81  GLU81      -0.2718
      5  CB         9.9100   -2.7770    9.4720 C.3    81  GLU81       0.0402
      6  CG         9.2000   -3.8650    8.6650 C.3    81  GLU81       0.1161
      7  CD         7.8240   -3.4480    8.1870 C.2    81  GLU81       0.3649
      8  OE1        7.2610   -2.4270    8.6700 O.co2  81  GLU81      -0.2457
      9  OE2        7.2900   -4.1510    7.3020 O.co2  81  GLU81      -0.2457
     10  N         11.9480   -5.1960    9.0910 N.am   82  VAL82      -0.1966
     11  CA        12.8380   -5.9330    8.1980 C.3    82  VAL82       0.1727
     12  C         12.0630   -6.3120    6.9400 C.2    82  VAL82       0.2617
     13  O         10.9490   -6.8460    7.0290 O.2    82  VAL82      -0.2715
     14  CB        13.3850   -7.1980    8.8870 C.3    82  VAL82       0.0290
     15  CG1       14.3630   -7.9360    7.9660 C.3    82  VAL82       0.0023
     16  CG2       14.0410   -6.8460   10.2310 C.3    82  VAL82       0.0023
     17  N         12.6520   -6.0390    5.7760 N.am   83  THR83      -0.1937
     18  CA        12.1520   -6.5260    4.4930 C.3    83  THR83       0.2028
     19  C         13.3250   -7.1860    3.7830 C.2    83  THR83       0.2642
     20  O         14.3520   -6.5420    3.5550 O.2    83  THR83      -0.2714
     21  CB        11.6160   -5.3820    3.6250 C.3    83  THR83       0.1808
     22  OG1       10.4740   -4.7900    4.2670 O.3    83  THR83      -0.2208
     23  CG2       11.1770   -5.8880    2.2450 C.3    83  THR83       0.0379
     24  N         13.1800   -8.4620    3.4310 N.am   84  ALA84      -0.1977
     25  CA        14.2380   -9.1690    2.7020 C.3    84  ALA84       0.1597
     26  C         15.5830   -9.0520    3.4220 C.2    84  ALA84       0.2287
     27  O         16.6190   -8.7770    2.8070 O.2    84  ALA84      -0.2864
     28  CB        14.3370   -8.6890    1.2560 C.3    84  ALA84       0.0319
     29  N         14.1190   -1.4030    7.0560 N.3    88  ASP88      -0.1239
     30  CA        13.4220   -0.3260    6.3730 C.3    88  ASP88       0.1674
     31  C         13.4880    0.9220    7.2460 C.2    88  ASP88       0.2266
     32  O         13.4820    0.8320    8.4730 O.2    88  ASP88      -0.2867
     33  CB        11.9450   -0.6890    6.1880 C.3    88  ASP88       0.1410
     34  CG        11.7310   -1.8710    5.2680 C.2    88  ASP88       0.3668
     35  OD1       12.5380   -2.0610    4.3180 O.co2  88  ASP88      -0.2456
     36  OD2       10.7190   -2.5880    5.4880 O.co2  88  ASP88      -0.2456
     37  N         -6.5270   -2.7400    7.9110 N.3   164  HIS164     -0.1241
     38  CA        -5.5070   -2.1130    8.7290 C.3   164  HIS164      0.1621
     39  C         -4.8120   -1.0470    7.9060 C.2   164  HIS164      0.2264
     40  O         -5.0320   -0.9210    6.6980 O.2   164  HIS164     -0.2867
     41  CB        -4.5780   -3.1500    9.3540 C.3   164  HIS164      0.0745
     42  CG        -3.8320   -3.9920    8.3750 C.ar  164  HIS164      0.0817
     43  ND1       -4.3920   -5.0750    7.7240 N.ar  164  HIS164     -0.2268
     44  CD2       -2.5340   -3.9520    7.9890 C.ar  164  HIS164      0.1154
     45  CE1       -3.4710   -5.6430    6.9580 C.ar  164  HIS164      0.1986
     46  NE2       -2.3370   -4.9760    7.0930 N.ar  164  HIS164     -0.2212
     47  N         -1.0330    1.4750    7.6190 N.3   165  ARG165     -0.1245
     48  CA         0.3050    1.9110    7.9890 C.3   165  ARG165      0.1563
     49  C          0.3790    3.4050    7.7590 C.2   165  ARG165      0.2260
     50  O          0.1910    3.8740    6.6340 O.2   165  ARG165     -0.2867
     51  CB         1.3600    1.1720    7.1680 C.3   165  ARG165      0.0307
     52  CG         1.5600   -0.2160    7.6870 C.3   165  ARG165      0.0489
     53  CD         2.1640   -1.1520    6.6630 C.3   165  ARG165      0.2205
     54  NE         3.4170   -0.7000    6.0730 N.pl3 165  ARG165     -0.0865
     55  CZ         4.6280   -0.9970    6.5340 C.cat 165  ARG165      0.5346
     56  NH1        4.7840   -1.7170    7.6250 N.pl3 165  ARG165      0.1354
     57  NH2        5.6900   -0.5550    5.8800 N.pl3 165  ARG165      0.1354
     58  N         11.7460    1.6290    1.8700 N.3   180  ILE180     -0.1245
     59  CA        11.2550    0.2710    2.0670 C.3   180  ILE180      0.1561
     60  C         11.7100   -0.5550    0.8780 C.2   180  ILE180      0.2260
     61  O         11.5710   -0.1170   -0.2630 O.2   180  ILE180     -0.2867
     62  CB         9.7160    0.2160    2.1640 C.3   180  ILE180      0.0252
     63  CG1        9.2150    1.0490    3.3430 C.3   180  ILE180      0.0019
     64  CG2        9.2590   -1.2290    2.3450 C.3   180  ILE180      0.0019
     65  CD1        7.6910    1.2260    3.3840 C.3   180  ILE180      0.0001
     66  N          8.5100   -5.2610   -2.1960 N.3   183  HIS183     -0.1241
     67  CA         7.6450   -6.2260   -1.5400 C.3   183  HIS183      0.1621
     68  C          6.2680   -6.1290   -2.1790 C.2   183  HIS183      0.2264
     69  O          5.9880   -5.2260   -2.9660 O.2   183  HIS183     -0.2867
     70  CB         7.5370   -5.9270   -0.0440 C.3   183  HIS183      0.0745
     71  CG         6.7980   -4.6630    0.2560 C.ar  183  HIS183      0.0817
     72  ND1        7.3600   -3.4150    0.0880 N.ar  183  HIS183     -0.2268
     73  CD2        5.5430   -4.4530    0.7090 C.ar  183  HIS183      0.1154
     74  CE1        6.4770   -2.4900    0.4190 C.ar  183  HIS183      0.1986
     75  NE2        5.3640   -3.0950    0.8020 N.ar  183  HIS183     -0.2212
     76  N          2.0620   -6.4510   -0.7120 N.3   185  ASP185     -0.1225
     77  CA         1.2020   -6.4940    0.4560 C.3   185  ASP185      0.1805
     78  C          0.2040   -7.6510    0.3400 C.2   185  ASP185      0.2597
     79  O          0.1560   -8.3560   -0.6670 O.2   185  ASP185     -0.2718
     80  CB         0.5570   -5.1310    0.6780 C.3   185  ASP185      0.1424
     81  CG         1.6050   -4.0390    0.9560 C.2   185  ASP185      0.3668
     82  OD1        2.5300   -4.3100    1.7530 O.co2 185  ASP185     -0.2456
     83  OD2        1.4810   -2.9500    0.3770 O.co2 185  ASP185     -0.2456
     84  N         -0.5560   -7.8780    1.4140 N.am  186  TYR186     -0.1976
     85  CA        -0.9750   -9.2300    1.7580 C.3   186  TYR186      0.1639
     86  C         -2.4410   -9.5370    1.5390 C.2   186  TYR186      0.2290
     87  O         -2.8000  -10.7220    1.5750 O.2   186  TYR186     -0.2864
     88  CB        -0.6570   -9.5160    3.2320 C.3   186  TYR186      0.0560
     89  CG         0.7240   -9.0690    3.6650 C.ar  186  TYR186     -0.0198
     90  CD1        1.8390   -9.2830    2.8600 C.ar  186  TYR186     -0.0009
     91  CD2        0.9050   -8.4050    4.8720 C.ar  186  TYR186     -0.0009
     92  CE1        3.1030   -8.8680    3.2790 C.ar  186  TYR186      0.0417
     93  CE2        2.1420   -7.9860    5.2860 C.ar  186  TYR186      0.0417
     94  CZ         3.2370   -8.2130    4.4930 C.ar  186  TYR186      0.1957
     95  OH         4.4710   -7.7810    4.9350 O.3   186  TYR186     -0.2866
     96  N          9.4260  -10.6380   -0.9280 N.3   222  ALA222     -0.1245
     97  CA        10.2780   -9.5880   -0.3830 C.3   222  ALA222      0.1562
     98  C         11.6110   -9.5510   -1.1190 C.2   222  ALA222      0.2260
     99  O         12.2850  -10.5760   -1.2580 O.2   222  ALA222     -0.2867
    100  CB        10.5040   -9.8220    1.1060 C.3   222  ALA222      0.0290
    101  N         -5.0640   -1.2160    3.9090 N.3   275  PHE275     -0.1241
    102  CA        -5.1690   -2.5950    3.4590 C.3   275  PHE275      0.1605
    103  C         -6.5940   -3.0540    3.7040 C.2   275  PHE275      0.2264
    104  O         -7.0360   -3.1370    4.8550 O.2   275  PHE275     -0.2867
    105  CB        -4.1360   -3.4190    4.2140 C.3   275  PHE275      0.0534
    106  CG        -2.7740   -2.8400    4.0600 C.ar  275  PHE275     -0.0203
    107  CD1       -2.0640   -3.0370    2.8920 C.ar  275  PHE275     -0.0042
    108  CD2       -2.2350   -2.0150    5.0350 C.ar  275  PHE275     -0.0042
    109  CE1       -0.8130   -2.4530    2.7000 C.ar  275  PHE275     -0.0003
    110  CE2       -0.9750   -1.4350    4.8700 C.ar  275  PHE275     -0.0003
    111  CZ        -0.2680   -1.6650    3.7060 C.ar  275  PHE275     -0.0000
    112  N          3.4430  -10.5750    9.6530 N.3   305  PHE305     -0.1241
    113  CA         3.8370   -9.6420   10.6930 C.3   305  PHE305      0.1605
    114  C          4.9330  -10.2260   11.5760 C.2   305  PHE305      0.2264
    115  O          5.8210   -9.4900   12.0360 O.2   305  PHE305     -0.2867
    116  CB         2.5980   -9.1350   11.4350 C.3   305  PHE305      0.0534
    117  CG         1.9650   -7.9610   10.7540 C.ar  305  PHE305     -0.0203
    118  CD1        1.3340   -8.0980    9.5210 C.ar  305  PHE305     -0.0042
    119  CD2        2.0830   -6.7010   11.3100 C.ar  305  PHE305     -0.0042
    120  CE1        0.8260   -7.0030    8.8800 C.ar  305  PHE305     -0.0003
    121  CE2        1.5590   -5.6100   10.6850 C.ar  305  PHE305     -0.0003
    122  CZ         0.9240   -5.7540    9.4650 C.ar  305  PHE305     -0.0000
    123  N          7.3160  -12.0940   10.4020 N.3   306  ARG306     -0.1231
    124  CA         8.5580  -11.9560    9.6470 C.3   306  ARG306      0.1694
    125  C          9.0140  -10.5030    9.5650 C.2   306  ARG306      0.2592
    126  O         10.2260  -10.2450    9.4820 O.2   306  ARG306     -0.2718
    127  CB         8.4300  -12.5860    8.2540 C.3   306  ARG306      0.0321
    128  CG         7.9990  -11.6520    7.1230 C.3   306  ARG306      0.0489
    129  CD         7.9850  -12.3770    5.7760 C.3   306  ARG306      0.2205
    130  NE         7.6880  -11.4860    4.6700 N.pl3 306  ARG306     -0.0865
    131  CZ         7.3440  -11.9090    3.4540 C.cat 306  ARG306      0.5346
    132  NH1        7.2840  -13.2060    3.1900 N.pl3 306  ARG306      0.1354
    133  NH2        7.0900  -11.0350    2.5040 N.pl3 306  ARG306      0.1354
    134  N          8.0710   -9.5490    9.5870 N.am  307  CYS307     -0.1956
    135  CA         8.4150   -8.1280    9.5800 C.3   307  CYS307      0.1843
    136  C          9.0640   -7.7140   10.8860 C.2   307  CYS307      0.2625
    137  O          9.9360   -6.8360   10.8910 O.2   307  CYS307     -0.2714
    138  CB         7.1530   -7.2800    9.4220 C.3   307  CYS307      0.0997
    139  SG         6.3100   -7.3400    7.8420 S.3   307  CYS307     -0.0797
    140  N          8.6230   -8.3040   11.9950 N.am  308  TYR308     -0.1974
    141  CA         8.9130   -7.7980   13.3350 C.3   308  TYR308      0.1639
    142  C          9.3610   -8.9480   14.2230 C.2   308  TYR308      0.2290
    143  O          8.7170   -9.2820   15.2200 O.2   308  TYR308     -0.2864
    144  CB         7.6860   -7.1030   13.9220 C.3   308  TYR308      0.0560
    145  CG         7.1070   -6.0290   13.0440 C.ar  308  TYR308     -0.0198
    146  CD1        7.8650   -4.9230   12.6960 C.ar  308  TYR308     -0.0009
    147  CD2        5.8130   -6.1260   12.5410 C.ar  308  TYR308     -0.0009
    148  CE1        7.3610   -3.9440   11.8870 C.ar  308  TYR308      0.0417
    149  CE2        5.3050   -5.1490   11.7320 C.ar  308  TYR308      0.0417
    150  CZ         6.0750   -4.0580   11.4070 C.ar  308  TYR308      0.1957
    151  OH         5.5440   -3.0870   10.5860 O.3   308  TYR308     -0.2866
@<TRIPOS>BOND
     1    69    68    2
     2    66    67    1
     3    68    67    1
     4    67    70    1
     5    99    98    2
     6    98    97    1
     7    96    97    1
     8    76    77    1
     9    79    78    2
    10    97   100    1
    11    61    60    2
    12    70    71    1
    13    72    71   ar
    14    72    74   ar
    15    71    73   ar
    16    78    77    1
    17    78    84   am
    18    83    81   ar
    19    74    75   ar
    20    77    80    1
    21    80    81    1
    22    73    75   ar
    23    60    59    1
    24    81    82   ar
    25    28    25    1
    26    84    85    1
    27    86    87    2
    28    86    85    1
    29    85    88    1
    30    58    59    1
    31    59    62    1
    32    62    64    1
    33    62    63    1
    34    23    21    1
    35   133   131    1
    36   109   107   ar
    37   109   111   ar
    38    25    26    1
    39    25    24    1
    40    27    26    2
    41    90    92   ar
    42    90    89   ar
    43   107   106   ar
    44   132   131    1
    45    88    89    1
    46    92    94   ar
    47    63    65    1
    48    24    19   am
    49   131   130    2
    50   102   103    1
    51   102   101    1
    52   102   105    1
    53    20    19    2
    54    21    22    1
    55    21    18    1
    56    89    91   ar
    57   103   104    2
    58   111   110   ar
    59    19    18    1
    60   106   105    1
    61   106   108   ar
    62    35    34   ar
    63    18    17    1
    64    94    95    1
    65    94    93   ar
    66   130   129    1
    67   110   108   ar
    68    91    93   ar
    69    34    36   ar
    70    34    33    1
    71    17    12   am
    72   129   128    1
    73    57    55    1
    74    54    55    2
    75    54    53    1
    76    33    30    1
    77    30    29    1
    78    30    31    1
    79    55    56    1
    80    50    49    2
    81    53    52    1
    82    40    39    2
    83    12    13    2
    84    12    11    1
    85    45    46   ar
    86    45    43   ar
    87    46    44   ar
    88   128   127    1
    89    51    52    1
    90    51    48    1
    91    31    32    2
    92     9     7   ar
    93    47    48    1
    94    43    42   ar
    95    49    48    1
    96   139   138    1
    97    39    38    1
    98    37    38    1
    99    15    14    1
   100    44    42   ar
   101     7     6    1
   102     7     8   ar
   103    11    14    1
   104    11    10    1
   105   127   124    1
   106    42    41    1
   107     6     5    1
   108    38    41    1
   109   120   122   ar
   110   120   118   ar
   111    14    16    1
   112     4     3    2
   113    10     3   am
   114     3     2    1
   115   138   135    1
   116   122   121   ar
   117     5     2    1
   118   126   125    2
   119   118   117   ar
   120   125   134   am
   121   125   124    1
   122   135   134    1
   123   135   136    1
   124   124   123    1
   125   112   113    1
   126     2     1    1
   127   151   150    1
   128   121   119   ar
   129   113   116    1
   130   113   114    1
   131   117   119   ar
   132   117   116    1
   133   136   137    2
   134   136   140   am
   135   150   149   ar
   136   150   148   ar
   137   114   115    2
   138   149   147   ar
   139   148   146   ar
   140   140   141    1
   141   147   145   ar
   142   146   145   ar
   143   145   144    1
   144   141   144    1
   145   141   142    1
   146   142   143    2
