@<TRIPOS>MOLECULE
tmp/5vkbA01.pdb
 151 146 0 0 0
SMALL
GASTEIGER

@<TRIPOS>ATOM
      1  N         11.6670   -2.2910   11.3290 N.3    81  GLU81      -0.1231
      2  CA        11.0880   -3.2910   10.4450 C.3    81  GLU81       0.1699
      3  C         12.1510   -3.8420    9.5060 C.2    81  GLU81       0.2592
      4  O         13.0640   -3.1340    9.0770 O.2    81  GLU81      -0.2718
      5  CB         9.9630   -2.6980    9.6050 C.3    81  GLU81       0.0402
      6  CG         9.2870   -3.7370    8.7480 C.3    81  GLU81       0.1161
      7  CD         7.8710   -3.3470    8.3360 C.2    81  GLU81       0.3649
      8  OE1        7.3320   -2.3370    8.8460 O.co2  81  GLU81      -0.2457
      9  OE2        7.2920   -4.0540    7.4810 O.co2  81  GLU81      -0.2457
     10  N         11.9960   -5.1210    9.1790 N.am   82  VAL82      -0.1966
     11  CA        12.8790   -5.8370    8.2700 C.3    82  VAL82       0.1727
     12  C         12.0860   -6.1890    7.0170 C.2    82  VAL82       0.2617
     13  O         10.9580   -6.6870    7.1110 O.2    82  VAL82      -0.2715
     14  CB        13.4220   -7.1170    8.9290 C.3    82  VAL82       0.0290
     15  CG1       14.4250   -7.8080    8.0070 C.3    82  VAL82       0.0023
     16  CG2       14.0570   -6.8010   10.2910 C.3    82  VAL82       0.0023
     17  N         12.6800   -5.9390    5.8470 N.am   83  THR83      -0.1937
     18  CA        12.1570   -6.4170    4.5680 C.3    83  THR83       0.2028
     19  C         13.3250   -7.0860    3.8570 C.2    83  THR83       0.2642
     20  O         14.3710   -6.4600    3.6500 O.2    83  THR83      -0.2714
     21  CB        11.6370   -5.2600    3.7040 C.3    83  THR83       0.1808
     22  OG1       10.5250   -4.6450    4.3520 O.3    83  THR83      -0.2208
     23  CG2       11.2010   -5.7490    2.3200 C.3    83  THR83       0.0379
     24  N         13.1780   -8.3580    3.5090 N.am   84  ALA84      -0.1977
     25  CA        14.2420   -9.0640    2.7910 C.3    84  ALA84       0.1597
     26  C         15.5840   -8.9510    3.5170 C.2    84  ALA84       0.2287
     27  O         16.6290   -8.7170    2.9070 O.2    84  ALA84      -0.2864
     28  CB        14.3560   -8.5600    1.3490 C.3    84  ALA84       0.0319
     29  N         14.2170   -1.3070    7.1930 N.3    88  ASP88      -0.1239
     30  CA        13.5140   -0.2290    6.5120 C.3    88  ASP88       0.1674
     31  C         13.5780    1.0230    7.3760 C.2    88  ASP88       0.2266
     32  O         13.6150    0.9420    8.6080 O.2    88  ASP88      -0.2867
     33  CB        12.0410   -0.5850    6.3200 C.3    88  ASP88       0.1410
     34  CG        11.8240   -1.7710    5.3950 C.2    88  ASP88       0.3668
     35  OD1       12.6140   -1.9740    4.4440 O.co2  88  ASP88      -0.2456
     36  OD2       10.8130   -2.4810    5.6070 O.co2  88  ASP88      -0.2456
     37  N         -6.4970   -2.7010    7.9640 N.3   164  HIS164     -0.1241
     38  CA        -5.4810   -2.0700    8.7850 C.3   164  HIS164      0.1621
     39  C         -4.7610   -1.0140    7.9620 C.2   164  HIS164      0.2264
     40  O         -4.9730   -0.8880    6.7560 O.2   164  HIS164     -0.2867
     41  CB        -4.5520   -3.0950    9.4340 C.3   164  HIS164      0.0745
     42  CG        -3.7790   -3.9320    8.4670 C.ar  164  HIS164      0.0817
     43  ND1       -4.3290   -4.9990    7.7930 N.ar  164  HIS164     -0.2268
     44  CD2       -2.4720   -3.9020    8.1090 C.ar  164  HIS164      0.1154
     45  CE1       -3.4010   -5.5640    7.0350 C.ar  164  HIS164      0.1986
     46  NE2       -2.2670   -4.9140    7.2060 N.ar  164  HIS164     -0.2212
     47  N         -0.9650    1.4810    7.7010 N.3   165  ARG165     -0.1245
     48  CA         0.3680    1.9100    8.0930 C.3   165  ARG165      0.1563
     49  C          0.4510    3.4060    7.8610 C.2   165  ARG165      0.2260
     50  O          0.2630    3.8800    6.7370 O.2   165  ARG165     -0.2867
     51  CB         1.4270    1.1560    7.2990 C.3   165  ARG165      0.0307
     52  CG         1.5840   -0.2580    7.7900 C.3   165  ARG165      0.0489
     53  CD         2.2300   -1.1730    6.7720 C.3   165  ARG165      0.2205
     54  NE         3.4900   -0.7010    6.2210 N.pl3 165  ARG165     -0.0865
     55  CZ         4.6890   -0.9730    6.7150 C.cat 165  ARG165      0.5346
     56  NH1        4.8180   -1.6730    7.8330 N.pl3 165  ARG165      0.1354
     57  NH2        5.7630   -0.5210    6.0740 N.pl3 165  ARG165      0.1354
     58  N         11.8630    1.6780    1.9440 N.3   180  ILE180     -0.1245
     59  CA        11.3570    0.3260    2.1340 C.3   180  ILE180      0.1561
     60  C         11.7900   -0.4580    0.9100 C.2   180  ILE180      0.2260
     61  O         11.6590    0.0260   -0.2200 O.2   180  ILE180     -0.2867
     62  CB         9.8180    0.2510    2.2860 C.3   180  ILE180      0.0252
     63  CG1        9.3050    1.0600    3.4770 C.3   180  ILE180      0.0019
     64  CG2        9.3790   -1.2090    2.4510 C.3   180  ILE180      0.0019
     65  CD1        7.7780    1.2210    3.4750 C.3   180  ILE180      0.0001
     66  N          8.5530   -5.1660   -2.2090 N.3   183  HIS183     -0.1241
     67  CA         7.6930   -6.1320   -1.5360 C.3   183  HIS183      0.1621
     68  C          6.3100   -6.0420   -2.1580 C.2   183  HIS183      0.2264
     69  O          6.0170   -5.1370   -2.9440 O.2   183  HIS183     -0.2867
     70  CB         7.6200   -5.8350   -0.0340 C.3   183  HIS183      0.0745
     71  CG         6.8800   -4.5770    0.2900 C.ar  183  HIS183      0.0817
     72  ND1        7.4450   -3.3290    0.1510 N.ar  183  HIS183     -0.2268
     73  CD2        5.6130   -4.3720    0.7270 C.ar  183  HIS183      0.1154
     74  CE1        6.5570   -2.4080    0.4860 C.ar  183  HIS183      0.1986
     75  NE2        5.4420   -3.0160    0.8470 N.ar  183  HIS183     -0.2212
     76  N          2.1000   -6.3530   -0.6940 N.3   185  ASP185     -0.1225
     77  CA         1.2360   -6.3770    0.4690 C.3   185  ASP185      0.1805
     78  C          0.2540   -7.5470    0.3650 C.2   185  ASP185      0.2597
     79  O          0.2090   -8.2600   -0.6450 O.2   185  ASP185     -0.2718
     80  CB         0.5720   -5.0210    0.6640 C.3   185  ASP185      0.1424
     81  CG         1.5970   -3.9130    0.9010 C.2   185  ASP185      0.3668
     82  OD1        2.5750   -4.1540    1.6390 O.co2 185  ASP185     -0.2456
     83  OD2        1.4380   -2.8220    0.3430 O.co2 185  ASP185     -0.2456
     84  N         -0.4980   -7.7780    1.4560 N.am  186  TYR186     -0.1976
     85  CA        -0.9110   -9.1360    1.7970 C.3   186  TYR186      0.1639
     86  C         -2.3730   -9.4530    1.5680 C.2   186  TYR186      0.2290
     87  O         -2.7310  -10.6370    1.5880 O.2   186  TYR186     -0.2864
     88  CB        -0.6080   -9.4260    3.2790 C.3   186  TYR186      0.0560
     89  CG         0.7750   -8.9910    3.7410 C.ar  186  TYR186     -0.0198
     90  CD1        1.8900   -9.1610    2.9230 C.ar  186  TYR186     -0.0009
     91  CD2        0.9470   -8.3690    4.9690 C.ar  186  TYR186     -0.0009
     92  CE1        3.1500   -8.7510    3.3530 C.ar  186  TYR186      0.0417
     93  CE2        2.1700   -7.9510    5.3950 C.ar  186  TYR186      0.0417
     94  CZ         3.2790   -8.1430    4.5960 C.ar  186  TYR186      0.1957
     95  OH         4.4940   -7.7210    5.0560 O.3   186  TYR186     -0.2866
     96  N          9.4680  -10.4690   -0.9550 N.3   222  ALA222     -0.1245
     97  CA        10.3240   -9.4250   -0.4060 C.3   222  ALA222      0.1562
     98  C         11.6690   -9.4070   -1.1210 C.2   222  ALA222      0.2260
     99  O         12.3250  -10.4450   -1.2590 O.2   222  ALA222     -0.2867
    100  CB        10.5280   -9.6610    1.0900 C.3   222  ALA222      0.0290
    101  N         -4.9860   -1.1500    3.9690 N.3   275  PHE275     -0.1241
    102  CA        -5.0960   -2.5280    3.5210 C.3   275  PHE275      0.1605
    103  C         -6.5270   -2.9790    3.7560 C.2   275  PHE275      0.2264
    104  O         -6.9780   -3.0580    4.9030 O.2   275  PHE275     -0.2867
    105  CB        -4.0690   -3.3690    4.2700 C.3   275  PHE275      0.0534
    106  CG        -2.6960   -2.7880    4.1470 C.ar  275  PHE275     -0.0203
    107  CD1       -1.9870   -2.9380    2.9720 C.ar  275  PHE275     -0.0042
    108  CD2       -2.1530   -1.9960    5.1450 C.ar  275  PHE275     -0.0042
    109  CE1       -0.7370   -2.3530    2.8110 C.ar  275  PHE275     -0.0003
    110  CE2       -0.8800   -1.4090    4.9780 C.ar  275  PHE275     -0.0003
    111  CZ        -0.1870   -1.6110    3.8130 C.ar  275  PHE275     -0.0000
    112  N          3.4970  -10.5270    9.6990 N.3   305  PHE305     -0.1241
    113  CA         3.9050   -9.6030   10.7520 C.3   305  PHE305      0.1605
    114  C          5.0020  -10.1870   11.6280 C.2   305  PHE305      0.2264
    115  O          5.8770   -9.4490   12.0960 O.2   305  PHE305     -0.2867
    116  CB         2.6800   -9.0880   11.5150 C.3   305  PHE305      0.0534
    117  CG         2.0500   -7.9140   10.8340 C.ar  305  PHE305     -0.0203
    118  CD1        1.4370   -8.0620    9.6000 C.ar  305  PHE305     -0.0042
    119  CD2        2.1450   -6.6470   11.3760 C.ar  305  PHE305     -0.0042
    120  CE1        0.9210   -6.9700    8.9390 C.ar  305  PHE305     -0.0003
    121  CE2        1.6330   -5.5560   10.7130 C.ar  305  PHE305     -0.0003
    122  CZ         1.0230   -5.7180    9.4990 C.ar  305  PHE305     -0.0000
    123  N          7.3820  -12.0410   10.4240 N.3   306  ARG306     -0.1231
    124  CA         8.6220  -11.8960    9.6620 C.3   306  ARG306      0.1694
    125  C          9.0730  -10.4400    9.5850 C.2   306  ARG306      0.2592
    126  O         10.2770  -10.1740    9.4730 O.2   306  ARG306     -0.2718
    127  CB         8.4900  -12.5300    8.2720 C.3   306  ARG306      0.0321
    128  CG         8.0500  -11.6000    7.1440 C.3   306  ARG306      0.0489
    129  CD         8.0370  -12.3270    5.8020 C.3   306  ARG306      0.2205
    130  NE         7.7450  -11.4110    4.7040 N.pl3 306  ARG306     -0.0865
    131  CZ         7.3990  -11.7930    3.4770 C.cat 306  ARG306      0.5346
    132  NH1        7.3150  -13.0820    3.1740 N.pl3 306  ARG306      0.1354
    133  NH2        7.1490  -10.8820    2.5430 N.pl3 306  ARG306      0.1354
    134  N          8.1260   -9.4990    9.6480 N.am  307  CYS307     -0.1956
    135  CA         8.4610   -8.0780    9.6470 C.3   307  CYS307      0.1843
    136  C          9.1170   -7.6650   10.9530 C.2   307  CYS307      0.2625
    137  O          9.9890   -6.7880   10.9570 O.2   307  CYS307     -0.2714
    138  CB         7.1840   -7.2410    9.4830 C.3   307  CYS307      0.0997
    139  SG         6.3120   -7.2420    7.9230 S.3   307  CYS307     -0.0797
    140  N          8.6620   -8.2490   12.0670 N.am  308  TYR308     -0.1974
    141  CA         8.9580   -7.7680   13.4200 C.3   308  TYR308      0.1639
    142  C          9.4080   -8.9350   14.2910 C.2   308  TYR308      0.2290
    143  O          8.7480   -9.2820   15.2800 O.2   308  TYR308     -0.2864
    144  CB         7.7270   -7.0960   14.0320 C.3   308  TYR308      0.0560
    145  CG         7.1570   -6.0140   13.1700 C.ar  308  TYR308     -0.0198
    146  CD1        7.9170   -4.9000   12.8420 C.ar  308  TYR308     -0.0009
    147  CD2        5.8790   -6.1130   12.6610 C.ar  308  TYR308     -0.0009
    148  CE1        7.4260   -3.9170   12.0340 C.ar  308  TYR308      0.0417
    149  CE2        5.3700   -5.1280   11.8550 C.ar  308  TYR308      0.0417
    150  CZ         6.1500   -4.0270   11.5410 C.ar  308  TYR308      0.1957
    151  OH         5.6400   -3.0440   10.7270 O.3   308  TYR308     -0.2866
@<TRIPOS>BOND
     1    69    68    2
     2    66    67    1
     3    68    67    1
     4    67    70    1
     5    99    98    2
     6    98    97    1
     7    96    97    1
     8    76    77    1
     9    79    78    2
    10    97   100    1
    11    61    60    2
    12    70    71    1
    13    72    71   ar
    14    72    74   ar
    15    71    73   ar
    16    83    81   ar
    17    78    77    1
    18    78    84   am
    19    77    80    1
    20    74    75   ar
    21    80    81    1
    22    73    75   ar
    23    81    82   ar
    24    60    59    1
    25    28    25    1
    26    84    85    1
    27    86    87    2
    28    86    85    1
    29    85    88    1
    30    58    59    1
    31    59    62    1
    32    62    64    1
    33    62    63    1
    34    23    21    1
    35   133   131    1
    36    25    24    1
    37    25    26    1
    38   109   107   ar
    39   109   111   ar
    40    27    26    2
    41    90    92   ar
    42    90    89   ar
    43   107   106   ar
    44   132   131    1
    45    88    89    1
    46    92    94   ar
    47    65    63    1
    48   131   130    2
    49    24    19   am
    50   102   103    1
    51   102   101    1
    52   102   105    1
    53    20    19    2
    54    21    22    1
    55    21    18    1
    56    89    91   ar
    57   103   104    2
    58   111   110   ar
    59    19    18    1
    60   106   105    1
    61   106   108   ar
    62    35    34   ar
    63    18    17    1
    64    94    95    1
    65    94    93   ar
    66   130   129    1
    67    91    93   ar
    68   110   108   ar
    69    34    36   ar
    70    34    33    1
    71   129   128    1
    72    17    12   am
    73    57    55    1
    74    54    55    2
    75    54    53    1
    76    33    30    1
    77    30    29    1
    78    30    31    1
    79    55    56    1
    80    50    49    2
    81    40    39    2
    82    53    52    1
    83    12    13    2
    84    12    11    1
    85    45    46   ar
    86    45    43   ar
    87   128   127    1
    88    46    44   ar
    89    51    52    1
    90    51    48    1
    91    31    32    2
    92     9     7   ar
    93    47    48    1
    94    43    42   ar
    95    49    48    1
    96   139   138    1
    97    39    38    1
    98    37    38    1
    99    15    14    1
   100    44    42   ar
   101    11    14    1
   102    11    10    1
   103   127   124    1
   104     7     6    1
   105     7     8   ar
   106    42    41    1
   107     6     5    1
   108    38    41    1
   109    14    16    1
   110   120   122   ar
   111   120   118   ar
   112     4     3    2
   113    10     3   am
   114   126   125    2
   115   138   135    1
   116   122   121   ar
   117     3     2    1
   118   125   134   am
   119   125   124    1
   120   118   117   ar
   121     5     2    1
   122   135   134    1
   123   135   136    1
   124   124   123    1
   125   112   113    1
   126     2     1    1
   127   121   119   ar
   128   151   150    1
   129   113   116    1
   130   113   114    1
   131   117   119   ar
   132   117   116    1
   133   136   137    2
   134   136   140   am
   135   150   149   ar
   136   150   148   ar
   137   114   115    2
   138   149   147   ar
   139   148   146   ar
   140   140   141    1
   141   147   145   ar
   142   146   145   ar
   143   145   144    1
   144   141   144    1
   145   141   142    1
   146   142   143    2
