@<TRIPOS>MOLECULE
tmp/5vkcB00.pdb
 202 191 0 0 0
SMALL
GASTEIGER

@<TRIPOS>ATOM
      1  N        -64.3690   43.9710   13.4960 N.3    38  VAL38      -0.1245
      2  CA       -63.2200   43.4140   12.7770 C.3    38  VAL38       0.1561
      3  C        -63.1390   41.8790   12.9150 C.2    38  VAL38       0.2260
      4  O        -62.9090   41.1990   11.9140 O.2    38  VAL38      -0.2867
      5  CB       -61.8990   44.1340   13.1570 C.3    38  VAL38       0.0252
      6  CG1      -60.7110   43.5890   12.3630 C.3    38  VAL38       0.0019
      7  CG2      -62.0210   45.6460   12.9530 C.3    38  VAL38       0.0019
      8  N        -63.1550   38.9910    9.8510 N.3    42  VAL42      -0.1245
      9  CA       -62.0860   38.0020    9.7060 C.3    42  VAL42       0.1561
     10  C        -62.6570   36.5750    9.6270 C.2    42  VAL42       0.2260
     11  O        -62.2410   35.7930    8.7700 O.2    42  VAL42      -0.2867
     12  CB       -61.0350   38.1500   10.8430 C.3    42  VAL42       0.0252
     13  CG1      -60.0360   36.9900   10.8390 C.3    42  VAL42       0.0019
     14  CG2      -60.3030   39.4860   10.7270 C.3    42  VAL42       0.0019
     15  N        -62.3150   34.4720    6.2200 N.3    46  HIS46      -0.1241
     16  CA       -61.3440   33.3780    6.2970 C.3    46  HIS46       0.1621
     17  C        -61.9430   32.0810    6.8580 C.2    46  HIS46       0.2264
     18  O        -61.2200   31.2690    7.4370 O.2    46  HIS46      -0.2867
     19  CB       -60.0840   33.8200    7.0560 C.3    46  HIS46       0.0745
     20  CG       -59.3970   34.9900    6.4230 C.ar   46  HIS46       0.0817
     21  ND1      -58.4950   34.8220    5.3900 N.ar   46  HIS46      -0.2268
     22  CD2      -59.5300   36.3130    6.6740 C.ar   46  HIS46       0.1154
     23  CE1      -58.0860   36.0370    5.0640 C.ar   46  HIS46       0.1986
     24  NE2      -58.6840   36.9670    5.8020 N.ar   46  HIS46      -0.2212
     25  N        -59.9840   28.8100    5.6950 N.3    49  ALA49      -0.1231
     26  CA       -58.7240   28.6030    6.4220 C.3    49  ALA49       0.1694
     27  C        -58.9680   28.2290    7.8880 C.2    49  ALA49       0.2592
     28  O        -58.2670   27.3780    8.4200 O.2    49  ALA49      -0.2718
     29  CB       -57.8580   29.8460    6.3410 C.3    49  ALA49       0.0304
     30  N        -59.9970   28.8190    8.5120 N.am   50  PHE50      -0.1976
     31  CA       -60.3600   28.5350    9.8960 C.3    50  PHE50       0.1639
     32  C        -60.9530   27.1250   10.0350 C.2    50  PHE50       0.2290
     33  O        -60.6560   26.4460   11.0250 O.2    50  PHE50      -0.2864
     34  CB       -61.2980   29.6140   10.4460 C.3    50  PHE50       0.0560
     35  CG       -60.6790   30.9350   10.8670 C.ar   50  PHE50      -0.0200
     36  CD1      -59.3320   31.2040   10.6300 C.ar   50  PHE50      -0.0042
     37  CD2      -61.4420   31.9050   11.5080 C.ar   50  PHE50      -0.0042
     38  CE1      -58.7580   32.4110   11.0400 C.ar   50  PHE50      -0.0003
     39  CE2      -60.8700   33.1200   11.9080 C.ar   50  PHE50      -0.0003
     40  CZ       -59.5310   33.3630   11.6750 C.ar   50  PHE50      -0.0000
     41  N        -58.0400   24.6030    9.6290 N.3    53  MET53      -0.1245
     42  CA       -57.2280   24.6400   10.8400 C.3    53  MET53       0.1570
     43  C        -57.9480   23.8590   11.9570 C.2    53  MET53       0.2261
     44  O        -57.3110   23.0700   12.6470 O.2    53  MET53      -0.2867
     45  CB       -56.9160   26.0910   11.2500 C.3    53  MET53       0.0387
     46  CG       -56.0570   26.2090   12.5030 C.3    53  MET53       0.0595
     47  SD       -54.3620   25.6230   12.3130 S.3    53  MET53      -0.1393
     48  CE       -53.4540   27.1900   12.4880 C.3    53  MET53       0.0692
     49  N        -56.6820   20.3510   14.0120 N.3    57  LEU57      -0.1245
     50  CA       -56.5700   20.3270   15.4730 C.3    57  LEU57       0.1561
     51  C        -57.3790   19.1800   16.0890 C.2    57  LEU57       0.2260
     52  O        -57.0150   18.6970   17.1610 O.2    57  LEU57      -0.2867
     53  CB       -56.9760   21.6740   16.1000 C.3    57  LEU57       0.0270
     54  CG       -56.1230   22.9070   15.7650 C.3    57  LEU57       0.0019
     55  CD1      -56.8860   24.1710   16.0620 C.3    57  LEU57       0.0001
     56  CD2      -54.7970   22.8980   16.5070 C.3    57  LEU57       0.0001
     57  N        -53.9960   22.9190   22.6970 N.3    68  LEU68      -0.1245
     58  CA       -54.0170   24.0340   21.7450 C.3    68  LEU68       0.1561
     59  C        -52.8610   25.0320   21.9660 C.2    68  LEU68       0.2260
     60  O        -52.3340   25.5630   20.9800 O.2    68  LEU68      -0.2867
     61  CB       -55.3750   24.7680   21.8640 C.3    68  LEU68       0.0270
     62  CG       -56.4740   24.5040   20.8100 C.3    68  LEU68       0.0019
     63  CD1      -56.2790   23.2130   20.0250 C.3    68  LEU68       0.0001
     64  CD2      -57.8420   24.6090   21.4150 C.3    68  LEU68       0.0001
     65  N        -49.3870   24.5850   19.9020 N.3    71  VAL71      -0.1231
     66  CA       -49.4160   25.0530   18.5050 C.3    71  VAL71       0.1692
     67  C        -49.4790   26.5860   18.5050 C.2    71  VAL71       0.2591
     68  O        -48.7360   27.2340   17.7670 O.2    71  VAL71      -0.2718
     69  CB       -50.6180   24.4520   17.7180 C.3    71  VAL71       0.0266
     70  CG1      -50.5970   24.8890   16.2500 C.3    71  VAL71       0.0020
     71  CG2      -50.6420   22.9310   17.8190 C.3    71  VAL71       0.0020
     72  N        -50.3680   27.1460   19.3530 N.am   72  MET72      -0.1979
     73  CA       -50.6460   28.5690   19.5070 C.3    72  MET72       0.1605
     74  C        -49.4170   29.4330   19.7600 C.2    72  MET72       0.2287
     75  O        -49.2150   30.3790   19.0050 O.2    72  MET72      -0.2864
     76  CB       -51.6920   28.7850   20.6040 C.3    72  MET72       0.0413
     77  CG       -52.6780   29.8950   20.3090 C.3    72  MET72       0.0598
     78  SD       -53.5800   30.4360   21.8040 S.3    72  MET72      -0.1393
     79  CE       -54.4670   28.9160   22.2740 C.3    72  MET72       0.0692
     80  N        -46.9760   29.2460   16.4840 N.3    75  VAL75      -0.1231
     81  CA       -47.5910   29.8410   15.2900 C.3    75  VAL75       0.1692
     82  C        -47.7460   31.3470   15.4430 C.2    75  VAL75       0.2592
     83  O        -47.2460   32.0800   14.5910 O.2    75  VAL75      -0.2718
     84  CB       -48.9110   29.1180   14.8750 C.3    75  VAL75       0.0266
     85  CG1      -49.6230   29.8550   13.7350 C.3    75  VAL75       0.0020
     86  CG2      -48.6250   27.6720   14.4610 C.3    75  VAL75       0.0020
     87  N        -48.3600   31.8120   16.5550 N.am   76  PHE76      -0.1976
     88  CA       -48.5500   33.2350   16.8500 C.3    76  PHE76       0.1639
     89  C        -47.2300   33.9860   17.0330 C.2    76  PHE76       0.2290
     90  O        -47.0700   35.0680   16.4840 O.2    76  PHE76      -0.2864
     91  CB       -49.4300   33.4360   18.0990 C.3    76  PHE76       0.0560
     92  CG       -49.6880   34.8920   18.4300 C.ar   76  PHE76      -0.0200
     93  CD1      -50.4830   35.6840   17.6010 C.ar   76  PHE76      -0.0042
     94  CD2      -49.1400   35.4720   19.5690 C.ar   76  PHE76      -0.0042
     95  CE1      -50.7050   37.0290   17.8990 C.ar   76  PHE76      -0.0003
     96  CE2      -49.3770   36.8160   19.8700 C.ar   76  PHE76      -0.0003
     97  CZ       -50.1640   37.5800   19.0360 C.ar   76  PHE76      -0.0000
     98  N        -48.3200   42.3840   14.4700 N.3    82  ASN82      -0.1240
     99  CA       -49.1280   43.5390   14.0670 C.3    82  ASN82       0.1653
    100  C        -50.5440   43.2990   14.5720 C.2    82  ASN82       0.2266
    101  O        -50.8470   42.1650   14.9450 O.2    82  ASN82      -0.2867
    102  CB       -49.0920   43.7530   12.5340 C.3    82  ASN82       0.1155
    103  CG       -49.4630   42.5420   11.7170 C.2    82  ASN82       0.2627
    104  OD1      -50.5390   41.9600   11.8730 O.2    82  ASN82      -0.2716
    105  ND2      -48.6020   42.1620   10.7870 N.am   82  ASN82      -0.0877
    106  N        -53.3100   42.9960   12.9610 N.3    84  GLY84      -0.1210
    107  CA       -53.9910   42.0290   12.1000 C.3    84  GLY84       0.1956
    108  C        -53.8870   40.5990   12.6160 C.2    84  GLY84       0.2611
    109  O        -54.8850   39.8670   12.6830 O.2    84  GLY84      -0.2717
    110  N        -52.7130   40.2080   13.0610 N.am   85  ARG85      -0.1979
    111  CA       -52.4820   38.8860   13.6110 C.3    85  ARG85       0.1597
    112  C        -53.1310   38.6630   14.9760 C.2    85  ARG85       0.2287
    113  O        -53.6110   37.5930   15.2520 O.2    85  ARG85      -0.2864
    114  CB       -50.9990   38.5670   13.6140 C.3    85  ARG85       0.0334
    115  CG       -50.4410   38.5820   12.2110 C.3    85  ARG85       0.0492
    116  CD       -49.0600   38.0210   12.1170 C.3    85  ARG85       0.2205
    117  NE       -49.0520   36.6700   12.5780 N.pl3  85  ARG85      -0.0865
    118  CZ       -47.9950   36.0280   13.0010 C.cat  85  ARG85       0.5346
    119  NH1      -46.8380   36.6130   13.0100 N.pl3  85  ARG85       0.1354
    120  NH2      -48.1110   34.8050   13.4030 N.pl3  85  ARG85       0.1354
    121  N        -55.9020   40.1090   15.9500 N.3    87  VAL87      -0.1231
    122  CA       -57.3180   39.9210   15.5920 C.3    87  VAL87       0.1692
    123  C        -57.5190   38.4820   15.1320 C.2    87  VAL87       0.2593
    124  O        -58.4740   37.8650   15.5720 O.2    87  VAL87      -0.2718
    125  CB       -57.8310   40.9290   14.5180 C.3    87  VAL87       0.0266
    126  CG1      -59.2430   40.5740   14.0550 C.3    87  VAL87       0.0020
    127  CG2      -57.7930   42.3540   15.0410 C.3    87  VAL87       0.0020
    128  N        -56.6180   37.9450   14.2700 N.am   88  THR88      -0.1939
    129  CA       -56.6890   36.5660   13.7580 C.3    88  THR88       0.2028
    130  C        -56.6470   35.5570   14.9000 C.2    88  THR88       0.2642
    131  O        -57.4350   34.6060   14.9150 O.2    88  THR88      -0.2714
    132  CB       -55.5790   36.3190   12.7220 C.3    88  THR88       0.1808
    133  OG1      -55.6020   37.3640   11.7510 O.3    88  THR88      -0.2208
    134  CG2      -55.7030   34.9760   12.0450 C.3    88  THR88       0.0379
    135  N        -55.7300   35.7700   15.8560 N.am   89  LEU89      -0.1977
    136  CA       -55.5980   34.9310   17.0420 C.3    89  LEU89       0.1596
    137  C        -56.9230   34.9030   17.8220 C.2    89  LEU89       0.2287
    138  O        -57.4000   33.8190   18.1800 O.2    89  LEU89      -0.2864
    139  CB       -54.4560   35.4740   17.9440 C.3    89  LEU89       0.0297
    140  CG       -54.3500   34.8690   19.3680 C.3    89  LEU89       0.0022
    141  CD1      -53.6500   33.5080   19.3430 C.3    89  LEU89       0.0001
    142  CD2      -53.6400   35.8180   20.3300 C.3    89  LEU89       0.0001
    143  N        -60.0180   33.4530   15.5970 N.3    92  PHE92      -0.1227
    144  CA       -59.9640   31.9880   15.5570 C.3    92  PHE92       0.1736
    145  C        -60.3860   31.3850   16.9050 C.2    92  PHE92       0.2596
    146  O        -61.0420   30.3520   16.9210 O.2    92  PHE92      -0.2718
    147  CB       -58.6290   31.4360   15.0480 C.3    92  PHE92       0.0547
    148  CG       -58.6970   29.9380   14.8380 C.ar   92  PHE92      -0.0202
    149  CD1      -59.5610   29.3860   13.8860 C.ar   92  PHE92      -0.0042
    150  CD2      -57.9060   29.0760   15.5880 C.ar   92  PHE92      -0.0042
    151  CE1      -59.6230   28.0000   13.6900 C.ar   92  PHE92      -0.0003
    152  CE2      -57.9470   27.6940   15.3670 C.ar   92  PHE92      -0.0003
    153  CZ       -58.8220   27.1670   14.4400 C.ar   92  PHE92      -0.0000
    154  N        -60.0910   32.0790   18.0050 N.am   93  GLY93      -0.1957
    155  CA       -60.5490   31.6920   19.3370 C.3    93  GLY93       0.1869
    156  C        -62.0700   31.6390   19.4070 C.2    93  GLY93       0.2309
    157  O        -62.6370   30.6560   19.8880 O.2    93  GLY93      -0.2863
    158  N        -63.2430   28.6780   17.3530 N.3    96  VAL96      -0.1245
    159  CA       -63.0660   27.4470   18.1520 C.3    96  VAL96       0.1561
    160  C        -64.1750   27.3800   19.2400 C.2    96  VAL96       0.2260
    161  O        -64.7700   26.3190   19.4120 O.2    96  VAL96      -0.2867
    162  CB       -61.6300   27.3280   18.7630 C.3    96  VAL96       0.0252
    163  CG1      -61.5310   26.1760   19.7710 C.3    96  VAL96       0.0019
    164  CG2      -60.5820   27.1660   17.6750 C.3    96  VAL96       0.0019
    165  N        -60.2150   28.4780   27.5570 N.3   112  LEU112     -0.1245
    166  CA       -59.6760   28.7410   26.2140 C.3   112  LEU112      0.1561
    167  C        -59.3100   30.2210   26.1040 C.2   112  LEU112      0.2260
    168  O        -58.2220   30.5510   25.6210 O.2   112  LEU112     -0.2867
    169  CB       -60.6540   28.3490   25.0840 C.3   112  LEU112      0.0270
    170  CG       -60.2060   28.7080   23.6320 C.3   112  LEU112      0.0019
    171  CD1      -59.0370   27.8360   23.1540 C.3   112  LEU112      0.0001
    172  CD2      -61.3580   28.6290   22.6550 C.3   112  LEU112      0.0001
    173  N        -55.5220   31.8890   25.4610 N.3   116  ILE116     -0.1245
    174  CA       -55.2800   32.8720   24.3900 C.3   116  ILE116      0.1561
    175  C        -54.6300   34.0880   24.9810 C.2   116  ILE116      0.2260
    176  O        -53.6460   34.5520   24.4290 O.2   116  ILE116     -0.2867
    177  CB       -56.5780   33.2110   23.5850 C.3   116  ILE116      0.0252
    178  CG1      -57.0310   32.0020   22.7430 C.3   116  ILE116      0.0019
    179  CG2      -56.4180   34.4840   22.7160 C.3   116  ILE116      0.0019
    180  CD1      -58.4780   32.0520   22.3250 C.3   116  ILE116      0.0001
    181  N        -56.2540   52.1010   15.8800 N.3   140  PHE140     -0.1227
    182  CA       -55.7270   51.4330   14.6770 C.3   140  PHE140      0.1736
    183  C        -56.8910   51.0240   13.7570 C.2   140  PHE140      0.2595
    184  O        -56.7510   51.1180   12.5490 O.2   140  PHE140     -0.2718
    185  CB       -54.8560   50.1970   15.0210 C.3   140  PHE140      0.0547
    186  CG       -54.2090   49.5250   13.8260 C.ar  140  PHE140     -0.0202
    187  CD1      -52.9740   49.9480   13.3540 C.ar  140  PHE140     -0.0042
    188  CD2      -54.8360   48.4620   13.1770 C.ar  140  PHE140     -0.0042
    189  CE1      -52.3910   49.3440   12.2290 C.ar  140  PHE140     -0.0003
    190  CE2      -54.2480   47.8540   12.0640 C.ar  140  PHE140     -0.0003
    191  CZ       -53.0310   48.3020   11.5950 C.ar  140  PHE140     -0.0000
    192  N        -58.0120   50.5510   14.3280 N.am  141  PHE141     -0.1976
    193  CA       -59.1850   50.1250   13.5520 C.3   141  PHE141      0.1639
    194  C        -60.3100   51.1740   13.4950 C.2   141  PHE141      0.2290
    195  O        -61.4170   50.8490   13.0560 O.2   141  PHE141     -0.2864
    196  CB       -59.7160   48.7650   14.0540 C.3   141  PHE141      0.0560
    197  CG       -58.7620   47.6230   13.7950 C.ar  141  PHE141     -0.0200
    198  CD1      -58.4610   47.2240   12.4900 C.ar  141  PHE141     -0.0042
    199  CD2      -58.1340   46.9660   14.8480 C.ar  141  PHE141     -0.0042
    200  CE1      -57.5530   46.1880   12.2500 C.ar  141  PHE141     -0.0003
    201  CE2      -57.2330   45.9190   14.6030 C.ar  141  PHE141     -0.0003
    202  CZ       -56.9580   45.5300   13.3070 C.ar  141  PHE141     -0.0000
@<TRIPOS>BOND
     1    23    21   ar
     2    23    24   ar
     3    21    20   ar
     4    25    26    1
     5    24    22   ar
     6    15    16    1
     7    16    17    1
     8    16    19    1
     9    29    26    1
    10    26    27    1
    11    20    22   ar
    12    20    19    1
    13    17    18    2
    14    27    28    2
    15    27    30   am
    16    30    31    1
    17    11    10    2
    18    10     9    1
    19    41    42    1
    20     9     8    1
    21     9    12    1
    22    31    32    1
    23    31    34    1
    24    32    33    2
    25    34    35    1
    26    36    35   ar
    27    36    38   ar
    28    14    12    1
    29   105   103   am
    30    13    12    1
    31    42    45    1
    32    42    43    1
    33    35    37   ar
    34    38    40   ar
    35    45    46    1
    36    37    39   ar
    37   191   190   ar
    38   191   189   ar
    39    40    39   ar
    40   103   104    2
    41   103   102    1
    42   133   132    1
    43     4     3    2
    44    43    44    2
    45   134   132    1
    46   190   188   ar
    47   107   108    1
    48   107   106    1
    49   116   115    1
    50   116   117    1
    51   115   114    1
    52   189   187   ar
    53   200   198   ar
    54   200   202   ar
    55    47    48    1
    56    47    46    1
    57     6     5    1
    58   198   197   ar
    59   102    99    1
    60   184   183    2
    61   117   118    2
    62   108   109    2
    63   108   110   am
    64   132   129    1
    65     2     3    1
    66     2     5    1
    67     2     1    1
    68     7     5    1
    69   118   119    1
    70   118   120    1
    71   195   194    2
    72   110   111    1
    73   188   186   ar
    74   202   201   ar
    75   187   186   ar
    76   194   193    1
    77   193   196    1
    78   193   192    1
    79   111   114    1
    80   111   112    1
    81   151   149   ar
    82   151   153   ar
    83    85    84    1
    84   183   192   am
    85   183   182    1
    86   129   128    1
    87   129   130    1
    88   197   196    1
    89   197   199   ar
    90   186   185    1
    91   149   148   ar
    92    49    50    1
    93   126   125    1
    94    99    98    1
    95    99   100    1
    96   128   123   am
    97   153   152   ar
    98    86    84    1
    99   125   127    1
   100   125   122    1
   101   100   101    2
   102    83    82    2
   103   201   199   ar
   104   182   185    1
   105   182   181    1
   106   148   147    1
   107   148   150   ar
   108    84    81    1
   109   130   131    2
   110   130   135   am
   111   112   113    2
   112   147   144    1
   113   123   124    2
   114   123   122    1
   115    81    82    1
   116    81    80    1
   117   152   150   ar
   118    82    87   am
   119    50    51    1
   120    50    53    1
   121   144   143    1
   122   144   145    1
   123   122   121    1
   124    54    55    1
   125    54    53    1
   126    54    56    1
   127   135   136    1
   128    51    52    2
   129    70    69    1
   130    90    89    2
   131    87    88    1
   132    88    89    1
   133    88    91    1
   134   145   146    2
   135   145   154   am
   136   136   137    1
   137   136   139    1
   138   158   159    1
   139    93    95   ar
   140    93    92   ar
   141   164   162    1
   142    69    71    1
   143    69    66    1
   144    68    67    2
   145   137   138    2
   146    95    97   ar
   147   139   140    1
   148   154   155    1
   149    91    92    1
   150   159   162    1
   151   159   160    1
   152    92    94   ar
   153    66    67    1
   154    66    65    1
   155    67    72   am
   156   162   163    1
   157    75    74    2
   158    97    96   ar
   159   160   161    2
   160   155   156    1
   161   141   140    1
   162    72    73    1
   163   140   142    1
   164   156   157    2
   165    73    74    1
   166    73    76    1
   167    94    96   ar
   168    63    62    1
   169    77    76    1
   170    77    78    1
   171    62    64    1
   172    62    61    1
   173    60    59    2
   174    58    61    1
   175    58    59    1
   176    58    57    1
   177    78    79    1
   178   180   178    1
   179   172   170    1
   180   179   177    1
   181   178   177    1
   182   171   170    1
   183   177   174    1
   184   170   169    1
   185   174   175    1
   186   174   173    1
   187   176   175    2
   188   169   166    1
   189   168   167    2
   190   167   166    1
   191   166   165    1
