@<TRIPOS>MOLECULE
tmp/5vkgA00.pdb
 84 81 0 0 0
SMALL
GASTEIGER

@<TRIPOS>ATOM
      1  N        -28.3930   24.4240  -28.2300 N.3    39  ASP39      -0.1225
      2  CA       -29.8350   24.4600  -28.4490 C.3    39  ASP39       0.1805
      3  C        -30.4190   23.0510  -28.5260 C.2    39  ASP39       0.2598
      4  O        -29.7310   22.0950  -28.8870 O.2    39  ASP39      -0.2718
      5  CB       -30.1390   25.2030  -29.7500 C.3    39  ASP39       0.1424
      6  CG       -31.3850   26.0630  -29.5670 C.2    39  ASP39       0.3668
      7  OD1      -32.2800   25.6300  -28.8590 O.co2  39  ASP39      -0.2456
      8  OD2      -31.4220   27.1460  -30.1270 O.co2  39  ASP39      -0.2456
      9  N        -31.7020   22.9340  -28.1990 N.am   40  SER40      -0.1938
     10  CA       -32.3880   21.6430  -28.2480 C.3    40  SER40       0.2055
     11  C        -33.0300   21.4600  -29.6180 C.2    40  SER40       0.2643
     12  O        -33.7140   22.3570  -30.1010 O.2    40  SER40      -0.2714
     13  CB       -33.4670   21.5860  -27.1660 C.3    40  SER40       0.2130
     14  OG       -32.8470   21.5330  -25.8880 O.3    40  SER40      -0.2179
     15  N        -32.8190   20.3030  -30.2450 N.am   41  TYR41      -0.1959
     16  CA       -33.4110   20.0610  -31.5640 C.3    41  TYR41       0.1771
     17  C        -34.3550   18.8610  -31.4960 C.2    41  TYR41       0.2619
     18  O        -34.0140   17.8200  -30.9230 O.2    41  TYR41      -0.2715
     19  CB       -32.3240   19.8020  -32.6190 C.3    41  TYR41       0.0574
     20  CG       -32.8990   20.0560  -33.9910 C.ar   41  TYR41      -0.0198
     21  CD1      -32.6890   21.2900  -34.6100 C.ar   41  TYR41      -0.0009
     22  CD2      -33.6450   19.0660  -34.6410 C.ar   41  TYR41      -0.0009
     23  CE1      -33.2190   21.5420  -35.8770 C.ar   41  TYR41       0.0417
     24  CE2      -34.1780   19.3150  -35.9130 C.ar   41  TYR41       0.0417
     25  CZ       -33.9650   20.5550  -36.5310 C.ar   41  TYR41       0.1957
     26  OH       -34.4930   20.8020  -37.7830 O.3    41  TYR41      -0.2866
     27  N        -35.5430   19.0160  -32.0820 N.am   42  VAL42      -0.1977
     28  CA       -36.5370   17.9400  -32.0810 C.3    42  VAL42       0.1596
     29  C        -36.7120   17.3640  -33.4840 C.2    42  VAL42       0.2287
     30  O        -37.0560   18.0800  -34.4250 O.2    42  VAL42      -0.2864
     31  CB       -37.8970   18.4600  -31.5600 C.3    42  VAL42       0.0276
     32  CG1      -38.9600   17.3550  -31.6890 C.3    42  VAL42       0.0022
     33  CG2      -37.7750   18.8470  -30.0720 C.3    42  VAL42       0.0022
     34  N        -25.0710   25.7420  -32.0950 N.3    53  ASN53      -0.1240
     35  CA       -25.2170   26.5480  -33.2980 C.3    53  ASN53       0.1653
     36  C        -24.5300   27.8990  -33.1500 C.2    53  ASN53       0.2266
     37  O        -24.3940   28.4250  -32.0490 O.2    53  ASN53      -0.2867
     38  CB       -26.7050   26.7690  -33.5780 C.3    53  ASN53       0.1155
     39  CG       -27.4580   25.4510  -33.4530 C.2    53  ASN53       0.2627
     40  OD1      -28.3910   25.3520  -32.6620 O.2    53  ASN53      -0.2716
     41  ND2      -27.0930   24.4210  -34.1680 N.am   53  ASN53      -0.0877
     42  N        -24.6260   31.8210  -33.6400 N.3    55  THR55      -0.1218
     43  CA       -25.6410   32.8610  -33.7960 C.3    55  THR55       0.1862
     44  C        -25.1060   34.2610  -33.4950 C.2    55  THR55       0.2287
     45  O        -24.3810   34.4710  -32.5180 O.2    55  THR55      -0.2866
     46  CB       -26.8250   32.5120  -32.8670 C.3    55  THR55       0.1770
     47  OG1      -27.3700   31.2640  -33.2700 O.3    55  THR55      -0.2211
     48  CG2      -27.9360   33.5820  -32.8930 C.3    55  THR55       0.0375
     49  N        -28.6110   39.2810  -39.3610 N.3    70  PRO70      -0.2116
     50  CA       -28.7010   38.2090  -38.3260 C.3    70  PRO70       0.1372
     51  C        -28.7790   36.8290  -38.9870 C.2    70  PRO70       0.2244
     52  O        -29.6930   36.5790  -39.7880 O.2    70  PRO70      -0.2868
     53  CB       -29.9980   38.5510  -37.5830 C.3    70  PRO70       0.0268
     54  CG       -30.8870   39.1420  -38.6240 C.3    70  PRO70       0.0207
     55  CD       -29.9600   39.8240  -39.6630 C.3    70  PRO70       0.0892
     56  N        -28.2640   32.3080  -38.5260 N.3    72  CYS72      -0.1235
     57  CA       -28.1040   31.1620  -37.6460 C.3    72  CYS72       0.1677
     58  C        -27.5720   29.9750  -38.4320 C.2    72  CYS72       0.2270
     59  O        -28.1180   29.6000  -39.4770 O.2    72  CYS72      -0.2867
     60  CB       -29.4260   30.7940  -36.9560 C.3    72  CYS72       0.0956
     61  SG       -29.9480   32.1420  -35.8560 S.3    72  CYS72      -0.0801
     62  N        -26.9000   26.0260  -38.3380 N.3    74  TRP74      -0.1241
     63  CA       -27.1660   24.7580  -37.6290 C.3    74  TRP74       0.1605
     64  C        -26.2620   23.6800  -38.2290 C.2    74  TRP74       0.2264
     65  O        -26.2430   23.4890  -39.4520 O.2    74  TRP74      -0.2867
     66  CB       -28.6580   24.3210  -37.6690 C.3    74  TRP74       0.0550
     67  CG       -29.4690   25.2090  -36.7720 C.ar   74  TRP74       0.0003
     68  CD1      -29.8660   26.4710  -37.0640 C.ar   74  TRP74       0.0946
     69  CD2      -30.0160   24.9050  -35.4520 C.ar   74  TRP74       0.0152
     70  NE1      -30.5960   26.9700  -35.9940 N.ar   74  TRP74      -0.2442
     71  CE2      -30.7200   26.0390  -34.9780 C.ar   74  TRP74       0.0810
     72  CE3      -29.9620   23.7670  -34.6250 C.ar   74  TRP74       0.0012
     73  CZ2      -31.3460   26.0390  -33.7250 C.ar   74  TRP74       0.0191
     74  CZ3      -30.5920   23.7650  -33.3700 C.ar   74  TRP74       0.0001
     75  CH2      -31.2810   24.9010  -32.9210 C.ar   74  TRP74       0.0015
     76  N        -32.5220   35.2360  -40.8060 N.3    89  LYS89      -0.1245
     77  CA       -33.6440   35.7570  -40.0010 C.3    89  LYS89       0.1561
     78  C        -34.3370   36.9390  -40.7110 C.2    89  LYS89       0.2260
     79  O        -33.7450   38.0150  -40.8020 O.2    89  LYS89      -0.2867
     80  CB       -33.1030   36.2420  -38.6340 C.3    89  LYS89       0.0271
     81  CG       -33.6450   35.3590  -37.5000 C.3    89  LYS89       0.0035
     82  CD       -33.1590   33.9190  -37.6880 C.3    89  LYS89       0.0206
     83  CE       -33.6180   33.0550  -36.4930 C.3    89  LYS89       0.1093
     84  NZ       -33.2010   31.6480  -36.7430 N.3    89  LYS89      -0.1314
@<TRIPOS>BOND
     1    76    77    1
     2    79    78    2
     3    78    77    1
     4    77    80    1
     5    52    51    2
     6    55    49    1
     7    55    54    1
     8    59    58    2
     9    65    64    2
    10    49    50    1
    11    51    50    1
    12    80    81    1
    13    54    53    1
    14    56    57    1
    15    58    57    1
    16    62    63    1
    17    50    53    1
    18    64    63    1
    19    26    25    1
    20    82    81    1
    21    82    83    1
    22    66    63    1
    23    66    67    1
    24    57    60    1
    25    68    67   ar
    26    68    70   ar
    27    60    61    1
    28    67    69   ar
    29    84    83    1
    30    25    24   ar
    31    25    23   ar
    32    70    71   ar
    33    24    22   ar
    34    23    21   ar
    35    69    71   ar
    36    69    72   ar
    37    71    73   ar
    38    22    20   ar
    39    72    74   ar
    40    21    20   ar
    41    30    29    2
    42    41    39   am
    43    20    19    1
    44    43    42    1
    45    43    44    1
    46    43    46    1
    47    73    75   ar
    48    38    39    1
    49    38    35    1
    50    44    45    2
    51    29    28    1
    52    39    40    2
    53    74    75   ar
    54    35    36    1
    55    35    34    1
    56    47    46    1
    57    36    37    2
    58    48    46    1
    59    19    16    1
    60    27    28    1
    61    27    17   am
    62    28    31    1
    63    32    31    1
    64    16    17    1
    65    16    15    1
    66    31    33    1
    67    17    18    2
    68    15    11   am
    69     8     6   ar
    70    12    11    2
    71     5     6    1
    72     5     2    1
    73    11    10    1
    74     6     7   ar
    75     4     3    2
    76     3     2    1
    77     3     9   am
    78     2     1    1
    79    10     9    1
    80    10    13    1
    81    13    14    1
