@<TRIPOS>MOLECULE
tmp/5vkmA02.pdb
 114 113 0 0 0
SMALL
GASTEIGER

@<TRIPOS>ATOM
      1  N        -54.0780   10.4390    7.5300 N.3     1  LYS1       -0.1231
      2  CA       -52.8320    9.8180    7.0970 C.3     1  LYS1        0.1693
      3  C        -51.6960   10.8360    7.0400 C.2     1  LYS1        0.2592
      4  O        -51.5830   11.6050    6.0840 O.2     1  LYS1       -0.2718
      5  CB       -53.0120    9.1530    5.7300 C.3     1  LYS1        0.0285
      6  CG       -51.7890    8.3860    5.2430 C.3     1  LYS1        0.0035
      7  CD       -52.0670    7.6740    3.9250 C.3     1  LYS1        0.0206
      8  CE       -51.9650    6.1580    4.0710 C.3     1  LYS1        0.1093
      9  NZ       -52.9830    5.5970    5.0060 N.3     1  LYS1       -0.1314
     10  N        -50.8620   10.8390    8.0770 N.am    2  TRP2       -0.1976
     11  CA       -49.6620   11.6640    8.1370 C.3     2  TRP2        0.1640
     12  C        -48.4530   10.7640    7.9200 C.2     2  TRP2        0.2290
     13  O        -48.2660    9.7840    8.6500 O.2     2  TRP2       -0.2864
     14  CB       -49.5590   12.3930    9.4780 C.3     2  TRP2        0.0576
     15  CG       -50.5210   13.5340    9.6400 C.ar    2  TRP2        0.0006
     16  CD1      -51.8820   13.4660    9.6160 C.ar    2  TRP2        0.0946
     17  CD2      -50.1920   14.9110    9.8760 C.ar    2  TRP2        0.0152
     18  NE1      -52.4220   14.7150    9.8110 N.ar    2  TRP2       -0.2442
     19  CE2      -51.4060   15.6190    9.9750 C.ar    2  TRP2        0.0810
     20  CE3      -48.9900   15.6120   10.0100 C.ar    2  TRP2        0.0012
     21  CZ2      -51.4540   16.9930   10.1990 C.ar    2  TRP2        0.0191
     22  CZ3      -49.0400   16.9780   10.2320 C.ar    2  TRP2        0.0001
     23  CH2      -50.2630   17.6530   10.3250 C.ar    2  TRP2        0.0015
     24  N        -50.3130   12.6750   27.6660 N.3    42  TYR42      -0.1241
     25  CA       -51.6320   13.0000   27.1410 C.3    42  TYR42       0.1605
     26  C        -52.6250   13.1480   28.2860 C.2    42  TYR42       0.2264
     27  O        -52.6750   12.3040   29.1860 O.2    42  TYR42      -0.2867
     28  CB       -52.1150   11.9350   26.1570 C.3    42  TYR42       0.0534
     29  CG       -53.3200   12.3700   25.3560 C.ar   42  TYR42      -0.0201
     30  CD1      -53.1930   13.2960   24.3310 C.ar   42  TYR42      -0.0009
     31  CD2      -54.5810   11.8590   25.6260 C.ar   42  TYR42      -0.0009
     32  CE1      -54.2850   13.7020   23.5950 C.ar   42  TYR42       0.0417
     33  CE2      -55.6820   12.2600   24.8940 C.ar   42  TYR42       0.0417
     34  CZ       -55.5260   13.1830   23.8790 C.ar   42  TYR42       0.1957
     35  OH       -56.6140   13.5930   23.1410 O.3    42  TYR42      -0.2866
     36  N        -57.9180   16.5700   26.5830 N.3    47  SER47      -0.1217
     37  CA       -57.6220   16.1390   25.2150 C.3    47  SER47       0.1889
     38  C        -56.4530   16.9160   24.6130 C.2    47  SER47       0.2288
     39  O        -56.3980   17.1350   23.4010 O.2    47  SER47      -0.2866
     40  CB       -58.8570   16.2470   24.3150 C.3    47  SER47       0.2089
     41  OG       -59.9170   15.4370   24.7990 O.3    47  SER47      -0.2183
     42  N        -51.9250   17.6230   25.0140 N.3    49  PHE49      -0.1241
     43  CA       -50.6630   17.0150   25.4160 C.3    49  PHE49       0.1605
     44  C        -49.9710   17.9090   26.4370 C.2    49  PHE49       0.2264
     45  O        -49.7080   19.0850   26.1630 O.2    49  PHE49      -0.2867
     46  CB       -49.7580   16.7830   24.2070 C.3    49  PHE49       0.0534
     47  CG       -50.0350   15.5010   23.4760 C.ar   49  PHE49      -0.0203
     48  CD1      -49.6560   14.2850   24.0190 C.ar   49  PHE49      -0.0042
     49  CD2      -50.6560   15.5120   22.2390 C.ar   49  PHE49      -0.0042
     50  CE1      -49.9020   13.1020   23.3460 C.ar   49  PHE49      -0.0003
     51  CE2      -50.9020   14.3310   21.5600 C.ar   49  PHE49      -0.0003
     52  CZ       -50.5250   13.1270   22.1150 C.ar   49  PHE49      -0.0000
     53  N        -45.4150   17.7320   18.0550 N.3    96  ARG96      -0.1245
     54  CA       -46.8400   18.0650   18.0720 C.3    96  ARG96       0.1563
     55  C        -47.1430   19.0000   16.9070 C.2    96  ARG96       0.2260
     56  O        -46.8220   20.1910   16.9490 O.2    96  ARG96      -0.2867
     57  CB       -47.2230   18.6980   19.4050 C.3    96  ARG96       0.0307
     58  CG       -48.6740   19.1390   19.4970 C.3    96  ARG96       0.0489
     59  CD       -49.6010   18.0290   19.0600 C.3    96  ARG96       0.2205
     60  NE       -50.9640   18.2320   19.5300 N.pl3  96  ARG96      -0.0865
     61  CZ       -51.9210   17.3180   19.4200 C.cat  96  ARG96       0.5346
     62  NH1      -51.6490   16.1500   18.8550 N.pl3  96  ARG96       0.1354
     63  NH2      -53.1410   17.5660   19.8730 N.pl3  96  ARG96       0.1354
     64  N        -56.5750   19.0460   11.1420 N.3   102  GLU102     -0.1231
     65  CA       -56.1550   17.8820   11.9080 C.3   102  GLU102      0.1699
     66  C        -54.8320   18.1560   12.6100 C.2   102  GLU102      0.2592
     67  O        -54.0320   18.9910   12.1800 O.2   102  GLU102     -0.2718
     68  CB       -56.0610   16.6330   11.0150 C.3   102  GLU102      0.0402
     69  CG       -55.7170   15.3220   11.7370 C.3   102  GLU102      0.1161
     70  CD       -56.5870   15.0280   12.9630 C.2   102  GLU102      0.3649
     71  OE1      -57.6650   15.6360   13.1250 O.co2 102  GLU102     -0.2457
     72  OE2      -56.1830   14.1730   13.7770 O.co2 102  GLU102     -0.2457
     73  N        -54.6220   17.4360   13.7110 N.am  103  LYS103     -0.1966
     74  CA       -53.4270   17.5400   14.5320 C.3   103  LYS103      0.1728
     75  C        -52.7860   16.1670   14.6830 C.2   103  LYS103      0.2616
     76  O        -53.4850   15.1530   14.7710 O.2   103  LYS103     -0.2715
     77  CB       -53.7640   18.1230   15.9040 C.3   103  LYS103      0.0311
     78  CG       -55.0050   17.5190   16.5360 C.3   103  LYS103      0.0038
     79  CD       -55.4710   18.3360   17.7290 C.3   103  LYS103      0.0206
     80  CE       -55.8100   19.7630   17.3250 C.3   103  LYS103      0.1093
     81  NZ       -56.2200   20.5880   18.4960 N.3   103  LYS103     -0.1314
     82  N        -51.4550   16.1400   14.7220 N.am  104  TRP104     -0.1960
     83  CA       -50.7060   14.8930   14.7630 C.3   104  TRP104      0.1771
     84  C        -49.5640   15.0100   15.7610 C.2   104  TRP104      0.2619
     85  O        -48.9580   16.0750   15.9150 O.2   104  TRP104     -0.2715
     86  CB       -50.1540   14.5240   13.3730 C.3   104  TRP104      0.0590
     87  CG       -49.4180   13.2050   13.3250 C.ar  104  TRP104      0.0006
     88  CD1      -48.1000   12.9920   13.6130 C.ar  104  TRP104      0.0946
     89  CD2      -49.9570   11.9260   12.9560 C.ar  104  TRP104      0.0152
     90  NE1      -47.7870   11.6630   13.4540 N.ar  104  TRP104     -0.2442
     91  CE2      -48.9090   10.9880   13.0510 C.ar  104  TRP104      0.0810
     92  CE3      -51.2220   11.4820   12.5580 C.ar  104  TRP104      0.0012
     93  CZ2      -49.0870    9.6370   12.7630 C.ar  104  TRP104      0.0191
     94  CZ3      -51.3950   10.1380   12.2730 C.ar  104  TRP104      0.0001
     95  CH2      -50.3340    9.2340   12.3760 C.ar  104  TRP104      0.0015
     96  N        -49.2780   13.9030   16.4390 N.am  105  MET105     -0.1977
     97  CA       -48.1260   13.7880   17.3230 C.3   105  MET105      0.1605
     98  C        -47.2170   12.6940   16.7850 C.2   105  MET105      0.2287
     99  O        -47.6230   11.5300   16.7100 O.2   105  MET105     -0.2864
    100  CB       -48.5460   13.4760   18.7610 C.3   105  MET105      0.0413
    101  CG       -47.3810   13.1180   19.6720 C.3   105  MET105      0.0598
    102  SD       -46.2480   14.4910   19.9840 S.3   105  MET105     -0.1393
    103  CE       -47.0630   15.2900   21.3630 C.3   105  MET105      0.0692
    104  N        -43.6540   10.8140   17.4190 N.3   107  ARG107     -0.1245
    105  CA       -42.6780   10.5820   18.4740 C.3   107  ARG107      0.1563
    106  C        -41.3880   10.0280   17.8820 C.2   107  ARG107      0.2260
    107  O        -41.4200    9.1010   17.0660 O.2   107  ARG107     -0.2867
    108  CB       -43.2360    9.6230   19.5260 C.3   107  ARG107      0.0307
    109  CG       -44.4430   10.1630   20.2830 C.3   107  ARG107      0.0489
    110  CD       -44.9790    9.1400   21.2710 C.3   107  ARG107      0.2205
    111  NE       -46.0940    9.6640   22.0530 N.pl3 107  ARG107     -0.0865
    112  CZ       -47.3680    9.5850   21.6810 C.cat 107  ARG107      0.5346
    113  NH1      -47.6920    9.0010   20.5350 N.pl3 107  ARG107      0.1354
    114  NH2      -48.3200   10.0900   22.4550 N.pl3 107  ARG107      0.1354
@<TRIPOS>BOND
     1     7     8    1
     2     7     6    1
     3     8     9    1
     4     6     5    1
     5     5     2    1
     6     4     3    2
     7     3     2    1
     8     3    10   am
     9     2     1    1
    10    12    11    1
    11    12    13    2
    12    10    11    1
    13    11    14    1
    14    14    15    1
    15    16    15   ar
    16    16    18   ar
    17    15    17   ar
    18    18    19   ar
    19    17    19   ar
    20    17    20   ar
    21    19    21   ar
    22    20    22   ar
    23    21    23   ar
    24    22    23   ar
    25    68    69    1
    26    68    65    1
    27    64    65    1
    28    69    70    1
    29    65    66    1
    30    67    66    2
    31    94    95   ar
    32    94    92   ar
    33    95    93   ar
    34    92    89   ar
    35    66    73   am
    36    93    91   ar
    37    89    91   ar
    38    89    87   ar
    39    70    71   ar
    40    70    72   ar
    41    91    90   ar
    42    87    86    1
    43    87    88   ar
    44    86    83    1
    45    90    88   ar
    46    73    74    1
    47    74    75    1
    48    74    77    1
    49    75    82   am
    50    75    76    2
    51    82    83    1
    52    83    84    1
    53    84    85    2
    54    84    96   am
    55    77    78    1
    56    96    97    1
    57    78    79    1
    58    99    98    2
    59    98    97    1
    60    55    56    2
    61    55    54    1
    62   107   106    2
    63    97   100    1
    64    80    79    1
    65    80    81    1
    66   104   105    1
    67   106   105    1
    68    53    54    1
    69    54    57    1
    70   105   108    1
    71   100   101    1
    72    62    61    1
    73    59    58    1
    74    59    60    1
    75    57    58    1
    76    61    60    2
    77    61    63    1
    78   108   109    1
    79   101   102    1
    80   102   103    1
    81   109   110    1
    82   113   112    1
    83   110   111    1
    84    51    52   ar
    85    51    49   ar
    86   112   111    2
    87   112   114    1
    88    52    50   ar
    89    49    47   ar
    90    35    34    1
    91    50    48   ar
    92    39    38    2
    93    47    48   ar
    94    47    46    1
    95    32    34   ar
    96    32    30   ar
    97    34    33   ar
    98    46    43    1
    99    40    41    1
   100    40    37    1
   101    30    29   ar
   102    38    37    1
   103    33    31   ar
   104    42    43    1
   105    37    36    1
   106    29    31   ar
   107    29    28    1
   108    43    44    1
   109    28    25    1
   110    45    44    2
   111    25    24    1
   112    25    26    1
   113    26    27    2
