@<TRIPOS>MOLECULE
tmp/5vl1B00.pdb
 125 119 0 0 0
SMALL
GASTEIGER

@<TRIPOS>ATOM
      1  N         -9.9740    9.2460   10.0540 N.3   246  ARG246     -0.1245
      2  CA       -10.3380    9.9420   11.2840 C.3   246  ARG246      0.1563
      3  C        -11.4590   10.9240   10.9750 C.2   246  ARG246      0.2260
      4  O        -11.3020   11.8010   10.1210 O.2   246  ARG246     -0.2867
      5  CB        -9.1230   10.6520   11.8900 C.3   246  ARG246      0.0307
      6  CG        -8.0290    9.6750   12.3030 C.3   246  ARG246      0.0489
      7  CD        -6.8180   10.3400   12.9290 C.3   246  ARG246      0.2205
      8  NE        -5.7660    9.3540   13.1690 N.pl3 246  ARG246     -0.0865
      9  CZ        -4.6090    9.6140   13.7690 C.cat 246  ARG246      0.5346
     10  NH1       -4.3400   10.8370   14.2020 N.pl3 246  ARG246      0.1354
     11  NH2       -3.7200    8.6460   13.9370 N.pl3 246  ARG246      0.1354
     12  N         -7.1960   21.5290    8.2690 N.3   253  THR253     -0.1203
     13  CA        -5.8180   21.0710    8.4550 C.3   253  THR253      0.1994
     14  C         -5.7420   19.5590    8.6430 C.2   253  THR253      0.2618
     15  O         -4.6730   18.9630    8.4750 O.2   253  THR253     -0.2717
     16  CB        -5.1440   21.7850    9.6320 C.3   253  THR253      0.1784
     17  OG1       -5.1320   23.1870    9.3290 O.3   253  THR253     -0.2211
     18  CG2       -3.7340   21.3460    9.8580 C.3   253  THR253      0.0376
     19  N         -6.8630   18.9310    8.9860 N.am  254  HIS254     -0.1961
     20  CA        -6.9670   17.4800    9.0590 C.3   254  HIS254      0.1787
     21  C         -7.9980   17.0060    8.0470 C.2   254  HIS254      0.2620
     22  O         -9.1370   17.4860    8.0420 O.2   254  HIS254     -0.2715
     23  CB        -7.3420   17.0090   10.4660 C.3   254  HIS254      0.0785
     24  CG        -6.5280   17.6370   11.5530 C.ar  254  HIS254      0.0821
     25  ND1       -7.0670   18.0140   12.7640 N.ar  254  HIS254     -0.2267
     26  CD2       -5.2090   17.9360   11.6190 C.ar  254  HIS254      0.1154
     27  CE1       -6.1170   18.5280   13.5250 C.ar  254  HIS254      0.1986
     28  NE2       -4.9800   18.4910   12.8540 N.ar  254  HIS254     -0.2212
     29  N         -7.5980   16.0620    7.1990 N.am  255  SER255     -0.1950
     30  CA        -8.4810   15.4640    6.2130 C.3   255  SER255      0.1924
     31  C         -9.0700   14.1660    6.7530 C.2   255  SER255      0.2314
     32  O         -8.4400   13.4840    7.5690 O.2   255  SER255     -0.2863
     33  CB        -7.7140   15.1820    4.9160 C.3   255  SER255      0.2116
     34  OG        -8.5630   14.6840    3.8970 O.3   255  SER255     -0.2180
     35  N         -6.0580   10.1060    5.0760 N.3   258  PHE258     -0.1241
     36  CA        -4.6870   10.4710    4.7470 C.3   258  PHE258      0.1605
     37  C         -3.7800    9.2580    4.9120 C.2   258  PHE258      0.2264
     38  O         -4.1010    8.3030    5.6250 O.2   258  PHE258     -0.2867
     39  CB        -4.1810   11.6390    5.6080 C.3   258  PHE258      0.0534
     40  CG        -4.1250   11.3430    7.0840 C.ar  258  PHE258     -0.0203
     41  CD1       -5.2340   11.5430    7.8890 C.ar  258  PHE258     -0.0042
     42  CD2       -2.9530   10.8880    7.6710 C.ar  258  PHE258     -0.0042
     43  CE1       -5.1830   11.2780    9.2470 C.ar  258  PHE258     -0.0003
     44  CE2       -2.8950   10.6230    9.0290 C.ar  258  PHE258     -0.0003
     45  CZ        -4.0120   10.8210    9.8190 C.ar  258  PHE258     -0.0000
     46  N         -0.4440    7.4380    6.2410 N.3   260  MET260     -0.1245
     47  CA         0.3970    7.5460    7.4240 C.3   260  MET260      0.1570
     48  C          1.4460    6.4450    7.4240 C.2   260  MET260      0.2261
     49  O          1.1790    5.3160    7.0030 O.2   260  MET260     -0.2867
     50  CB        -0.4340    7.4810    8.7110 C.3   260  MET260      0.0387
     51  CG         0.4010    7.6130    9.9730 C.3   260  MET260      0.0595
     52  SD        -0.5210    8.1810   11.4080 S.3   260  MET260     -0.1393
     53  CE        -1.5290    6.7420   11.7550 C.3   260  MET260      0.0692
     54  N          3.7330   20.0730   13.3890 N.3   406  GLU406     -0.1231
     55  CA         3.9690   18.7400   13.9280 C.3   406  GLU406      0.1699
     56  C          4.0540   17.7320   12.7890 C.2   406  GLU406      0.2592
     57  O          3.0850   17.5390   12.0470 O.2   406  GLU406     -0.2718
     58  CB         2.8540   18.3540   14.8960 C.3   406  GLU406      0.0402
     59  CG         2.9460   16.9180   15.3990 C.3   406  GLU406      0.1161
     60  CD         1.8460   16.5590   16.3830 C.2   406  GLU406      0.3649
     61  OE1        1.5960   15.3510   16.5750 O.co2 406  GLU406     -0.2457
     62  OE2        1.2280   17.4810   16.9570 O.co2 406  GLU406     -0.2457
     63  N          5.2090   17.0860   12.6530 N.am  407  LEU407     -0.1966
     64  CA         5.4720   16.1890   11.5360 C.3   407  LEU407      0.1728
     65  C          5.4860   14.7240   11.9430 C.2   407  LEU407      0.2616
     66  O          4.7870   13.9070   11.3350 O.2   407  LEU407     -0.2715
     67  CB         6.8060   16.5620   10.8740 C.3   407  LEU407      0.0311
     68  CG         7.3010   15.6060    9.7890 C.3   407  LEU407      0.0022
     69  CD1        6.2490   15.4330    8.7110 C.3   407  LEU407      0.0001
     70  CD2        8.5940   16.1210    9.1910 C.3   407  LEU407      0.0001
     71  N          6.2530   14.3660   12.9700 N.am  408  ALA408     -0.1963
     72  CA         6.3990   12.9750   13.3620 C.3   408  ALA408      0.1728
     73  C          6.3980   12.8670   14.8790 C.2   408  ALA408      0.2616
     74  O          6.6250   13.8450   15.5950 O.2   408  ALA408     -0.2715
     75  CB         7.6840   12.3570   12.7920 C.3   408  ALA408      0.0334
     76  N          6.1400   11.6520   15.3590 N.am  409  THR409     -0.1951
     77  CA         6.1250   11.3560   16.7830 C.3   409  THR409      0.1897
     78  C          6.7290    9.9770   17.0020 C.2   409  THR409      0.2313
     79  O          6.6080    9.0890   16.1550 O.2   409  THR409     -0.2863
     80  CB         4.7000   11.4220   17.3680 C.3   409  THR409      0.1794
     81  OG1        4.7260   11.0540   18.7520 O.3   409  THR409     -0.2208
     82  CG2        3.7580   10.4930   16.6170 C.3   409  THR409      0.0378
     83  N          5.5270    7.5720   14.0810 N.3   460  GLY460     -0.1210
     84  CA         4.3800    7.8740   13.2550 C.3   460  GLY460      0.1956
     85  C          4.5950    9.1730   12.5100 C.2   460  GLY460      0.2612
     86  O          5.1280   10.1310   13.0770 O.2   460  GLY460     -0.2717
     87  N          4.1810    9.2280   11.2460 N.am  461  MET461     -0.1965
     88  CA         4.3940   10.4210   10.4370 C.3   461  MET461      0.1736
     89  C          3.4030   10.4210    9.2860 C.2   461  MET461      0.2617
     90  O          3.3130    9.4390    8.5440 O.2   461  MET461     -0.2715
     91  CB         5.8310   10.4760    9.9020 C.3   461  MET461      0.0427
     92  CG         6.1250   11.7000    9.0490 C.3   461  MET461      0.0599
     93  SD         7.8330   11.7880    8.4720 S.3   461  MET461     -0.1393
     94  CE         7.9610   10.2840    7.5080 C.3   461  MET461      0.0692
     95  N          2.6600   11.5180    9.1450 N.am  462  GLY462     -0.1955
     96  CA         1.7450   11.6560    8.0270 C.3   462  GLY462      0.1869
     97  C          2.5010   12.0100    6.7620 C.2   462  GLY462      0.2309
     98  O          3.3510   12.9070    6.7610 O.2   462  GLY462     -0.2863
     99  N          1.1870   13.2800    3.9810 N.3   464  ASP464     -0.1225
    100  CA         0.7660   14.6090    3.5550 C.3   464  ASP464      0.1805
    101  C          1.4520   15.6930    4.3760 C.2   464  ASP464      0.2597
    102  O          1.7400   16.7770    3.8550 O.2   464  ASP464     -0.2718
    103  CB        -0.7550   14.7290    3.6470 C.3   464  ASP464      0.1424
    104  CG        -1.4700   13.7710    2.7070 C.2   464  ASP464      0.3668
    105  OD1       -1.0340   13.6420    1.5450 O.co2 464  ASP464     -0.2456
    106  OD2       -2.4610   13.1400    3.1320 O.co2 464  ASP464     -0.2456
    107  N          1.7400   15.4170    5.6500 N.am  465  ARG465     -0.1979
    108  CA         2.4840   16.3700    6.4670 C.3   465  ARG465      0.1597
    109  C          3.9420   16.4390    6.0310 C.2   465  ARG465      0.2287
    110  O          4.5500   17.5160    6.0440 O.2   465  ARG465     -0.2864
    111  CB         2.3780   15.9900    7.9430 C.3   465  ARG465      0.0334
    112  CG         2.3010   17.1820    8.8800 C.3   465  ARG465      0.0492
    113  CD         0.9230   17.8250    8.8460 C.3   465  ARG465      0.2205
    114  NE        -0.0330   17.1100    9.6870 N.pl3 465  ARG465     -0.0865
    115  CZ        -0.2710   17.4090   10.9610 C.cat 465  ARG465      0.5346
    116  NH1        0.3760   18.4120   11.5400 N.pl3 465  ARG465      0.1354
    117  NH2       -1.1550   16.7090   11.6570 N.pl3 465  ARG465      0.1354
    118  N         -2.4600   19.9920    1.5430 N.3   475  ILE475     -0.1245
    119  CA        -2.9820   18.6520    1.2880 C.3   475  ILE475      0.1561
    120  C         -3.8370   18.6250    0.0260 C.2   475  ILE475      0.2260
    121  O         -3.8580   17.6200   -0.6950 O.2   475  ILE475     -0.2867
    122  CB        -3.7510   18.1590    2.5350 C.3   475  ILE475      0.0252
    123  CG1       -4.9240   17.2420    2.1700 C.3   475  ILE475      0.0019
    124  CG2       -4.2280   19.3380    3.3700 C.3   475  ILE475      0.0019
    125  CD1       -4.5980   15.7750    2.2720 C.3   475  ILE475      0.0001
@<TRIPOS>BOND
     1   121   120    2
     2   120   119    1
     3   119   118    1
     4   119   122    1
     5   105   104   ar
     6   123   125    1
     7   123   122    1
     8   122   124    1
     9   104   106   ar
    10   104   103    1
    11   100   103    1
    12   100    99    1
    13   100   101    1
    14   102   101    2
    15    34    33    1
    16   101   107   am
    17    36    37    1
    18    36    35    1
    19    36    39    1
    20    37    38    2
    21    33    30    1
    22    39    40    1
    23   107   108    1
    24   109   110    2
    25   109   108    1
    26    30    31    1
    27    30    29    1
    28    46    47    1
    29   108   111    1
    30    31    32    2
    31    98    97    2
    32    97    96    1
    33    49    48    2
    34    40    42   ar
    35    40    41   ar
    36    29    21   am
    37    47    48    1
    38    47    50    1
    39    94    93    1
    40    42    44   ar
    41    41    43   ar
    42   111   112    1
    43    96    95    1
    44    22    21    2
    45    21    20    1
    46    12    13    1
    47    13    14    1
    48    13    16    1
    49    93    92    1
    50    15    14    2
    51    90    89    2
    52    14    19   am
    53    50    51    1
    54    69    68    1
    55   113   112    1
    56   113   114    1
    57    19    20    1
    58    44    45   ar
    59    92    91    1
    60    20    23    1
    61    95    89   am
    62    70    68    1
    63    43    45   ar
    64    89    88    1
    65    17    16    1
    66    16    18    1
    67   114   115    2
    68    68    67    1
    69    91    88    1
    70    51    52    1
    71     1     2    1
    72     4     3    2
    73    88    87    1
    74    23    24    1
    75    67    64    1
    76   115   116    1
    77   115   117    1
    78     3     2    1
    79    87    85   am
    80     2     5    1
    81    66    65    2
    82    52    53    1
    83    64    65    1
    84    64    63    1
    85    24    26   ar
    86    24    25   ar
    87    26    28   ar
    88     5     6    1
    89    65    71   am
    90    57    56    2
    91     6     7    1
    92    85    86    2
    93    85    84    1
    94    63    56   am
    95    25    27   ar
    96    56    55    1
    97    75    72    1
    98    28    27   ar
    99     7     8    1
   100    71    72    1
   101     8     9    2
   102    84    83    1
   103    72    73    1
   104    54    55    1
   105     9    11    1
   106     9    10    1
   107    55    58    1
   108    73    76   am
   109    73    74    2
   110    58    59    1
   111    76    77    1
   112    59    60    1
   113    79    78    2
   114    60    61   ar
   115    60    62   ar
   116    82    80    1
   117    77    78    1
   118    77    80    1
   119    80    81    1
