@<TRIPOS>MOLECULE
tmp/5vl9B02.pdb
 104 98 0 0 0
SMALL
GASTEIGER

@<TRIPOS>ATOM
      1  N         34.1840  -74.7010   16.2420 N.3    75  PHE75      -0.1241
      2  CA        33.6690  -73.9430   15.1050 C.3    75  PHE75       0.1605
      3  C         33.8570  -74.7190   13.8090 C.2    75  PHE75       0.2264
      4  O         32.9330  -74.8290   12.9950 O.2    75  PHE75      -0.2867
      5  CB        34.3650  -72.5840   15.0240 C.3    75  PHE75       0.0534
      6  CG        33.9420  -71.7560   13.8430 C.ar   75  PHE75      -0.0203
      7  CD1       34.5950  -71.8740   12.6260 C.ar   75  PHE75      -0.0042
      8  CD2       32.8910  -70.8630   13.9480 C.ar   75  PHE75      -0.0042
      9  CE1       34.2060  -71.1170   11.5380 C.ar   75  PHE75      -0.0003
     10  CE2       32.4980  -70.1010   12.8610 C.ar   75  PHE75      -0.0003
     11  CZ        33.1560  -70.2300   11.6560 C.ar   75  PHE75      -0.0000
     12  N         30.8230  -75.4730   11.6260 N.3    79  GLY79      -0.1210
     13  CA        30.6490  -74.5610   10.5130 C.3    79  GLY79       0.1956
     14  C         31.9360  -74.2290    9.7890 C.2    79  GLY79       0.2613
     15  O         32.2080  -73.0570    9.5090 O.2    79  GLY79      -0.2717
     16  N         32.7360  -75.2470    9.4790 N.am   80  SER80      -0.1938
     17  CA        33.9630  -75.0290    8.7250 C.3    80  SER80       0.2055
     18  C         33.6650  -74.2810    7.4330 C.2    80  SER80       0.2642
     19  O         32.6640  -74.5410    6.7610 O.2    80  SER80      -0.2714
     20  CB        34.6400  -76.3640    8.4080 C.3    80  SER80       0.2130
     21  OG        35.6930  -76.1840    7.4740 O.3    80  SER80      -0.2179
     22  N         34.5400  -73.3380    7.0960 N.am   81  GLU81      -0.1976
     23  CA        34.4360  -72.5840    5.8560 C.3    81  GLU81       0.1602
     24  C         35.1870  -73.2370    4.7020 C.2    81  GLU81       0.2287
     25  O         35.2460  -72.6550    3.6130 O.2    81  GLU81      -0.2864
     26  CB        34.9640  -71.1610    6.0700 C.3    81  GLU81       0.0415
     27  CG        34.1240  -70.3290    7.0270 C.3    81  GLU81       0.1163
     28  CD        34.8040  -69.0370    7.4390 C.2    81  GLU81       0.3649
     29  OE1       36.0170  -69.0670    7.7400 O.co2  81  GLU81      -0.2457
     30  OE2       34.1240  -67.9880    7.4590 O.co2  81  GLU81      -0.2457
     31  N         31.7850  -78.2160    0.3600 N.3    86  GLU86      -0.1245
     32  CA        30.5480  -77.8010   -0.3030 C.3    86  GLU86       0.1567
     33  C         29.8220  -78.9480   -0.9910 C.2    86  GLU86       0.2260
     34  O         28.6070  -79.0910   -0.7780 O.2    86  GLU86      -0.2867
     35  CB        30.8550  -76.6740   -1.3000 C.3    86  GLU86       0.0388
     36  CG        31.1720  -75.3360   -0.6500 C.3    86  GLU86       0.1160
     37  CD        31.4410  -74.2400   -1.6690 C.2    86  GLU86       0.3649
     38  OE1       31.2790  -74.4980   -2.8820 O.co2  86  GLU86      -0.2457
     39  OE2       31.8160  -73.1220   -1.2590 O.co2  86  GLU86      -0.2457
     40  N         28.1670  -81.0930    1.7580 N.3    89  ILE89      -0.1245
     41  CA        27.0480  -80.4080    2.3970 C.3    89  ILE89       0.1561
     42  C         25.8300  -80.4140    1.4820 C.2    89  ILE89       0.2260
     43  O         24.6900  -80.5560    1.9430 O.2    89  ILE89      -0.2867
     44  CB        27.4630  -78.9770    2.7900 C.3    89  ILE89       0.0252
     45  CG1       28.5490  -79.0310    3.8700 C.3    89  ILE89       0.0019
     46  CG2       26.2580  -78.1730    3.2770 C.3    89  ILE89       0.0019
     47  CD1       29.2110  -77.6990    4.1540 C.3    89  ILE89       0.0001
     48  N         22.2050  -81.8020    2.5030 N.3    93  ARG93      -0.1245
     49  CA        20.9150  -81.1230    2.4500 C.3    93  ARG93       0.1563
     50  C         19.8830  -81.9620    1.7100 C.2    93  ARG93       0.2260
     51  O         18.7250  -82.0530    2.1330 O.2    93  ARG93      -0.2867
     52  CB        21.0600  -79.7590    1.7750 C.3    93  ARG93       0.0307
     53  CG        21.9160  -78.7610    2.5250 C.3    93  ARG93       0.0489
     54  CD        21.6270  -77.3570    2.0300 C.3    93  ARG93       0.2205
     55  NE        22.5320  -76.3580    2.5910 N.pl3  93  ARG93      -0.0865
     56  CZ        23.6370  -75.9140    1.9990 C.cat  93  ARG93       0.5346
     57  NH1       24.0020  -76.3720    0.8090 N.pl3  93  ARG93       0.1354
     58  NH2       24.3830  -74.9980    2.6000 N.pl3  93  ARG93       0.1354
     59  N         21.3040  -72.4930    8.4940 N.3   153  ASP153     -0.1239
     60  CA        21.5550  -72.9120    7.1190 C.3   153  ASP153      0.1674
     61  C         20.2600  -72.9780    6.3210 C.2   153  ASP153      0.2266
     62  O         20.2490  -72.6780    5.1220 O.2   153  ASP153     -0.2867
     63  CB        22.2580  -74.2670    7.0930 C.3   153  ASP153      0.1410
     64  CG        22.6160  -74.7090    5.6820 C.2   153  ASP153      0.3668
     65  OD1       23.5940  -74.1720    5.1200 O.co2 153  ASP153     -0.2456
     66  OD2       21.9150  -75.5870    5.1320 O.co2 153  ASP153     -0.2456
     67  N         19.8030  -69.5030    5.3520 N.3   156  TYR156     -0.1241
     68  CA        20.8500  -69.0930    4.4220 C.3   156  TYR156      0.1605
     69  C         20.5350  -69.5320    2.9970 C.2   156  TYR156      0.2264
     70  O         20.6890  -68.7500    2.0510 O.2   156  TYR156     -0.2867
     71  CB        22.1900  -69.6660    4.8880 C.3   156  TYR156      0.0534
     72  CG        23.2850  -69.6590    3.8480 C.ar  156  TYR156     -0.0201
     73  CD1       24.0580  -68.5270    3.6300 C.ar  156  TYR156     -0.0009
     74  CD2       23.5580  -70.7940    3.0970 C.ar  156  TYR156     -0.0009
     75  CE1       25.0640  -68.5230    2.6840 C.ar  156  TYR156      0.0417
     76  CE2       24.5600  -70.7990    2.1490 C.ar  156  TYR156      0.0417
     77  CZ        25.3110  -69.6630    1.9470 C.ar  156  TYR156      0.1957
     78  OH        26.3110  -69.6680    1.0040 O.3   156  TYR156     -0.2866
     79  N         27.1830  -65.9660    4.5250 N.3   164  ASP164     -0.1239
     80  CA        28.2510  -66.7520    5.1340 C.3   164  ASP164      0.1674
     81  C         28.9330  -65.9790    6.2560 C.2   164  ASP164      0.2266
     82  O         29.3320  -66.5650    7.2700 O.2   164  ASP164     -0.2867
     83  CB        29.2690  -67.1680    4.0730 C.3   164  ASP164      0.1410
     84  CG        28.9730  -68.5350    3.4840 C.2   164  ASP164      0.3668
     85  OD1       28.6860  -69.4710    4.2600 O.co2 164  ASP164     -0.2456
     86  OD2       29.0240  -68.6730    2.2440 O.co2 164  ASP164     -0.2456
     87  N         26.6020  -66.0490    9.2280 N.3   167  PHE167     -0.1227
     88  CA        26.6220  -67.4080    9.7590 C.3   167  PHE167      0.1736
     89  C         27.8070  -67.6060   10.6940 C.2   167  PHE167      0.2596
     90  O         27.6570  -68.1120   11.8120 O.2   167  PHE167     -0.2718
     91  CB        26.6670  -68.4120    8.6060 C.3   167  PHE167      0.0547
     92  CG        26.7700  -69.8450    9.0510 C.ar  167  PHE167     -0.0202
     93  CD1       28.0060  -70.4180    9.3100 C.ar  167  PHE167     -0.0042
     94  CD2       25.6330  -70.6210    9.1990 C.ar  167  PHE167     -0.0042
     95  CE1       28.1040  -71.7350    9.7160 C.ar  167  PHE167     -0.0003
     96  CE2       25.7240  -71.9380    9.6050 C.ar  167  PHE167     -0.0003
     97  CZ        26.9620  -72.4960    9.8640 C.ar  167  PHE167     -0.0000
     98  N         29.0000  -67.2070   10.2490 N.am  168  THR168     -0.1953
     99  CA        30.1900  -67.3220   11.0840 C.3   168  THR168      0.1897
    100  C         30.0240  -66.5450   12.3850 C.2   168  THR168      0.2313
    101  O         30.2650  -67.0770   13.4740 O.2   168  THR168     -0.2863
    102  CB        31.4120  -66.8280   10.3080 C.3   168  THR168      0.1794
    103  OG1       31.7090  -67.7500    9.2520 O.3   168  THR168     -0.2208
    104  CG2       32.6330  -66.6900   11.2150 C.3   168  THR168      0.0378
@<TRIPOS>BOND
     1    38    37   ar
     2    37    39   ar
     3    37    36    1
     4    35    36    1
     5    35    32    1
     6    33    34    2
     7    33    32    1
     8    32    31    1
     9    57    56    1
    10    78    77    1
    11    42    43    2
    12    42    41    1
    13    50    51    2
    14    50    49    1
    15    40    41    1
    16    52    49    1
    17    52    53    1
    18    77    76   ar
    19    77    75   ar
    20    56    55    2
    21    56    58    1
    22    54    53    1
    23    54    55    1
    24    70    69    2
    25    76    74   ar
    26    86    84   ar
    27    41    44    1
    28    49    48    1
    29    75    73   ar
    30    44    46    1
    31    44    45    1
    32    69    68    1
    33    74    72   ar
    34    84    83    1
    35    84    85   ar
    36    25    24    2
    37    73    72   ar
    38    72    71    1
    39    45    47    1
    40    83    80    1
    41    68    71    1
    42    68    67    1
    43    79    80    1
    44    24    23    1
    45    65    64   ar
    46    62    61    2
    47    66    64   ar
    48    80    81    1
    49    64    63    1
    50    23    26    1
    51    23    22    1
    52    26    27    1
    53    81    82    2
    54    61    60    1
    55    19    18    2
    56    27    28    1
    57    63    60    1
    58    22    18   am
    59    60    59    1
    60    18    17    1
    61    28    30   ar
    62    28    29   ar
    63    21    20    1
    64    20    17    1
    65    91    92    1
    66    91    88    1
    67    17    16    1
    68    92    94   ar
    69    92    93   ar
    70    94    96   ar
    71    87    88    1
    72   103   102    1
    73    93    95   ar
    74    16    14   am
    75    15    14    2
    76    96    97   ar
    77    95    97   ar
    78    88    89    1
    79    14    13    1
    80    98    89   am
    81    98    99    1
    82   102    99    1
    83   102   104    1
    84    13    12    1
    85    89    90    2
    86    99   100    1
    87     9    11   ar
    88     9     7   ar
    89    11    10   ar
    90   100   101    2
    91     7     6   ar
    92    10     8   ar
    93     4     3    2
    94     3     2    1
    95     6     8   ar
    96     6     5    1
    97     5     2    1
    98     2     1    1
