@<TRIPOS>MOLECULE
tmp/5vl9A00.pdb
 117 112 0 0 0
SMALL
GASTEIGER

@<TRIPOS>ATOM
      1  N         -0.3600  -68.4710    7.9710 N.3    60  ILE60      -0.1245
      2  CA         0.7050  -68.1670    8.9240 C.3    60  ILE60       0.1561
      3  C          0.3810  -66.8890    9.6870 C.2    60  ILE60       0.2260
      4  O          0.6090  -66.7990   10.9000 O.2    60  ILE60      -0.2867
      5  CB         2.0610  -68.0690    8.1990 C.3    60  ILE60       0.0252
      6  CG1        2.3880  -69.3850    7.4800 C.3    60  ILE60       0.0019
      7  CG2        3.1730  -67.7150    9.1740 C.3    60  ILE60       0.0019
      8  CD1        2.4850  -70.6010    8.3890 C.3    60  ILE60       0.0001
      9  N         -1.1180  -66.5190   18.4250 N.3    65  GLN65      -0.1245
     10  CA        -0.0420  -66.4750   19.4100 C.3    65  GLN65       0.1566
     11  C          0.0430  -65.1080   20.0760 C.2    65  GLN65       0.2260
     12  O          0.2320  -65.0140   21.2950 O.2    65  GLN65      -0.2867
     13  CB         1.2880  -66.8350   18.7440 C.3    65  GLN65       0.0367
     14  CG         2.4850  -66.8700   19.6930 C.3    65  GLN65       0.0905
     15  CD         3.0140  -65.4890   20.0510 C.2    65  GLN65       0.2608
     16  OE1        3.2000  -65.1690   21.2260 O.2    65  GLN65      -0.2717
     17  NE2        3.2630  -64.6660   19.0380 N.am   65  GLN65      -0.0878
     18  N          6.3300  -67.5380   23.7780 N.3    79  SER79      -0.1202
     19  CA         5.1230  -67.8710   23.0300 C.3    79  SER79       0.2020
     20  C          5.3280  -67.6530   21.5370 C.2    79  SER79       0.2619
     21  O          4.8960  -68.4710   20.7170 O.2    79  SER79      -0.2717
     22  CB         3.9450  -67.0390   23.5420 C.3    79  SER79       0.2103
     23  OG         2.7440  -67.3980   22.8810 O.3    79  SER79      -0.2182
     24  N          5.9970  -66.5610   21.1630 N.am   80  ALA80      -0.1965
     25  CA         6.2410  -66.2710   19.7560 C.3    80  ALA80       0.1728
     26  C          7.2730  -67.2010   19.1310 C.2    80  ALA80       0.2616
     27  O          7.3620  -67.2540   17.9000 O.2    80  ALA80      -0.2715
     28  CB         6.6930  -64.8190   19.5920 C.3    80  ALA80       0.0334
     29  N          8.0420  -67.9300   19.9360 N.am   81  LEU81      -0.1963
     30  CA         9.0660  -68.8440   19.4390 C.3    81  LEU81       0.1728
     31  C          8.6960  -70.3100   19.5820 C.2    81  LEU81       0.2617
     32  O          8.9560  -71.0940   18.6670 O.2    81  LEU81      -0.2715
     33  CB        10.3930  -68.5990   20.1690 C.3    81  LEU81       0.0311
     34  CG        11.1190  -67.2870   19.8690 C.3    81  LEU81       0.0022
     35  CD1       12.2770  -67.0960   20.8340 C.3    81  LEU81       0.0001
     36  CD2       11.6150  -67.2550   18.4310 C.3    81  LEU81       0.0001
     37  N          8.1000  -70.7030   20.7070 N.am   82  GLY82      -0.1940
     38  CA         7.8360  -72.1040   20.9760 C.3    82  GLY82       0.2014
     39  C          6.5710  -72.3440   21.7730 C.2    82  GLY82       0.2639
     40  O          6.5700  -73.1390   22.7170 O.2    82  GLY82      -0.2714
     41  N          5.4860  -71.6650   21.4070 N.am   83  SER83      -0.1949
     42  CA         4.2200  -71.8540   22.1030 C.3    83  SER83       0.1924
     43  C          3.7620  -73.3020   21.9850 C.2    83  SER83       0.2314
     44  O          3.7300  -73.8710   20.8900 O.2    83  SER83      -0.2863
     45  CB         3.1580  -70.9130   21.5340 C.3    83  SER83       0.2116
     46  OG         1.8850  -71.1870   22.0910 O.3    83  SER83      -0.2180
     47  N         -2.1370  -74.3090   17.5990 N.3    88  LEU88      -0.1245
     48  CA        -1.2090  -73.8830   16.5590 C.3    88  LEU88       0.1561
     49  C         -0.7100  -75.0340   15.6970 C.2    88  LEU88       0.2260
     50  O         -0.1770  -74.7870   14.6090 O.2    88  LEU88      -0.2867
     51  CB        -0.0050  -73.1770   17.1850 C.3    88  LEU88       0.0270
     52  CG        -0.3030  -71.9750   18.0820 C.3    88  LEU88       0.0019
     53  CD1        0.9860  -71.4580   18.7040 C.3    88  LEU88       0.0001
     54  CD2       -1.0030  -70.8710   17.3040 C.3    88  LEU88       0.0001
     55  N          1.4050  -75.1420   12.1440 N.3    92  ILE92      -0.1245
     56  CA         2.8120  -75.5250   12.0950 C.3    92  ILE92       0.1561
     57  C          3.0380  -76.5900   11.0290 C.2    92  ILE92       0.2260
     58  O          4.0330  -76.5490   10.2950 O.2    92  ILE92      -0.2867
     59  CB         3.2760  -75.9980   13.4850 C.3    92  ILE92       0.0252
     60  CG1        3.1620  -74.8520   14.4950 C.3    92  ILE92       0.0019
     61  CG2        4.7110  -76.5140   13.4300 C.3    92  ILE92       0.0019
     62  CD1        3.3150  -75.2800   15.9400 C.3    92  ILE92       0.0001
     63  N          3.2430  -75.0230    7.8500 N.3    95  TRP95      -0.1241
     64  CA         4.5040  -74.2950    7.7750 C.3    95  TRP95       0.1605
     65  C          5.6480  -75.2290    7.4000 C.2    95  TRP95       0.2264
     66  O          6.4450  -74.9250    6.5050 O.2    95  TRP95      -0.2867
     67  CB         4.7860  -73.6110    9.1130 C.3    95  TRP95       0.0550
     68  CG         5.4890  -72.2830    9.0170 C.ar   95  TRP95       0.0003
     69  CD1        5.8700  -71.6290    7.8800 C.ar   95  TRP95       0.0946
     70  CD2        5.8800  -71.4440   10.1110 C.ar   95  TRP95       0.0152
     71  NE1        6.4760  -70.4380    8.1990 N.ar   95  TRP95      -0.2442
     72  CE2        6.4940  -70.3000    9.5630 C.ar   95  TRP95       0.0810
     73  CE3        5.7730  -71.5490   11.5020 C.ar   95  TRP95       0.0012
     74  CZ2        6.9980  -69.2720   10.3540 C.ar   95  TRP95       0.0191
     75  CZ3        6.2780  -70.5280   12.2860 C.ar   95  TRP95       0.0001
     76  CH2        6.8790  -69.4030   11.7110 C.ar   95  TRP95       0.0015
     77  N          7.9940  -63.4260   11.0800 N.3   118  TRP118     -0.1241
     78  CA         8.3760  -64.0110   12.3590 C.3   118  TRP118      0.1605
     79  C          9.5020  -63.2130   13.0010 C.2   118  TRP118      0.2264
     80  O          9.4480  -62.8810   14.1900 O.2   118  TRP118     -0.2867
     81  CB         8.7940  -65.4670   12.1500 C.3   118  TRP118      0.0550
     82  CG         8.8140  -66.3070   13.3930 C.ar  118  TRP118      0.0003
     83  CD1        8.3370  -65.9690   14.6270 C.ar  118  TRP118      0.0946
     84  CD2        9.3400  -67.6340   13.5150 C.ar  118  TRP118      0.0152
     85  NE1        8.5310  -67.0060   15.5080 N.ar  118  TRP118     -0.2442
     86  CE2        9.1470  -68.0380   14.8500 C.ar  118  TRP118      0.0810
     87  CE3        9.9540  -68.5190   12.6240 C.ar  118  TRP118      0.0012
     88  CZ2        9.5470  -69.2890   15.3160 C.ar  118  TRP118      0.0191
     89  CZ3       10.3500  -69.7600   13.0880 C.ar  118  TRP118      0.0001
     90  CH2       10.1460  -70.1330   14.4210 C.ar  118  TRP118      0.0015
     91  N          8.3970  -59.8610   14.5550 N.3   121  GLU121     -0.1245
     92  CA         7.7220  -59.9700   15.8440 C.3   121  GLU121      0.1567
     93  C          8.7160  -60.2470   16.9650 C.2   121  GLU121      0.2260
     94  O          8.6070  -59.6690   18.0530 O.2   121  GLU121     -0.2867
     95  CB         6.6550  -61.0630   15.7890 C.3   121  GLU121      0.0388
     96  CG         5.8520  -61.2250   17.0770 C.3   121  GLU121      0.1160
     97  CD         5.0430  -59.9880   17.4340 C.2   121  GLU121      0.3649
     98  OE1        4.9930  -59.0460   16.6160 O.co2 121  GLU121     -0.2457
     99  OE2        4.4540  -59.9600   18.5350 O.co2 121  GLU121     -0.2457
    100  N         15.0210  -72.5510   16.9270 N.3   152  VAL152     -0.1245
    101  CA        13.7020  -73.1760   16.8620 C.3   152  VAL152      0.1561
    102  C         13.5780  -74.0280   15.6050 C.2   152  VAL152      0.2260
    103  O         13.1970  -75.2030   15.6660 O.2   152  VAL152     -0.2867
    104  CB        12.6010  -72.1000   16.9310 C.3   152  VAL152      0.0252
    105  CG1       11.2380  -72.6910   16.6110 C.3   152  VAL152      0.0019
    106  CG2       12.5850  -71.4610   18.3080 C.3   152  VAL152      0.0019
    107  N         12.6250  -79.8330   23.7750 N.3   170  PHE170     -0.1241
    108  CA        12.4780  -78.6330   22.9550 C.3   170  PHE170      0.1605
    109  C         12.2280  -77.4050   23.8220 C.2   170  PHE170      0.2264
    110  O         12.9020  -76.3790   23.6820 O.2   170  PHE170     -0.2867
    111  CB        11.3350  -78.8320   21.9570 C.3   170  PHE170      0.0534
    112  CG        11.2650  -77.7780   20.8860 C.ar  170  PHE170     -0.0203
    113  CD1       10.7230  -76.5310   21.1530 C.ar  170  PHE170     -0.0042
    114  CD2       11.7240  -78.0430   19.6070 C.ar  170  PHE170     -0.0042
    115  CE1       10.6540  -75.5660   20.1670 C.ar  170  PHE170     -0.0003
    116  CE2       11.6560  -77.0820   18.6180 C.ar  170  PHE170     -0.0003
    117  CZ        11.1210  -75.8440   18.8980 C.ar  170  PHE170     -0.0000
@<TRIPOS>BOND
     1    66    65    2
     2    65    64    1
     3     6     5    1
     4     6     8    1
     5    64    63    1
     6    64    67    1
     7    69    71   ar
     8    69    68   ar
     9     1     2    1
    10     5     2    1
    11     5     7    1
    12    71    72   ar
    13     2     3    1
    14    68    67    1
    15    68    70   ar
    16    72    70   ar
    17    72    74   ar
    18     3     4    2
    19    70    73   ar
    20    58    57    2
    21    74    76   ar
    22    57    56    1
    23    77    78    1
    24    73    75   ar
    25    76    75   ar
    26    56    55    1
    27    56    59    1
    28    81    78    1
    29    81    82    1
    30    78    79    1
    31    87    89   ar
    32    87    84   ar
    33    79    80    2
    34    89    90   ar
    35    82    84   ar
    36    82    83   ar
    37    61    59    1
    38    59    60    1
    39    84    86   ar
    40    90    88   ar
    41    60    62    1
    42    91    92    1
    43    50    49    2
    44    83    85   ar
    45    86    88   ar
    46    86    85   ar
    47   102   103    2
    48   102   101    1
    49    49    48    1
    50    95    92    1
    51    95    96    1
    52    92    93    1
    53    48    51    1
    54    48    47    1
    55   105   104    1
    56    98    97   ar
    57   101   100    1
    58   101   104    1
    59   104   106    1
    60    93    94    2
    61    96    97    1
    62    51    52    1
    63    54    52    1
    64    97    99   ar
    65    27    26    2
    66    52    53    1
    67     9    10    1
    68    36    34    1
    69   116   117   ar
    70   116   114   ar
    71    32    31    2
    72    13    10    1
    73    13    14    1
    74   117   115   ar
    75    17    15   am
    76    26    25    1
    77    26    29   am
    78    10    11    1
    79    30    31    1
    80    30    29    1
    81    30    33    1
    82    31    37   am
    83    28    25    1
    84   114   112   ar
    85    14    15    1
    86    25    24    1
    87    34    33    1
    88    34    35    1
    89    15    16    2
    90    11    12    2
    91   115   113   ar
    92    37    38    1
    93    21    20    2
    94   112   113   ar
    95   112   111    1
    96    44    43    2
    97    38    39    1
    98    24    20   am
    99    41    39   am
   100    41    42    1
   101    45    46    1
   102    45    42    1
   103    20    19    1
   104    39    40    2
   105   111   108    1
   106    43    42    1
   107    23    22    1
   108   108   107    1
   109   108   109    1
   110    19    22    1
   111    19    18    1
   112   110   109    2
