@<TRIPOS>MOLECULE
tmp/5vl9A01.pdb
 112 109 0 0 0
SMALL
GASTEIGER

@<TRIPOS>ATOM
      1  N          8.0420  -67.9300   19.9360 N.3    81  LEU81      -0.1231
      2  CA         9.0660  -68.8440   19.4390 C.3    81  LEU81       0.1693
      3  C          8.6960  -70.3100   19.5820 C.2    81  LEU81       0.2592
      4  O          8.9560  -71.0940   18.6670 O.2    81  LEU81      -0.2718
      5  CB        10.3930  -68.5990   20.1690 C.3    81  LEU81       0.0284
      6  CG        11.1190  -67.2870   19.8690 C.3    81  LEU81       0.0019
      7  CD1       12.2770  -67.0960   20.8340 C.3    81  LEU81       0.0001
      8  CD2       11.6150  -67.2550   18.4310 C.3    81  LEU81       0.0001
      9  N          8.1000  -70.7030   20.7070 N.am   82  GLY82      -0.1957
     10  CA         7.8360  -72.1040   20.9760 C.3    82  GLY82       0.1869
     11  C          6.5710  -72.3440   21.7730 C.2    82  GLY82       0.2309
     12  O          6.5700  -73.1390   22.7170 O.2    82  GLY82      -0.2863
     13  N          1.4050  -75.1420   12.1440 N.3    92  ILE92      -0.1245
     14  CA         2.8120  -75.5250   12.0950 C.3    92  ILE92       0.1561
     15  C          3.0380  -76.5900   11.0290 C.2    92  ILE92       0.2260
     16  O          4.0330  -76.5490   10.2950 O.2    92  ILE92      -0.2867
     17  CB         3.2760  -75.9980   13.4850 C.3    92  ILE92       0.0252
     18  CG1        3.1620  -74.8520   14.4950 C.3    92  ILE92       0.0019
     19  CG2        4.7110  -76.5140   13.4300 C.3    92  ILE92       0.0019
     20  CD1        3.3150  -75.2800   15.9400 C.3    92  ILE92       0.0001
     21  N          3.2430  -75.0230    7.8500 N.3    95  TRP95      -0.1227
     22  CA         4.5040  -74.2950    7.7750 C.3    95  TRP95       0.1737
     23  C          5.6480  -75.2290    7.4000 C.2    95  TRP95       0.2595
     24  O          6.4450  -74.9250    6.5050 O.2    95  TRP95      -0.2718
     25  CB         4.7860  -73.6110    9.1130 C.3    95  TRP95       0.0564
     26  CG         5.4890  -72.2830    9.0170 C.ar   95  TRP95       0.0003
     27  CD1        5.8700  -71.6290    7.8800 C.ar   95  TRP95       0.0946
     28  CD2        5.8800  -71.4440   10.1110 C.ar   95  TRP95       0.0152
     29  NE1        6.4760  -70.4380    8.1990 N.ar   95  TRP95      -0.2442
     30  CE2        6.4940  -70.3000    9.5630 C.ar   95  TRP95       0.0810
     31  CE3        5.7730  -71.5490   11.5020 C.ar   95  TRP95       0.0012
     32  CZ2        6.9980  -69.2720   10.3540 C.ar   95  TRP95       0.0191
     33  CZ3        6.2780  -70.5280   12.2860 C.ar   95  TRP95       0.0001
     34  CH2        6.8790  -69.4030   11.7110 C.ar   95  TRP95       0.0015
     35  N          5.7510  -76.3730    8.0850 N.am   96  ARG96      -0.1980
     36  CA         6.7710  -77.3550    7.7310 C.3    96  ARG96       0.1597
     37  C          6.6410  -77.7760    6.2740 C.2    96  ARG96       0.2287
     38  O          7.6440  -77.8950    5.5590 O.2    96  ARG96      -0.2864
     39  CB         6.6670  -78.5820    8.6370 C.3    96  ARG96       0.0334
     40  CG         6.8950  -78.3180   10.1120 C.3    96  ARG96       0.0492
     41  CD         7.1820  -79.6240   10.8340 C.3    96  ARG96       0.2205
     42  NE         7.2780  -79.4610   12.2820 N.pl3  96  ARG96      -0.0865
     43  CZ         6.3270  -79.7850   13.1560 C.cat  96  ARG96       0.5346
     44  NH1        5.1750  -80.3040   12.7520 N.pl3  96  ARG96       0.1354
     45  NH2        6.5340  -79.5930   14.4510 N.pl3  96  ARG96       0.1354
     46  N          8.1560  -75.2910    3.9380 N.3    99  GLN99      -0.1245
     47  CA         9.6150  -75.2840    3.9520 C.3    99  GLN99       0.1566
     48  C         10.1740  -76.2680    2.9330 C.2    99  GLN99       0.2260
     49  O         11.1490  -75.9640    2.2360 O.2    99  GLN99      -0.2867
     50  CB        10.1290  -75.6180    5.3520 C.3    99  GLN99       0.0367
     51  CG        11.6350  -75.4660    5.5080 C.3    99  GLN99       0.0905
     52  CD        12.1280  -75.9070    6.8710 C.2    99  GLN99       0.2608
     53  OE1       11.4770  -76.6960    7.5560 O.2    99  GLN99      -0.2717
     54  NE2       13.2860  -75.3960    7.2730 N.am   99  GLN99      -0.0878
     55  N          7.4290  -68.4080    1.7670 N.3   112  TYR112     -0.1241
     56  CA         8.0790  -68.8880    2.9820 C.3   112  TYR112      0.1605
     57  C          9.1040  -67.8800    3.4820 C.2   112  TYR112      0.2264
     58  O          9.2150  -67.6370    4.6900 O.2   112  TYR112     -0.2867
     59  CB         8.7380  -70.2410    2.7170 C.3   112  TYR112      0.0534
     60  CG         9.3510  -70.8670    3.9420 C.ar  112  TYR112     -0.0201
     61  CD1        8.5790  -71.6130    4.8230 C.ar  112  TYR112     -0.0009
     62  CD2       10.7030  -70.7150    4.2220 C.ar  112  TYR112     -0.0009
     63  CE1        9.1350  -72.1890    5.9480 C.ar  112  TYR112      0.0417
     64  CE2       11.2680  -71.2890    5.3460 C.ar  112  TYR112      0.0417
     65  CZ        10.4790  -72.0250    6.2040 C.ar  112  TYR112      0.1957
     66  OH        11.0340  -72.5970    7.3250 O.3   112  TYR112     -0.2866
     67  N          7.9940  -63.4260   11.0800 N.3   118  TRP118     -0.1241
     68  CA         8.3760  -64.0110   12.3590 C.3   118  TRP118      0.1605
     69  C          9.5020  -63.2130   13.0010 C.2   118  TRP118      0.2264
     70  O          9.4480  -62.8810   14.1900 O.2   118  TRP118     -0.2867
     71  CB         8.7940  -65.4670   12.1500 C.3   118  TRP118      0.0550
     72  CG         8.8140  -66.3070   13.3930 C.ar  118  TRP118      0.0003
     73  CD1        8.3370  -65.9690   14.6270 C.ar  118  TRP118      0.0946
     74  CD2        9.3400  -67.6340   13.5150 C.ar  118  TRP118      0.0152
     75  NE1        8.5310  -67.0060   15.5080 N.ar  118  TRP118     -0.2442
     76  CE2        9.1470  -68.0380   14.8500 C.ar  118  TRP118      0.0810
     77  CE3        9.9540  -68.5190   12.6240 C.ar  118  TRP118      0.0012
     78  CZ2        9.5470  -69.2890   15.3160 C.ar  118  TRP118      0.0191
     79  CZ3       10.3500  -69.7600   13.0880 C.ar  118  TRP118      0.0001
     80  CH2       10.1460  -70.1330   14.4210 C.ar  118  TRP118      0.0015
     81  N         15.0210  -72.5510   16.9270 N.3   152  VAL152     -0.1231
     82  CA        13.7020  -73.1760   16.8620 C.3   152  VAL152      0.1692
     83  C         13.5780  -74.0280   15.6050 C.2   152  VAL152      0.2592
     84  O         13.1970  -75.2030   15.6660 O.2   152  VAL152     -0.2718
     85  CB        12.6010  -72.1000   16.9310 C.3   152  VAL152      0.0266
     86  CG1       11.2380  -72.6910   16.6110 C.3   152  VAL152      0.0020
     87  CG2       12.5850  -71.4610   18.3080 C.3   152  VAL152      0.0020
     88  N         13.8860  -73.4460   14.4440 N.am  153  CYS153     -0.1970
     89  CA        13.7780  -74.1910   13.1930 C.3   153  CYS153      0.1712
     90  C         14.6860  -75.4160   13.1970 C.2   153  CYS153      0.2296
     91  O         14.2850  -76.4970   12.7500 O.2   153  CYS153     -0.2864
     92  CB        14.1130  -73.2810   12.0100 C.3   153  CYS153      0.0983
     93  SG        12.9240  -71.9390   11.7370 S.3   153  CYS153     -0.0798
     94  N         13.2660  -78.0640   15.6380 N.3   156  ASP156     -0.1239
     95  CA        12.0590  -78.6660   15.0820 C.3   156  ASP156      0.1674
     96  C         12.4060  -79.7110   14.0310 C.2   156  ASP156      0.2266
     97  O         11.7590  -80.7620   13.9520 O.2   156  ASP156     -0.2867
     98  CB        11.1580  -77.5870   14.4840 C.3   156  ASP156      0.1410
     99  CG         9.8190  -78.1360   14.0340 C.2   156  ASP156      0.3668
    100  OD1        8.9770  -78.4390   14.9040 O.co2 156  ASP156     -0.2456
    101  OD2        9.6090  -78.2700   12.8100 O.co2 156  ASP156     -0.2456
    102  N         12.6250  -79.8330   23.7750 N.3   170  PHE170     -0.1241
    103  CA        12.4780  -78.6330   22.9550 C.3   170  PHE170      0.1605
    104  C         12.2280  -77.4050   23.8220 C.2   170  PHE170      0.2264
    105  O         12.9020  -76.3790   23.6820 O.2   170  PHE170     -0.2867
    106  CB        11.3350  -78.8320   21.9570 C.3   170  PHE170      0.0534
    107  CG        11.2650  -77.7780   20.8860 C.ar  170  PHE170     -0.0203
    108  CD1       10.7230  -76.5310   21.1530 C.ar  170  PHE170     -0.0042
    109  CD2       11.7240  -78.0430   19.6070 C.ar  170  PHE170     -0.0042
    110  CE1       10.6540  -75.5660   20.1670 C.ar  170  PHE170     -0.0003
    111  CE2       11.6560  -77.0820   18.6180 C.ar  170  PHE170     -0.0003
    112  CZ        11.1210  -75.8440   18.8980 C.ar  170  PHE170     -0.0000
@<TRIPOS>BOND
     1    55    56    1
     2    49    48    2
     3    59    56    1
     4    59    60    1
     5    48    47    1
     6    56    57    1
     7    57    58    2
     8    46    47    1
     9    60    62   ar
    10    60    61   ar
    11    47    50    1
    12    62    64   ar
    13    61    63   ar
    14    64    65   ar
    15    50    51    1
    16    51    52    1
    17    38    37    2
    18    63    65   ar
    19    65    66    1
    20    37    36    1
    21    24    23    2
    22    52    54   am
    23    52    53    2
    24    23    22    1
    25    23    35   am
    26    36    35    1
    27    36    39    1
    28    22    21    1
    29    22    25    1
    30    27    29   ar
    31    27    26   ar
    32    29    30   ar
    33    39    40    1
    34    26    25    1
    35    26    28   ar
    36    30    28   ar
    37    30    32   ar
    38    28    31   ar
    39    40    41    1
    40    16    15    2
    41    32    34   ar
    42    41    42    1
    43    15    14    1
    44    67    68    1
    45    31    33   ar
    46    34    33   ar
    47    93    92    1
    48    92    89    1
    49    14    13    1
    50    14    17    1
    51    71    68    1
    52    71    72    1
    53    42    43    2
    54    68    69    1
    55    77    79   ar
    56    77    74   ar
    57    91    90    2
    58    44    43    1
    59   101    99   ar
    60    69    70    2
    61    79    80   ar
    62    43    45    1
    63    89    90    1
    64    89    88    1
    65    72    74   ar
    66    72    73   ar
    67    19    17    1
    68    17    18    1
    69    74    76   ar
    70    97    96    2
    71    96    95    1
    72    99    98    1
    73    99   100   ar
    74    80    78   ar
    75    88    83   am
    76    98    95    1
    77    18    20    1
    78    73    75   ar
    79    76    78   ar
    80    76    75   ar
    81    95    94    1
    82    83    84    2
    83    83    82    1
    84    86    85    1
    85    82    81    1
    86    82    85    1
    87    85    87    1
    88     8     6    1
    89   111   112   ar
    90   111   109   ar
    91     4     3    2
    92   112   110   ar
    93     2     3    1
    94     2     1    1
    95     2     5    1
    96     3     9   am
    97   109   107   ar
    98     6     5    1
    99     6     7    1
   100   110   108   ar
   101     9    10    1
   102   107   108   ar
   103   107   106    1
   104    10    11    1
   105    11    12    2
   106   106   103    1
   107   103   102    1
   108   103   104    1
   109   105   104    2
