@<TRIPOS>MOLECULE
tmp/5vlbF00.pdb
 70 68 0 0 0
SMALL
GASTEIGER

@<TRIPOS>ATOM
      1  N          1.9420   66.3540   46.1020 N.3   119  ASN119     -0.1225
      2  CA         2.9610   65.4780   46.6280 C.3   119  ASN119      0.1785
      3  C          2.4340   64.1670   47.1500 C.2   119  ASN119      0.2597
      4  O          3.0880   63.1490   46.9750 O.2   119  ASN119     -0.2718
      5  CB         3.7790   66.1770   47.7170 C.3   119  ASN119      0.1169
      6  CG         4.9320   65.3070   48.2120 C.2   119  ASN119      0.2627
      7  OD1        6.0270   65.3280   47.6460 O.2   119  ASN119     -0.2716
      8  ND2        4.6820   64.5100   49.2510 N.am  119  ASN119     -0.0877
      9  N          1.3050   64.2070   47.8530 N.am  120  SER120     -0.1952
     10  CA         0.6340   63.0170   48.2870 C.3   120  SER120      0.1924
     11  C         -0.8820   63.0780   48.0970 C.2   120  SER120      0.2314
     12  O         -1.5610   64.0930   48.3890 O.2   120  SER120     -0.2863
     13  CB         1.0770   62.5620   49.7080 C.3   120  SER120      0.2116
     14  OG         0.7000   63.4080   50.7190 O.3   120  SER120     -0.2180
     15  N          3.6700   60.1000   47.0150 N.3   150  THR150     -0.1218
     16  CA         2.8710   59.2130   47.8350 C.3   150  THR150      0.1862
     17  C          1.4380   59.1170   47.2710 C.2   150  THR150      0.2287
     18  O          0.7410   60.1280   47.0940 O.2   150  THR150     -0.2866
     19  CB         2.8520   59.7170   49.2850 C.3   150  THR150      0.1770
     20  OG1        4.1840   59.8950   49.7320 O.3   150  THR150     -0.2211
     21  CG2        2.1660   58.7830   50.2060 C.3   150  THR150      0.0375
     22  N         -3.7170   61.5270   58.4010 N.3   194  GLY194     -0.1210
     23  CA        -2.5870   60.6010   58.6060 C.3   194  GLY194      0.1956
     24  C         -2.7530   59.8490   59.9100 C.2   194  GLY194      0.2613
     25  O         -3.5130   60.2740   60.7640 O.2   194  GLY194     -0.2717
     26  N         -2.0760   58.7070   60.0340 N.am  195  THR195     -0.1938
     27  CA        -2.0240   57.9490   61.2890 C.3   195  THR195      0.2028
     28  C         -0.5670   57.5630   61.5830 C.2   195  THR195      0.2642
     29  O          0.3720   58.0870   60.9510 O.2   195  THR195     -0.2714
     30  CB        -2.9120   56.6830   61.2390 C.3   195  THR195      0.1808
     31  OG1       -2.3360   55.6970   60.3650 O.3   195  THR195     -0.2208
     32  CG2       -4.3010   57.0020   60.7610 C.3   195  THR195      0.0379
     33  N         -0.3880   56.6590   62.5520 N.am  196  GLU196     -0.1963
     34  CA         0.9150   56.1420   62.9000 C.3   196  GLU196      0.1733
     35  C          1.4820   55.4560   61.6660 C.2   196  GLU196      0.2617
     36  O          2.6900   55.5370   61.4340 O.2   196  GLU196     -0.2715
     37  CB         0.8550   55.1330   64.0850 C.3   196  GLU196      0.0429
     38  CG         0.2200   55.6580   65.3810 C.3   196  GLU196      0.1163
     39  CD        -1.2920   55.4020   65.5020 C.2   196  GLU196      0.3649
     40  OE1       -2.0020   55.3830   64.4680 O.co2 196  GLU196     -0.2457
     41  OE2       -1.7880   55.2160   66.6400 O.co2 196  GLU196     -0.2457
     42  N          0.6170   54.7940   60.8780 N.am  197  THR197     -0.1937
     43  CA         1.0540   54.1190   59.6490 C.3   197  THR197      0.2028
     44  C          0.5660   54.7260   58.3210 C.2   197  THR197      0.2642
     45  O          1.2500   54.5740   57.3110 O.2   197  THR197     -0.2714
     46  CB         0.6590   52.6280   59.6620 C.3   197  THR197      0.1808
     47  OG1       -0.7680   52.4870   59.7320 O.3   197  THR197     -0.2208
     48  CG2        1.3200   51.8960   60.8390 C.3   197  THR197      0.0379
     49  N         -0.6050   55.3650   58.2930 N.am  198  CYS198     -0.1954
     50  CA        -1.1500   55.8880   57.0370 C.3   198  CYS198      0.1828
     51  C         -0.5560   57.2530   56.7420 C.2   198  CYS198      0.2467
     52  O         -0.7480   58.1840   57.5500 O.2   198  CYS198     -0.2730
     53  CB        -2.6660   56.0280   57.1010 C.3   198  CYS198      0.0996
     54  SG        -3.3450   56.3990   55.4670 S.3   198  CYS198     -0.0797
     55  N          0.1460   57.4040   55.6000 N.am  199  PRO199     -0.2715
     56  CA         0.5870   58.7620   55.2710 C.3   199  PRO199      0.1536
     57  C         -0.5680   59.8080   55.2080 C.2   199  PRO199      0.2598
     58  O         -1.6990   59.4780   54.8440 O.2   199  PRO199     -0.2715
     59  CB         1.2490   58.6050   53.8860 C.3   199  PRO199      0.0310
     60  CG         1.5070   57.1590   53.7250 C.3   199  PRO199      0.0237
     61  CD         0.4290   56.4670   54.5070 C.3   199  PRO199      0.0939
     62  N         -0.2780   61.0370   55.6230 N.am  200  LYS200     -0.1978
     63  CA        -1.1770   62.1730   55.3850 C.3   200  LYS200      0.1596
     64  C         -1.1500   62.5910   53.8730 C.2   200  LYS200      0.2287
     65  O         -0.0630   62.8100   53.2890 O.2   200  LYS200     -0.2864
     66  CB        -0.7810   63.3370   56.2890 C.3   200  LYS200      0.0298
     67  CG        -1.7740   64.4990   56.3120 C.3   200  LYS200      0.0038
     68  CD        -1.4170   65.5590   55.2850 C.3   200  LYS200      0.0206
     69  CE        -2.2400   66.8170   55.4630 C.3   200  LYS200      0.1093
     70  NZ        -3.6330   66.6510   54.9680 N.3   200  LYS200     -0.1314
@<TRIPOS>BOND
     1     1     2    1
     2     2     3    1
     3     2     5    1
     4     4     3    2
     5    15    16    1
     6    18    17    2
     7     3     9   am
     8    17    16    1
     9     7     6    2
    10     5     6    1
    11    16    19    1
    12     9    10    1
    13    11    10    1
    14    11    12    2
    15     6     8   am
    16    10    13    1
    17    19    20    1
    18    19    21    1
    19    13    14    1
    20    65    64    2
    21    60    59    1
    22    60    61    1
    23    64    63    1
    24    59    56    1
    25    61    55    1
    26    58    57    2
    27    70    69    1
    28    57    56    1
    29    57    62   am
    30    56    55    1
    31    68    69    1
    32    68    67    1
    33    63    62    1
    34    63    66    1
    35    54    53    1
    36    55    51   am
    37    66    67    1
    38    51    50    1
    39    51    52    2
    40    50    53    1
    41    50    49    1
    42    45    44    2
    43    49    44   am
    44    44    43    1
    45    22    23    1
    46    23    24    1
    47    43    46    1
    48    43    42    1
    49    46    47    1
    50    46    48    1
    51    24    26   am
    52    24    25    2
    53    26    27    1
    54    31    30    1
    55    32    30    1
    56    42    35   am
    57    29    28    2
    58    30    27    1
    59    27    28    1
    60    36    35    2
    61    28    33   am
    62    35    34    1
    63    33    34    1
    64    34    37    1
    65    37    38    1
    66    40    39   ar
    67    38    39    1
    68    39    41   ar
