@<TRIPOS>MOLECULE
tmp/5vldF00.pdb
 108 102 0 0 0
SMALL
GASTEIGER

@<TRIPOS>ATOM
      1  N         -7.0280   46.4410   37.1210 N.3   133  LEU133     -0.1245
      2  CA        -6.8050   47.2530   35.9260 C.3   133  LEU133      0.1561
      3  C         -5.3260   47.5480   35.6200 C.2   133  LEU133      0.2260
      4  O         -4.8750   48.6610   35.7960 O.2   133  LEU133     -0.2867
      5  CB        -7.5970   48.5640   36.0530 C.3   133  LEU133      0.0270
      6  CG        -9.1140   48.4610   36.2320 C.3   133  LEU133      0.0019
      7  CD1       -9.7040   49.8510   36.3240 C.3   133  LEU133      0.0001
      8  CD2       -9.8270   47.6970   35.1220 C.3   133  LEU133      0.0001
      9  N         -4.1000   48.0290   32.7750 N.3   135  SER135     -0.1217
     10  CA        -4.0870   49.0580   31.7640 C.3   135  SER135      0.1889
     11  C         -3.7360   50.4170   32.4030 C.2   135  SER135      0.2288
     12  O         -2.8760   51.1370   31.9420 O.2   135  SER135     -0.2866
     13  CB        -5.4370   49.1090   31.0470 C.3   135  SER135      0.2089
     14  OG        -6.5260   49.1020   31.9650 O.3   135  SER135     -0.2183
     15  N         -7.3740   56.8270   38.4650 N.3   208  PRO208     -0.2116
     16  CA        -8.8140   56.6870   38.5890 C.3   208  PRO208      0.1372
     17  C         -9.1870   55.7970   39.7200 C.2   208  PRO208      0.2244
     18  O         -8.3620   55.0520   40.2460 O.2   208  PRO208     -0.2868
     19  CB        -9.1940   55.9950   37.3020 C.3   208  PRO208      0.0268
     20  CG        -8.0160   55.1070   36.9960 C.3   208  PRO208      0.0207
     21  CD        -6.8050   55.8000   37.5750 C.3   208  PRO208      0.0892
     22  N        -13.3610   59.6580   38.2740 N.3   234  GLY234     -0.1225
     23  CA       -14.2590   58.7370   38.9260 C.3   234  GLY234      0.1811
     24  C        -14.8550   57.6930   37.9990 C.2   234  GLY234      0.2280
     25  O        -14.2980   57.3870   36.9900 O.2   234  GLY234     -0.2866
     26  N        -16.5530   55.4680   35.3300 N.3   236  SER236     -0.1217
     27  CA       -16.4740   55.6400   33.8860 C.3   236  SER236      0.1889
     28  C        -17.8010   56.0850   33.2570 C.2   236  SER236      0.2288
     29  O        -18.8610   55.6960   33.7180 O.2   236  SER236     -0.2866
     30  CB       -15.9530   54.3580   33.2240 C.3   236  SER236      0.2089
     31  OG       -14.6370   54.0420   33.6910 O.3   236  SER236     -0.2183
     32  N        -18.6600   50.2880   28.6910 N.3   258  GLN258     -0.1245
     33  CA       -18.3800   51.0430   29.9060 C.3   258  GLN258      0.1566
     34  C        -19.4460   50.8670   30.9980 C.2   258  GLN258      0.2260
     35  O        -19.1370   51.0410   32.1850 O.2   258  GLN258     -0.2867
     36  CB       -18.1420   52.5200   29.6020 C.3   258  GLN258      0.0367
     37  CG       -17.0540   52.7880   28.5580 C.3   258  GLN258      0.0905
     38  CD       -15.7940   51.9120   28.6480 C.2   258  GLN258      0.2608
     39  OE1      -15.1480   51.7530   29.6990 O.2   258  GLN258     -0.2717
     40  NE2      -15.4340   51.3270   27.5140 N.am  258  GLN258     -0.0878
     41  N        -18.3930   48.5860   33.9390 N.3   261  HIS261     -0.1241
     42  CA       -17.3700   48.9850   34.9110 C.3   261  HIS261      0.1621
     43  C        -17.9080   48.9370   36.3400 C.2   261  HIS261      0.2264
     44  O        -17.2050   48.5280   37.2570 O.2   261  HIS261     -0.2867
     45  CB       -16.8160   50.3940   34.6340 C.3   261  HIS261      0.0745
     46  CG       -15.6330   50.4310   33.7190 C.ar  261  HIS261      0.0817
     47  ND1      -14.4170   49.8870   34.0530 N.ar  261  HIS261     -0.2268
     48  CD2      -15.4850   50.9520   32.4780 C.ar  261  HIS261      0.1154
     49  CE1      -13.5680   50.0690   33.0580 C.ar  261  HIS261      0.1986
     50  NE2      -14.1910   50.7140   32.0870 N.ar  261  HIS261     -0.2212
     51  N        -16.7010   61.9320   29.7540 N.3   326  GLU326     -0.1231
     52  CA       -15.3780   61.4360   29.8930 C.3   326  GLU326      0.1699
     53  C        -14.8950   60.9420   28.5500 C.2   326  GLU326      0.2592
     54  O        -13.7740   61.2800   28.1020 O.2   326  GLU326     -0.2718
     55  CB       -15.3740   60.3010   30.8960 C.3   326  GLU326      0.0402
     56  CG       -13.9940   59.9080   31.3520 C.3   326  GLU326      0.1161
     57  CD       -13.9180   58.4960   31.8470 C.2   326  GLU326      0.3649
     58  OE1      -14.9670   57.8490   31.9950 O.co2 326  GLU326     -0.2457
     59  OE2      -12.7900   58.0290   32.0910 O.co2 326  GLU326     -0.2457
     60  N        -15.7450   60.1410   27.9020 N.am  327  HIS327     -0.1976
     61  CA       -15.4770   59.5750   26.5530 C.3   327  HIS327      0.1656
     62  C        -16.6280   59.8680   25.6010 C.2   327  HIS327      0.2291
     63  O        -17.7650   59.8060   25.9990 O.2   327  HIS327     -0.2864
     64  CB       -15.3620   58.0590   26.5760 C.3   327  HIS327      0.0771
     65  CG       -14.3520   57.5260   27.5280 C.ar  327  HIS327      0.0820
     66  ND1      -14.6680   57.1590   28.8150 N.ar  327  HIS327     -0.2267
     67  CD2      -13.0280   57.2970   27.3800 C.ar  327  HIS327      0.1154
     68  CE1      -13.5800   56.7250   29.4210 C.ar  327  HIS327      0.1986
     69  NE2      -12.5690   56.7970   28.5740 N.ar  327  HIS327     -0.2212
     70  N        -14.4700   52.5140   22.1160 N.3   356  GLU356     -0.1245
     71  CA       -13.7220   53.0740   23.2380 C.3   356  GLU356      0.1567
     72  C        -12.6370   52.1160   23.7370 C.2   356  GLU356      0.2260
     73  O        -11.5510   52.5550   24.1490 O.2   356  GLU356     -0.2867
     74  CB       -14.6410   53.4930   24.3950 C.3   356  GLU356      0.0388
     75  CG       -13.8610   53.8160   25.6590 C.3   356  GLU356      0.1160
     76  CD       -14.6600   54.4040   26.7820 C.2   356  GLU356      0.3649
     77  OE1      -15.7970   54.8600   26.5530 O.co2 356  GLU356     -0.2457
     78  OE2      -14.1200   54.3990   27.9100 O.co2 356  GLU356     -0.2457
     79  N         -9.2000   52.5870   25.8400 N.3   360  ASP360     -0.1225
     80  CA        -9.1260   52.0350   27.1960 C.3   360  ASP360      0.1805
     81  C         -7.8120   51.2360   27.3680 C.2   360  ASP360      0.2597
     82  O         -7.2530   51.2430   28.4620 O.2   360  ASP360     -0.2718
     83  CB       -10.3280   51.1280   27.5190 C.3   360  ASP360      0.1424
     84  CG       -11.5950   51.8910   27.9210 C.2   360  ASP360      0.3668
     85  OD1      -11.6350   53.1390   27.8730 O.co2 360  ASP360     -0.2456
     86  OD2      -12.6010   51.2360   28.3040 O.co2 360  ASP360     -0.2456
     87  N         -7.3430   50.5690   26.3000 N.am  361  TYR361     -0.1976
     88  CA        -6.2800   49.5440   26.3880 C.3   361  TYR361      0.1639
     89  C         -4.9480   49.8420   25.7120 C.2   361  TYR361      0.2290
     90  O         -3.8910   49.6680   26.3390 O.2   361  TYR361     -0.2864
     91  CB        -6.8230   48.1790   25.9220 C.3   361  TYR361      0.0560
     92  CG        -7.7040   47.6050   26.9970 C.ar  361  TYR361     -0.0198
     93  CD1       -7.1490   47.0730   28.1550 C.ar  361  TYR361     -0.0009
     94  CD2       -9.0960   47.5910   26.8660 C.ar  361  TYR361     -0.0009
     95  CE1       -7.9470   46.5430   29.1540 C.ar  361  TYR361      0.0417
     96  CE2       -9.9100   47.0610   27.8640 C.ar  361  TYR361      0.0417
     97  CZ        -9.3270   46.5370   29.0090 C.ar  361  TYR361      0.1957
     98  OH       -10.1340   46.0120   29.9960 O.3   361  TYR361     -0.2866
     99  N         -6.2950   56.8590   29.2370 N.3   367  HIS367     -0.1241
    100  CA        -7.6690   56.6310   29.6910 C.3   367  HIS367      0.1621
    101  C         -8.0200   57.2510   31.0650 C.2   367  HIS367      0.2264
    102  O         -9.1660   57.1780   31.4720 O.2   367  HIS367     -0.2867
    103  CB        -8.0620   55.1360   29.6100 C.3   367  HIS367      0.0745
    104  CG        -7.6210   54.2820   30.7560 C.ar  367  HIS367      0.0817
    105  ND1       -7.2390   52.9790   30.5610 N.ar  367  HIS367     -0.2268
    106  CD2       -7.4960   54.5090   32.0890 C.ar  367  HIS367      0.1154
    107  CE1       -6.8960   52.4320   31.7100 C.ar  367  HIS367      0.1986
    108  NE2       -7.0420   53.3370   32.6560 N.ar  367  HIS367     -0.2212
@<TRIPOS>BOND
     1    70    71    1
     2    71    72    1
     3    71    74    1
     4    72    73    2
     5    74    75    1
     6    62    63    2
     7    62    61    1
     8    75    76    1
     9    89    90    2
    10    89    88    1
    11    79    80    1
    12    91    88    1
    13    91    92    1
    14    87    88    1
    15    87    81   am
    16    61    64    1
    17    61    60    1
    18    77    76   ar
    19    64    65    1
    20    76    78   ar
    21    94    92   ar
    22    94    96   ar
    23    92    93   ar
    24    80    81    1
    25    80    83    1
    26    81    82    2
    27    67    65   ar
    28    67    69   ar
    29    40    38   am
    30    83    84    1
    31    65    66   ar
    32    96    97   ar
    33    85    84   ar
    34    60    53   am
    35    84    86   ar
    36    54    53    2
    37    93    95   ar
    38    53    52    1
    39    37    38    1
    40    37    36    1
    41    69    68   ar
    42    38    39    2
    43    32    33    1
    44    66    68   ar
    45    97    95   ar
    46    97    98    1
    47    99   100    1
    48    36    33    1
    49   103   100    1
    50   103   104    1
    51   100   101    1
    52    51    52    1
    53    52    55    1
    54    33    34    1
    55   105   104   ar
    56   105   107   ar
    57   104   106   ar
    58    55    56    1
    59    34    35    2
    60    13    10    1
    61    13    14    1
    62   101   102    2
    63    56    57    1
    64   107   108   ar
    65    10    11    1
    66    10     9    1
    67    57    58   ar
    68    57    59   ar
    69    12    11    2
    70    50    48   ar
    71    50    49   ar
    72   106   108   ar
    73    48    46   ar
    74    49    47   ar
    75    30    31    1
    76    30    27    1
    77    28    29    2
    78    28    27    1
    79    46    47   ar
    80    46    45    1
    81    27    26    1
    82    41    42    1
    83    45    42    1
    84    42    43    1
    85     8     6    1
    86     3     4    2
    87     3     2    1
    88     2     5    1
    89     2     1    1
    90     5     6    1
    91     6     7    1
    92    43    44    2
    93    25    24    2
    94    20    19    1
    95    20    21    1
    96    19    16    1
    97    21    15    1
    98    24    23    1
    99    22    23    1
   100    15    16    1
   101    16    17    1
   102    17    18    2
