@<TRIPOS>MOLECULE
tmp/5vleA02.pdb
 94 87 0 0 0
SMALL
GASTEIGER

@<TRIPOS>ATOM
      1  N        -17.5720   15.1290   -1.8710 N.3     5  GLN5       -0.1245
      2  CA       -16.3050   15.8060   -1.6610 C.3     5  GLN5        0.1566
      3  C        -15.8800   15.7710   -0.1980 C.2     5  GLN5        0.2260
      4  O        -14.6850   15.6580    0.0960 O.2     5  GLN5       -0.2867
      5  CB       -16.3640   17.2480   -2.1650 C.3     5  GLN5        0.0367
      6  CG       -16.4180   17.3640   -3.6800 C.3     5  GLN5        0.0905
      7  CD       -16.7410   18.7710   -4.1450 C.2     5  GLN5        0.2608
      8  OE1      -17.4840   19.5050   -3.4980 O.2     5  GLN5       -0.2717
      9  NE2      -16.1590   19.1560   -5.2740 N.am    5  GLN5       -0.0878
     10  N        -16.7210   11.3420  -14.4160 N.3    24  ILE24      -0.1245
     11  CA       -17.7710   11.7090  -15.3660 C.3    24  ILE24       0.1561
     12  C        -18.7830   10.5880  -15.3510 C.2    24  ILE24       0.2260
     13  O        -18.4570    9.4160  -15.5880 O.2    24  ILE24      -0.2867
     14  CB       -17.2430   11.9170  -16.7740 C.3    24  ILE24       0.0252
     15  CG1      -16.2850   13.0920  -16.8420 C.3    24  ILE24       0.0019
     16  CG2      -18.4110   12.0680  -17.7520 C.3    24  ILE24       0.0019
     17  CD1      -15.5020   13.2020  -18.1160 C.3    24  ILE24       0.0001
     18  N        -21.7430    9.2530  -17.3590 N.3    26  THR26      -0.1218
     19  CA       -22.3580    9.4510  -18.6650 C.3    26  THR26       0.1862
     20  C        -23.8700    9.2300  -18.6550 C.2    26  THR26       0.2287
     21  O        -24.5180    9.4440  -19.6520 O.2    26  THR26      -0.2866
     22  CB       -21.7120    8.6220  -19.7910 C.3    26  THR26       0.1770
     23  OG1      -22.0920    7.2540  -19.7200 O.3    26  THR26      -0.2211
     24  CG2      -20.1870    8.8030  -19.7710 C.3    26  THR26       0.0375
     25  N        -24.0110   13.1180  -17.9740 N.3    29  ASN29      -0.1225
     26  CA       -22.9400   13.9580  -18.4100 C.3    29  ASN29       0.1785
     27  C        -22.6640   15.0710  -17.4210 C.2    29  ASN29       0.2598
     28  O        -22.6570   16.2500  -17.7580 O.2    29  ASN29      -0.2718
     29  CB       -23.2010   14.4960  -19.8460 C.3    29  ASN29       0.1169
     30  CG       -22.9810   13.3950  -20.8350 C.2    29  ASN29       0.2627
     31  OD1      -22.4910   12.3230  -20.5930 O.2    29  ASN29      -0.2716
     32  ND2      -23.3620   13.7170  -22.1040 N.am   29  ASN29      -0.0877
     33  N        -22.4440   14.6320  -16.1840 N.am   30  THR30      -0.1939
     34  CA       -22.0530   15.4400  -15.0860 C.3    30  THR30       0.2028
     35  C        -20.7480   14.9710  -14.4520 C.2    30  THR30       0.2642
     36  O        -20.3380   13.8050  -14.6590 O.2    30  THR30      -0.2714
     37  CB       -23.0790   15.4900  -13.9370 C.3    30  THR30       0.1808
     38  OG1      -23.2550   14.2200  -13.3700 O.3    30  THR30      -0.2208
     39  CG2      -24.4560   16.0570  -14.4040 C.3    30  THR30       0.0379
     40  N        -20.0940   15.9560  -13.7360 N.am   31  GLN31      -0.1963
     41  CA       -18.8630   15.5380  -13.1000 C.3    31  GLN31       0.1733
     42  C        -18.8700   15.7370  -11.6010 C.2    31  GLN31       0.2616
     43  O        -19.5680   16.5830  -11.0480 O.2    31  GLN31      -0.2715
     44  CB       -17.6400   16.1690  -13.7450 C.3    31  GLN31       0.0408
     45  CG       -17.6760   17.6740  -13.8910 C.3    31  GLN31       0.0908
     46  CD       -16.6910   18.1940  -14.9180 C.2    31  GLN31       0.2608
     47  OE1      -15.7740   17.4910  -15.3370 O.2    31  GLN31      -0.2717
     48  NE2      -16.9170   19.4200  -15.3820 N.am   31  GLN31      -0.0878
     49  N        -18.0390   14.9300  -10.8990 N.am   32  VAL32      -0.1963
     50  CA       -17.6970   15.0400   -9.5130 C.3    32  VAL32       0.1727
     51  C        -16.1740   15.1430   -9.4010 C.2    32  VAL32       0.2616
     52  O        -15.4820   14.2560   -9.8870 O.2    32  VAL32      -0.2715
     53  CB       -18.2310   13.8550   -8.7000 C.3    32  VAL32       0.0290
     54  CG1      -17.6570   13.9270   -7.3110 C.3    32  VAL32       0.0023
     55  CG2      -19.7500   13.8360   -8.6750 C.3    32  VAL32       0.0023
     56  N        -15.6550   16.2060   -8.7960 N.am   33  LEU33      -0.1977
     57  CA       -14.2150   16.2780   -8.7270 C.3    33  LEU33       0.1596
     58  C        -13.7920   16.6310   -7.3100 C.2    33  LEU33       0.2287
     59  O        -14.5320   17.2160   -6.5280 O.2    33  LEU33      -0.2864
     60  CB       -13.6650   17.3430   -9.6590 C.3    33  LEU33       0.0297
     61  CG       -14.1310   17.2740  -11.1360 C.3    33  LEU33       0.0022
     62  CD1      -15.3420   18.1620  -11.3640 C.3    33  LEU33       0.0001
     63  CD2      -12.9810   17.5840  -12.0940 C.3    33  LEU33       0.0001
     64  N         -9.5000   16.4830  -13.8310 N.3   158  ARG158     -0.1245
     65  CA       -10.5410   16.9130  -14.7560 C.3   158  ARG158      0.1563
     66  C        -10.1520   16.6210  -16.2020 C.2   158  ARG158      0.2260
     67  O        -10.9500   16.0990  -16.9790 O.2   158  ARG158     -0.2867
     68  CB       -10.8290   18.4070  -14.5830 C.3   158  ARG158      0.0307
     69  CG       -11.9990   18.9090  -15.4140 C.3   158  ARG158      0.0489
     70  CD       -11.9660   20.4190  -15.5650 C.3   158  ARG158      0.2205
     71  NE       -12.1920   21.1060  -14.2990 N.pl3 158  ARG158     -0.0865
     72  CZ       -13.3790   21.4760  -13.8400 C.cat 158  ARG158      0.5346
     73  NH1      -14.4850   21.1190  -14.4800 N.pl3 158  ARG158      0.1354
     74  NH2      -13.4700   22.1580  -12.7060 N.pl3 158  ARG158      0.1354
     75  N        -11.8400   13.7520  -18.8080 N.3   162  GLN162     -0.1245
     76  CA       -12.4640   14.1950  -20.0500 C.3   162  GLN162      0.1566
     77  C        -11.8090   13.5560  -21.2610 C.2   162  GLN162      0.2260
     78  O        -12.4870   13.0960  -22.1870 O.2   162  GLN162     -0.2867
     79  CB       -12.4200   15.7240  -20.1370 C.3   162  GLN162      0.0367
     80  CG       -13.2060   16.4130  -19.0340 C.3   162  GLN162      0.0905
     81  CD       -13.0830   17.9180  -19.0460 C.2   162  GLN162      0.2608
     82  OE1      -13.8050   18.6060  -18.3220 O.2   162  GLN162     -0.2717
     83  NE2      -12.1890   18.4540  -19.8660 N.am  162  GLN162     -0.0878
     84  N        -12.9040    9.7280  -21.4170 N.3   165  ARG165     -0.1245
     85  CA       -14.2230    9.6770  -22.0360 C.3   165  ARG165      0.1563
     86  C        -14.1230    9.7450  -23.5560 C.2   165  ARG165      0.2260
     87  O        -14.6820    8.9080  -24.2630 O.2   165  ARG165     -0.2867
     88  CB       -15.1010   10.8180  -21.5160 C.3   165  ARG165      0.0307
     89  CG       -16.5440   10.7540  -21.9870 C.3   165  ARG165      0.0489
     90  CD       -16.7720   11.6470  -23.1960 C.3   165  ARG165      0.2205
     91  NE       -18.1910   11.8140  -23.4930 N.pl3 165  ARG165     -0.0865
     92  CZ       -18.6820   12.6980  -24.3510 C.cat 165  ARG165      0.5346
     93  NH1      -19.9920   12.7940  -24.5330 N.pl3 165  ARG165      0.1354
     94  NH2      -17.8640   13.4670  -25.0570 N.pl3 165  ARG165      0.1354
@<TRIPOS>BOND
     1    94    92    1
     2    93    92    1
     3    92    91    2
     4    87    86    2
     5    86    85    1
     6    91    90    1
     7    90    89    1
     8    78    77    2
     9    32    30   am
    10    85    88    1
    11    85    84    1
    12    89    88    1
    13    77    76    1
    14    30    31    2
    15    30    29    1
    16    79    76    1
    17    79    80    1
    18    76    75    1
    19    83    81   am
    20    29    26    1
    21    22    24    1
    22    22    23    1
    23    22    19    1
    24    21    20    2
    25    81    80    1
    26    81    82    2
    27    19    20    1
    28    19    18    1
    29    26    25    1
    30    26    27    1
    31    17    15    1
    32    28    27    2
    33    16    14    1
    34    27    33   am
    35    67    66    2
    36    15    14    1
    37    14    11    1
    38    66    65    1
    39    33    34    1
    40    13    12    2
    41    70    69    1
    42    70    71    1
    43    69    68    1
    44    48    46   am
    45    11    12    1
    46    11    10    1
    47    47    46    2
    48    34    35    1
    49    34    37    1
    50    46    45    1
    51    65    68    1
    52    65    64    1
    53    36    35    2
    54    73    72    1
    55    35    40   am
    56    39    37    1
    57    71    72    2
    58    37    38    1
    59    45    44    1
    60    72    74    1
    61    44    41    1
    62    40    41    1
    63    41    42    1
    64    63    61    1
    65    42    43    2
    66    42    49   am
    67    62    61    1
    68    61    60    1
    69    49    50    1
    70    52    51    2
    71    60    57    1
    72    50    51    1
    73    50    53    1
    74    51    56   am
    75    56    57    1
    76    57    58    1
    77    53    55    1
    78    53    54    1
    79    58    59    2
    80     9     7   am
    81     7     6    1
    82     7     8    2
    83     6     5    1
    84     5     2    1
    85     1     2    1
    86     2     3    1
    87     3     4    2
