@<TRIPOS>MOLECULE
tmp/5vlgF00.pdb
 200 192 0 0 0
SMALL
GASTEIGER

@<TRIPOS>ATOM
      1  N          8.4750   34.8270    2.6260 N.3    66  MET66      -0.1245
      2  CA         7.8000   35.8960    1.8970 C.3    66  MET66       0.1570
      3  C          6.3750   35.4940    1.5430 C.2    66  MET66       0.2261
      4  O          5.4360   36.2920    1.6780 O.2    66  MET66      -0.2867
      5  CB         8.5840   36.2390    0.6290 C.3    66  MET66       0.0387
      6  CG         7.9880   37.3680   -0.1990 C.3    66  MET66       0.0595
      7  SD         8.7820   37.5300   -1.8080 S.3    66  MET66      -0.1393
      8  CE         7.7370   38.7690   -2.5760 C.3    66  MET66       0.0692
      9  N          2.8410   37.3340    2.6330 N.3    70  GLN70      -0.1245
     10  CA         1.8820   37.8990    1.6910 C.3    70  GLN70       0.1566
     11  C          0.5470   37.1640    1.6910 C.2    70  GLN70       0.2260
     12  O         -0.4410   37.7110    1.1900 O.2    70  GLN70      -0.2867
     13  CB         2.4670   37.8880    0.2780 C.3    70  GLN70       0.0367
     14  CG         2.6100   36.5000   -0.3150 C.3    70  GLN70       0.0905
     15  CD         3.5410   36.4680   -1.5140 C.2    70  GLN70       0.2608
     16  OE1        4.3980   37.3380   -1.6730 O.2    70  GLN70      -0.2717
     17  NE2        3.3730   35.4620   -2.3690 N.am   70  GLN70      -0.0878
     18  N         -2.5990   39.7370   -3.5590 N.3    84  SER84      -0.1202
     19  CA        -1.5650   39.7530   -2.5290 C.3    84  SER84       0.2020
     20  C         -0.4660   38.7500   -2.8500 C.2    84  SER84       0.2619
     21  O          0.7200   39.0250   -2.6370 O.2    84  SER84      -0.2717
     22  CB        -2.1790   39.4580   -1.1600 C.3    84  SER84       0.2103
     23  OG        -1.2260   39.6290   -0.1230 O.3    84  SER84      -0.2182
     24  N         -0.8420   37.5830   -3.3770 N.am   85  ALA85      -0.1965
     25  CA         0.1370   36.5620   -3.7250 C.3    85  ALA85       0.1728
     26  C          0.9540   36.9180   -4.9590 C.2    85  ALA85       0.2616
     27  O          1.9210   36.2070   -5.2560 O.2    85  ALA85      -0.2715
     28  CB        -0.5610   35.2190   -3.9490 C.3    85  ALA85       0.0334
     29  N          0.6030   37.9840   -5.6800 N.am   86  LEU86      -0.1963
     30  CA         1.3100   38.3420   -6.9050 C.3    86  LEU86       0.1728
     31  C          2.0520   39.6700   -6.8320 C.2    86  LEU86       0.2617
     32  O          3.2300   39.7310   -7.1970 O.2    86  LEU86      -0.2715
     33  CB         0.3200   38.3660   -8.0800 C.3    86  LEU86       0.0311
     34  CG        -0.2000   36.9880   -8.5030 C.3    86  LEU86       0.0022
     35  CD1       -1.4000   37.1230   -9.4260 C.3    86  LEU86       0.0001
     36  CD2        0.9010   36.1750   -9.1780 C.3    86  LEU86       0.0001
     37  N          1.4040   40.7450   -6.3830 N.am   87  GLY87      -0.1940
     38  CA         1.9690   42.0750   -6.5370 C.3    87  GLY87       0.2014
     39  C          1.8470   43.0360   -5.3680 C.2    87  GLY87       0.2640
     40  O          1.6660   44.2380   -5.5840 O.2    87  GLY87      -0.2714
     41  N          1.9300   42.5450   -4.1340 N.am   88  SER88      -0.1935
     42  CA         1.8240   43.4280   -2.9770 C.3    88  SER88       0.2055
     43  C          2.8880   44.5210   -3.0290 C.2    88  SER88       0.2642
     44  O          4.0640   44.2490   -3.2910 O.2    88  SER88      -0.2714
     45  CB         1.9580   42.6220   -1.6840 C.3    88  SER88       0.2130
     46  OG         1.8230   43.4570   -0.5470 O.3    88  SER88      -0.2179
     47  N          2.4690   45.7620   -2.7770 N.am   89  GLU89      -0.1976
     48  CA         3.3670   46.9120   -2.7620 C.3    89  GLU89       0.1602
     49  C          3.9090   47.2270   -1.3730 C.2    89  GLU89       0.2287
     50  O          4.4700   48.3100   -1.1740 O.2    89  GLU89      -0.2864
     51  CB         2.6520   48.1530   -3.3080 C.3    89  GLU89       0.0415
     52  CG         2.2950   48.0850   -4.7790 C.3    89  GLU89       0.1163
     53  CD         1.7220   49.3930   -5.2920 C.2    89  GLU89       0.3649
     54  OE1        1.5750   50.3360   -4.4850 O.co2  89  GLU89      -0.2457
     55  OE2        1.4230   49.4800   -6.5010 O.co2  89  GLU89      -0.2457
     56  N          8.2260   43.9290    2.0470 N.3    93  LEU93      -0.1231
     57  CA         8.6350   42.8710    1.1320 C.3    93  LEU93       0.1693
     58  C          9.8380   43.2530    0.2800 C.2    93  LEU93       0.2591
     59  O         10.4480   42.3670   -0.3280 O.2    93  LEU93      -0.2718
     60  CB         7.4700   42.4890    0.2130 C.3    93  LEU93       0.0284
     61  CG         6.2190   41.9110    0.8790 C.3    93  LEU93       0.0019
     62  CD1        5.1260   41.6980   -0.1590 C.3    93  LEU93       0.0001
     63  CD2        6.5280   40.6090    1.6000 C.3    93  LEU93       0.0001
     64  N         10.1920   44.5360    0.2180 N.am   94  GLU94      -0.1979
     65  CA        11.3080   44.9740   -0.6160 C.3    94  GLU94       0.1602
     66  C         12.5770   44.1490   -0.4150 C.2    94  GLU94       0.2287
     67  O         13.1420   43.6830   -1.4120 O.2    94  GLU94      -0.2864
     68  CB        11.5790   46.4620   -0.3550 C.3    94  GLU94       0.0415
     69  CG        12.6730   47.0690   -1.2290 C.3    94  GLU94       0.1163
     70  CD        12.3380   47.0290   -2.7070 C.2    94  GLU94       0.3649
     71  OE1       11.1630   46.7740   -3.0490 O.co2  94  GLU94      -0.2457
     72  OE2       13.2540   47.2520   -3.5280 O.co2  94  GLU94      -0.2457
     73  N         12.1180   40.9020   -2.2110 N.3    97  ILE97      -0.1245
     74  CA        12.1330   41.1150   -3.6570 C.3    97  ILE97       0.1561
     75  C         13.5600   41.3320   -4.1450 C.2    97  ILE97       0.2260
     76  O         14.0340   40.6450   -5.0570 O.2    97  ILE97      -0.2867
     77  CB        11.2230   42.3010   -4.0240 C.3    97  ILE97       0.0252
     78  CG1        9.7720   41.9940   -3.6320 C.3    97  ILE97       0.0019
     79  CG2       11.3100   42.6210   -5.5120 C.3    97  ILE97       0.0019
     80  CD1        8.8820   43.2140   -3.5780 C.3    97  ILE97       0.0001
     81  N         15.1680   38.0530   -4.4130 N.3   100  TRP100     -0.1227
     82  CA        14.6440   37.3000   -5.5480 C.3   100  TRP100      0.1737
     83  C         15.2070   37.8360   -6.8570 C.2   100  TRP100      0.2595
     84  O         15.7750   37.0830   -7.6590 O.2   100  TRP100     -0.2718
     85  CB        13.1140   37.3640   -5.5520 C.3   100  TRP100      0.0564
     86  CG        12.4340   36.0810   -5.9280 C.ar  100  TRP100      0.0003
     87  CD1       13.0040   34.9840   -6.5070 C.ar  100  TRP100      0.0946
     88  CD2       11.0500   35.7610   -5.7410 C.ar  100  TRP100      0.0152
     89  NE1       12.0600   34.0030   -6.6940 N.ar  100  TRP100     -0.2442
     90  CE2       10.8520   34.4560   -6.2330 C.ar  100  TRP100      0.0810
     91  CE3        9.9580   36.4540   -5.2090 C.ar  100  TRP100      0.0012
     92  CZ2        9.6070   33.8290   -6.2080 C.ar  100  TRP100      0.0191
     93  CZ3        8.7230   35.8300   -5.1860 C.ar  100  TRP100      0.0001
     94  CH2        8.5580   34.5320   -5.6820 C.ar  100  TRP100      0.0015
     95  N         15.0700   39.1460   -7.0820 N.am  101  ARG101     -0.1980
     96  CA        15.6730   39.7740   -8.2520 C.3   101  ARG101      0.1597
     97  C         17.1140   39.3140   -8.4250 C.2   101  ARG101      0.2287
     98  O         17.4860   38.7530   -9.4620 O.2   101  ARG101     -0.2864
     99  CB        15.6070   41.2980   -8.1230 C.3   101  ARG101      0.0334
    100  CG        14.2070   41.8830   -8.3010 C.3   101  ARG101      0.0492
    101  CD        14.2480   43.3050   -8.8540 C.3   101  ARG101      0.2205
    102  NE        14.1280   44.3250   -7.8150 N.pl3 101  ARG101     -0.0865
    103  CZ        13.0000   44.9500   -7.4820 C.cat 101  ARG101      0.5346
    104  NH1       11.8640   44.6710   -8.1020 N.pl3 101  ARG101      0.1354
    105  NH2       13.0080   45.8630   -6.5200 N.pl3 101  ARG101      0.1354
    106  N         17.5500   35.8370   -9.7400 N.3   104  GLN104     -0.1245
    107  CA        17.2990   35.6830  -11.1680 C.3   104  GLN104      0.1566
    108  C         18.5520   35.9570  -11.9880 C.2   104  GLN104      0.2260
    109  O         18.7910   35.3000  -13.0080 O.2   104  GLN104     -0.2867
    110  CB        16.1690   36.6130  -11.6080 C.3   104  GLN104      0.0367
    111  CG        15.6930   36.3570  -13.0280 C.3   104  GLN104      0.0905
    112  CD        14.5930   37.3020  -13.4580 C.2   104  GLN104      0.2608
    113  OE1       14.4480   38.3980  -12.9130 O.2   104  GLN104     -0.2717
    114  NE2       13.8050   36.8790  -14.4400 N.am  104  GLN104     -0.0878
    115  N         16.3250   29.0830   -7.8510 N.3   117  TYR117     -0.1241
    116  CA        15.4280   30.0640   -8.4530 C.3   117  TYR117      0.1605
    117  C         14.2620   29.3780   -9.1540 C.2   117  TYR117      0.2264
    118  O         13.0980   29.7610   -8.9780 O.2   117  TYR117     -0.2867
    119  CB        16.2060   30.9430   -9.4300 C.3   117  TYR117      0.0534
    120  CG        15.3830   32.0550  -10.0270 C.ar  117  TYR117     -0.0201
    121  CD1       15.1280   33.2150   -9.3090 C.ar  117  TYR117     -0.0009
    122  CD2       14.8600   31.9480  -11.3060 C.ar  117  TYR117     -0.0009
    123  CE1       14.3720   34.2370   -9.8490 C.ar  117  TYR117      0.0417
    124  CE2       14.1050   32.9660  -11.8540 C.ar  117  TYR117      0.0417
    125  CZ        13.8650   34.1080  -11.1200 C.ar  117  TYR117      0.1957
    126  OH        13.1160   35.1260  -11.6580 O.3   117  TYR117     -0.2866
    127  N         10.2470   29.7030   -8.3140 N.3   121  MET121     -0.1245
    128  CA         9.2420   30.0240   -9.3220 C.3   121  MET121      0.1570
    129  C          8.1220   28.9930   -9.3150 C.2   121  MET121      0.2261
    130  O          6.9420   29.3460   -9.4440 O.2   121  MET121     -0.2867
    131  CB         9.8870   30.1110  -10.7060 C.3   121  MET121      0.0387
    132  CG        10.7990   31.3160  -10.8930 C.3   121  MET121      0.0595
    133  SD         9.9420   32.8930  -10.6960 S.3   121  MET121     -0.1393
    134  CE         8.8450   32.8550  -12.1120 C.3   121  MET121      0.0692
    135  N          5.9390   29.7490   -6.1720 N.3   124  TRP124     -0.1241
    136  CA         5.0640   30.8720   -6.4930 C.3   124  TRP124      0.1605
    137  C          3.9020   30.4200   -7.3710 C.2   124  TRP124      0.2264
    138  O          2.7300   30.7080   -7.0860 O.2   124  TRP124     -0.2867
    139  CB         5.8940   31.9490   -7.1940 C.3   124  TRP124      0.0550
    140  CG         5.2480   33.2850   -7.3290 C.ar  124  TRP124      0.0003
    141  CD1        4.0870   33.7040   -6.7540 C.ar  124  TRP124      0.0946
    142  CD2        5.7380   34.3880   -8.0980 C.ar  124  TRP124      0.0152
    143  NE1        3.8240   35.0050   -7.1160 N.ar  124  TRP124     -0.2442
    144  CE2        4.8240   35.4460   -7.9430 C.ar  124  TRP124      0.0810
    145  CE3        6.8630   34.5830   -8.9040 C.ar  124  TRP124      0.0012
    146  CZ2        4.9990   36.6800   -8.5630 C.ar  124  TRP124      0.0191
    147  CZ3        7.0370   35.8060   -9.5160 C.ar  124  TRP124      0.0001
    148  CH2        6.1100   36.8400   -9.3440 C.ar  124  TRP124      0.0015
    149  N          3.8920   39.8730  -13.9160 N.3   158  VAL158     -0.1231
    150  CA         4.5590   40.5140  -12.7820 C.3   158  VAL158      0.1692
    151  C          6.0590   40.6130  -13.0330 C.2   158  VAL158      0.2592
    152  O          6.6810   41.6550  -12.7890 O.2   158  VAL158     -0.2718
    153  CB         4.2540   39.7530  -11.4790 C.3   158  VAL158      0.0266
    154  CG1        5.0360   40.3420  -10.3110 C.3   158  VAL158      0.0020
    155  CG2        2.7610   39.7950  -11.1760 C.3   158  VAL158      0.0020
    156  N          6.6630   39.5270  -13.5220 N.am  159  CYS159     -0.1970
    157  CA         8.1050   39.5150  -13.7540 C.3   159  CYS159      0.1712
    158  C          8.5060   40.5500  -14.7980 C.2   159  CYS159      0.2296
    159  O          9.4240   41.3470  -14.5750 O.2   159  CYS159     -0.2864
    160  CB         8.5530   38.1180  -14.1820 C.3   159  CYS159      0.0983
    161  SG         8.3950   36.8530  -12.8910 S.3   159  CYS159     -0.0798
    162  N          8.1170   44.0480  -13.5930 N.3   162  ASP162     -0.1239
    163  CA         9.1990   44.3500  -12.6640 C.3   162  ASP162      0.1674
    164  C         10.4820   44.6760  -13.4130 C.2   162  ASP162      0.2266
    165  O         11.1800   45.6380  -13.0720 O.2   162  ASP162     -0.2867
    166  CB         9.4230   43.1760  -11.7160 C.3   162  ASP162      0.1410
    167  CG        10.5920   43.4030  -10.7790 C.2   162  ASP162      0.3668
    168  OD1       10.4010   44.0720   -9.7410 O.co2 162  ASP162     -0.2456
    169  OD2       11.7030   42.9180  -11.0860 O.co2 162  ASP162     -0.2456
    170  N         10.2110   48.0360  -14.4580 N.3   165  TYR165     -0.1241
    171  CA        10.1280   48.9680  -13.3400 C.3   165  TYR165      0.1605
    172  C         11.5100   49.3120  -12.8040 C.2   165  TYR165      0.2264
    173  O         11.7900   50.4750  -12.4920 O.2   165  TYR165     -0.2867
    174  CB         9.2480   48.3620  -12.2430 C.3   165  TYR165      0.0534
    175  CG         9.2880   49.0760  -10.9090 C.ar  165  TYR165     -0.0201
    176  CD1        8.4420   50.1450  -10.6420 C.ar  165  TYR165     -0.0009
    177  CD2       10.1540   48.6610   -9.9050 C.ar  165  TYR165     -0.0009
    178  CE1        8.4700   50.7900   -9.4190 C.ar  165  TYR165      0.0417
    179  CE2       10.1890   49.2990   -8.6800 C.ar  165  TYR165      0.0417
    180  CZ         9.3450   50.3620   -8.4410 C.ar  165  TYR165      0.1957
    181  OH         9.3790   50.9990   -7.2210 O.3   165  TYR165     -0.2866
    182  N          4.8590   52.2560   -9.4040 N.3   174  ASP174     -0.1239
    183  CA         4.0620   51.4440   -8.4910 C.3   174  ASP174      0.1674
    184  C          2.5860   51.4690   -8.8770 C.2   174  ASP174      0.2266
    185  O          1.9700   50.4220   -9.1190 O.2   174  ASP174     -0.2867
    186  CB         4.2570   51.9420   -7.0590 C.3   174  ASP174      0.1410
    187  CG         5.6760   51.7530   -6.5640 C.2   174  ASP174      0.3668
    188  OD1        6.2140   50.6370   -6.7130 O.co2 174  ASP174     -0.2456
    189  OD2        6.2540   52.7240   -6.0320 O.co2 174  ASP174     -0.2456
    190  N          1.8990   49.7640  -11.9900 N.3   177  PHE177     -0.1241
    191  CA         2.0700   48.3340  -11.7580 C.3   177  PHE177      0.1605
    192  C          0.7810   47.7130  -11.2300 C.2   177  PHE177      0.2264
    193  O          0.2300   46.7770  -11.8260 O.2   177  PHE177     -0.2867
    194  CB         3.2260   48.1100  -10.7790 C.3   177  PHE177      0.0534
    195  CG         3.7860   46.7180  -10.8050 C.ar  177  PHE177     -0.0203
    196  CD1        3.0600   45.6550  -10.2940 C.ar  177  PHE177     -0.0042
    197  CD2        5.0450   46.4750  -11.3280 C.ar  177  PHE177     -0.0042
    198  CE1        3.5740   44.3750  -10.3160 C.ar  177  PHE177     -0.0003
    199  CE2        5.5670   45.1970  -11.3490 C.ar  177  PHE177     -0.0003
    200  CZ         4.8310   44.1450  -10.8430 C.ar  177  PHE177     -0.0000
@<TRIPOS>BOND
     1   158   159    2
     2   158   157    1
     3   170   171    1
     4   114   112   am
     5   160   157    1
     6   160   161    1
     7   149   150    1
     8   157   156    1
     9   162   163    1
    10   156   151   am
    11   112   111    1
    12   112   113    2
    13   164   165    2
    14   164   163    1
    15   171   172    1
    16   171   174    1
    17   151   152    2
    18   151   150    1
    19   111   110    1
    20   109   108    2
    21   172   173    2
    22   150   153    1
    23   163   166    1
    24   174   175    1
    25   134   133    1
    26   190   191    1
    27   108   107    1
    28   124   122   ar
    29   124   125   ar
    30   193   192    2
    31   191   192    1
    32   191   194    1
    33   166   167    1
    34   126   125    1
    35   110   107    1
    36   153   155    1
    37   153   154    1
    38   199   197   ar
    39   199   200   ar
    40   197   195   ar
    41   122   120   ar
    42   107   106    1
    43   125   123   ar
    44   169   167   ar
    45   175   176   ar
    46   175   177   ar
    47   132   131    1
    48   132   133    1
    49   200   198   ar
    50   195   194    1
    51   195   196   ar
    52   167   168   ar
    53   131   128    1
    54   176   178   ar
    55   198   196   ar
    56   120   119    1
    57   120   121   ar
    58   177   179   ar
    59   123   121   ar
    60   147   148   ar
    61   147   145   ar
    62    98    97    2
    63   130   129    2
    64   119   116    1
    65    35    34    1
    66   178   180   ar
    67   182   183    1
    68   148   146   ar
    69   128   129    1
    70   128   127    1
    71    36    34    1
    72   117   118    2
    73   117   116    1
    74   185   184    2
    75   145   142   ar
    76   184   183    1
    77   101   100    1
    78   101   102    1
    79   179   180   ar
    80   146   144   ar
    81    34    33    1
    82   183   186    1
    83   116   115    1
    84   180   181    1
    85    97    96    1
    86   100    99    1
    87    96    99    1
    88    96    95    1
    89   104   103    1
    90   142   144   ar
    91   142   140   ar
    92    33    30    1
    93   144   143   ar
    94   102   103    2
    95    84    83    2
    96   103   105    1
    97   137   138    2
    98   137   136    1
    99   140   139    1
   100   140   141   ar
   101    32    31    2
   102   139   136    1
   103   143   141   ar
   104    95    83   am
   105   186   187    1
   106    30    31    1
   107    30    29    1
   108    83    82    1
   109    31    37   am
   110   188   187   ar
   111    89    87   ar
   112    89    90   ar
   113   187   189   ar
   114    38    37    1
   115    38    39    1
   116    87    86   ar
   117    55    53   ar
   118   136   135    1
   119    90    92   ar
   120    90    88   ar
   121    92    94   ar
   122    86    88   ar
   123    86    85    1
   124    88    91   ar
   125    94    93   ar
   126    29    26   am
   127    40    39    2
   128    85    82    1
   129    82    81    1
   130    79    77    1
   131    39    41   am
   132    53    52    1
   133    53    54   ar
   134    27    26    2
   135    91    93   ar
   136    76    75    2
   137    26    25    1
   138    52    51    1
   139    75    74    1
   140    41    42    1
   141    77    74    1
   142    77    78    1
   143    28    25    1
   144    25    24    1
   145    74    73    1
   146    78    80    1
   147    18    19    1
   148    72    70   ar
   149    24    20   am
   150    51    48    1
   151    44    43    2
   152    71    70   ar
   153    43    42    1
   154    43    47   am
   155    42    45    1
   156    20    21    2
   157    20    19    1
   158    47    48    1
   159    48    49    1
   160    70    69    1
   161     8     7    1
   162    19    22    1
   163    17    15   am
   164     7     6    1
   165    45    46    1
   166    16    15    2
   167    15    14    1
   168    67    66    2
   169    49    50    2
   170    69    68    1
   171    22    23    1
   172    65    66    1
   173    65    68    1
   174    65    64    1
   175    59    58    2
   176    14    13    1
   177     6     5    1
   178    62    61    1
   179    60    61    1
   180    60    57    1
   181    64    58   am
   182    13    10    1
   183    58    57    1
   184     5     2    1
   185    61    63    1
   186    57    56    1
   187    12    11    2
   188     3     4    2
   189     3     2    1
   190    10    11    1
   191    10     9    1
   192     2     1    1
