@<TRIPOS>MOLECULE
tmp/5vlmE00.pdb
 215 206 0 0 0
SMALL
GASTEIGER

@<TRIPOS>ATOM
      1  N        -49.7850   67.5250  -11.7220 N.3    63  MET63      -0.1230
      2  CA       -50.8760   67.9820  -12.5760 C.3    63  MET63       0.1702
      3  C        -52.0580   67.0220  -12.5230 C.2    63  MET63       0.2592
      4  O        -53.2160   67.4550  -12.5220 O.2    63  MET63      -0.2718
      5  CB       -50.3810   68.1370  -14.0130 C.3    63  MET63       0.0401
      6  CG       -51.3590   68.8420  -14.9320 C.3    63  MET63       0.0596
      7  SD       -50.8370   68.8000  -16.6570 S.3    63  MET63      -0.1393
      8  CE       -51.0630   67.0670  -17.0350 C.3    63  MET63       0.0692
      9  N        -51.7870   65.7160  -12.4820 N.am   64  MET64      -0.1979
     10  CA       -52.8680   64.7370  -12.4460 C.3    64  MET64       0.1605
     11  C        -53.5540   64.7210  -11.0850 C.2    64  MET64       0.2287
     12  O        -54.7870   64.6620  -11.0080 O.2    64  MET64      -0.2864
     13  CB       -52.3320   63.3510  -12.8030 C.3    64  MET64       0.0413
     14  CG       -52.1240   63.1500  -14.2960 C.3    64  MET64       0.0598
     15  SD       -51.5300   61.5040  -14.7260 S.3    64  MET64      -0.1393
     16  CE       -49.8480   61.5980  -14.1260 C.3    64  MET64       0.0692
     17  N        -55.8660   67.5860  -10.8720 N.3    67  GLN67      -0.1245
     18  CA       -57.0470   67.5460  -11.7270 C.3    67  GLN67       0.1566
     19  C        -57.8930   66.2990  -11.5130 C.2    67  GLN67       0.2260
     20  O        -58.7630   66.0070  -12.3410 O.2    67  GLN67      -0.2867
     21  CB       -56.6340   67.6450  -13.1970 C.3    67  GLN67       0.0367
     22  CG       -56.2890   69.0560  -13.6310 C.3    67  GLN67       0.0905
     23  CD       -57.5040   69.9560  -13.6820 C.2    67  GLN67       0.2608
     24  OE1      -58.3840   69.7830  -14.5290 O.2    67  GLN67      -0.2717
     25  NE2      -57.5620   70.9230  -12.7740 N.am   67  GLN67      -0.0878
     26  N        -62.0690   65.3360  -17.0270 N.3    81  SER81      -0.1202
     27  CA       -61.1290   66.1480  -16.2620 C.3    81  SER81       0.2020
     28  C        -59.7000   65.6670  -16.4650 C.2    81  SER81       0.2619
     29  O        -58.7700   66.4760  -16.5680 O.2    81  SER81      -0.2717
     30  CB       -61.5050   66.1140  -14.7780 C.3    81  SER81       0.2103
     31  OG       -60.6460   66.9350  -14.0060 O.3    81  SER81      -0.2182
     32  N        -59.5110   64.3480  -16.5430 N.am   82  ALA82      -0.1965
     33  CA       -58.1780   63.7840  -16.7080 C.3    82  ALA82       0.1728
     34  C        -57.6910   63.8690  -18.1480 C.2    82  ALA82       0.2616
     35  O        -56.4800   63.9220  -18.3820 O.2    82  ALA82      -0.2715
     36  CB       -58.1660   62.3280  -16.2410 C.3    82  ALA82       0.0334
     37  N        -58.6010   63.8840  -19.1220 N.am   83  LEU83      -0.1963
     38  CA       -58.1780   63.9380  -20.5170 C.3    83  LEU83       0.1728
     39  C        -57.8600   65.3630  -20.9530 C.2    83  LEU83       0.2617
     40  O        -56.9020   65.5840  -21.7000 O.2    83  LEU83      -0.2715
     41  CB       -59.2550   63.3330  -21.4180 C.3    83  LEU83       0.0311
     42  CG       -59.4340   61.8150  -21.3280 C.3    83  LEU83       0.0022
     43  CD1      -60.6340   61.3780  -22.1450 C.3    83  LEU83       0.0001
     44  CD2      -58.1920   61.0740  -21.7930 C.3    83  LEU83       0.0001
     45  N        -58.6430   66.3370  -20.5040 N.am   84  GLY84      -0.1940
     46  CA       -58.3670   67.7170  -20.8450 C.3    84  GLY84       0.2014
     47  C        -59.2040   68.7080  -20.0670 C.2    84  GLY84       0.2640
     48  O        -60.4270   68.5670  -19.9790 O.2    84  GLY84      -0.2714
     49  N        -58.5540   69.7180  -19.4990 N.am   85  SER85      -0.1935
     50  CA       -59.2410   70.7910  -18.7980 C.3    85  SER85       0.2055
     51  C        -58.6510   72.1180  -19.2460 C.2    85  SER85       0.2642
     52  O        -57.4270   72.2740  -19.2890 O.2    85  SER85      -0.2714
     53  CB       -59.1180   70.6330  -17.2790 C.3    85  SER85       0.2130
     54  OG       -59.8510   71.6420  -16.6070 O.3    85  SER85      -0.2179
     55  N        -59.5220   73.0660  -19.5820 N.am   86  GLU86      -0.1976
     56  CA       -59.0950   74.3860  -20.0240 C.3    86  GLU86       0.1602
     57  C        -58.6750   75.2810  -18.8660 C.2    86  GLU86       0.2287
     58  O        -58.4710   76.4830  -19.0690 O.2    86  GLU86      -0.2864
     59  CB       -60.2190   75.0540  -20.8240 C.3    86  GLU86       0.0415
     60  CG       -59.7650   76.2160  -21.7060 C.3    86  GLU86       0.1163
     61  CD       -60.0730   77.5810  -21.1120 C.2    86  GLU86       0.3649
     62  OE1      -61.0530   77.7000  -20.3450 O.co2  86  GLU86      -0.2457
     63  OE2      -59.3310   78.5380  -21.4150 O.co2  86  GLU86      -0.2457
     64  N        -53.2920   75.1960  -15.2540 N.3    90  LEU90      -0.1245
     65  CA       -52.5760   74.0970  -15.8850 C.3    90  LEU90       0.1561
     66  C        -51.6710   74.5500  -17.0220 C.2    90  LEU90       0.2260
     67  O        -50.8620   73.7490  -17.5040 O.2    90  LEU90      -0.2867
     68  CB       -53.5700   73.0640  -16.4230 C.3    90  LEU90       0.0270
     69  CG       -54.5850   72.5190  -15.4190 C.3    90  LEU90       0.0019
     70  CD1      -55.6490   71.7230  -16.1460 C.3    90  LEU90       0.0001
     71  CD2      -53.9040   71.6670  -14.3650 C.3    90  LEU90       0.0001
     72  N        -48.9840   72.4840  -18.9950 N.3    94  ILE94      -0.1245
     73  CA       -49.1220   72.1130  -20.4020 C.3    94  ILE94       0.1561
     74  C        -47.8860   72.5330  -21.1840 C.2    94  ILE94       0.2260
     75  O        -47.3670   71.7700  -22.0090 O.2    94  ILE94      -0.2867
     76  CB       -50.4050   72.7300  -20.9940 C.3    94  ILE94       0.0252
     77  CG1      -51.6410   72.1190  -20.3240 C.3    94  ILE94       0.0019
     78  CG2      -50.4630   72.5140  -22.5080 C.3    94  ILE94       0.0019
     79  CD1      -52.9540   72.7980  -20.6880 C.3    94  ILE94       0.0001
     80  N        -45.1270   69.9540  -20.7190 N.3    97  TRP97      -0.1227
     81  CA       -45.3390   68.6550  -21.3430 C.3    97  TRP97       0.1737
     82  C        -45.2340   68.7530  -22.8610 C.2    97  TRP97       0.2595
     83  O        -44.6560   67.8680  -23.5040 O.2    97  TRP97      -0.2718
     84  CB       -46.6910   68.0770  -20.9180 C.3    97  TRP97       0.0564
     85  CG       -46.6930   66.5790  -20.8180 C.ar   97  TRP97       0.0003
     86  CD1      -45.6860   65.7360  -21.1830 C.ar   97  TRP97       0.0946
     87  CD2      -47.7480   65.7480  -20.3160 C.ar   97  TRP97       0.0152
     88  NE1      -46.0460   64.4340  -20.9430 N.ar   97  TRP97      -0.2442
     89  CE2      -47.3070   64.4130  -20.4110 C.ar   97  TRP97       0.0810
     90  CE3      -49.0210   66.0020  -19.8000 C.ar   97  TRP97       0.0012
     91  CZ2      -48.0940   63.3340  -20.0090 C.ar   97  TRP97       0.0191
     92  CZ3      -49.8020   64.9270  -19.4030 C.ar   97  TRP97       0.0001
     93  CH2      -49.3350   63.6120  -19.5090 C.ar   97  TRP97       0.0015
     94  N        -45.7810   69.8200  -23.4540 N.am   98  ARG98      -0.1980
     95  CA       -45.5230   70.0910  -24.8650 C.3    98  ARG98       0.1597
     96  C        -44.0260   70.1440  -25.1270 C.2    98  ARG98       0.2287
     97  O        -43.5220   69.5470  -26.0850 O.2    98  ARG98      -0.2864
     98  CB       -46.1710   71.4110  -25.2890 C.3    98  ARG98       0.0334
     99  CG       -47.6900   71.4200  -25.2960 C.3    98  ARG98       0.0492
    100  CD       -48.2230   72.4840  -26.2570 C.3    98  ARG98       0.2205
    101  NE       -49.6410   72.7780  -26.0470 N.pl3  98  ARG98      -0.0865
    102  CZ       -50.1230   73.8800  -25.4740 C.cat  98  ARG98       0.5346
    103  NH1      -49.3170   74.8370  -25.0380 N.pl3  98  ARG98       0.1354
    104  NH2      -51.4310   74.0310  -25.3390 N.pl3  98  ARG98       0.1354
    105  N        -42.3060   66.6400  -25.0690 N.3   101  GLN101     -0.1245
    106  CA       -42.4530   65.8560  -26.2900 C.3   101  GLN101      0.1566
    107  C        -41.4500   66.2960  -27.3480 C.2   101  GLN101      0.2260
    108  O        -40.8620   65.4610  -28.0450 O.2   101  GLN101     -0.2867
    109  CB       -43.8780   65.9890  -26.8240 C.3   101  GLN101      0.0367
    110  CG       -44.2100   65.0400  -27.9560 C.3   101  GLN101      0.0905
    111  CD       -45.5390   65.3590  -28.5960 C.2   101  GLN101      0.2608
    112  OE1      -46.0280   66.4860  -28.5100 O.2   101  GLN101     -0.2717
    113  NE2      -46.1360   64.3650  -29.2430 N.am  101  GLN101     -0.0878
    114  N        -40.8720   61.2930  -20.6630 N.3   114  TYR114     -0.1241
    115  CA       -42.1050   61.6240  -21.3680 C.3   114  TYR114      0.1605
    116  C        -42.8700   60.3660  -21.7550 C.2   114  TYR114      0.2264
    117  O        -44.1060   60.3510  -21.7400 O.2   114  TYR114     -0.2867
    118  CB       -41.7870   62.4620  -22.6050 C.3   114  TYR114      0.0534
    119  CG       -42.9850   62.7440  -23.4790 C.ar  114  TYR114     -0.0201
    120  CD1      -43.8330   63.8070  -23.2060 C.ar  114  TYR114     -0.0009
    121  CD2      -43.2650   61.9490  -24.5810 C.ar  114  TYR114     -0.0009
    122  CE1      -44.9280   64.0680  -24.0010 C.ar  114  TYR114      0.0417
    123  CE2      -44.3570   62.2030  -25.3850 C.ar  114  TYR114      0.0417
    124  CZ       -45.1850   63.2630  -25.0910 C.ar  114  TYR114      0.1957
    125  OH       -46.2750   63.5180  -25.8920 O.3   114  TYR114     -0.2866
    126  N        -46.7630   59.4580  -20.3610 N.3   118  MET118     -0.1245
    127  CA       -47.7490   58.9020  -21.2820 C.3   118  MET118      0.1570
    128  C        -48.1860   57.5170  -20.8260 C.2   118  MET118      0.2261
    129  O        -49.3560   57.1460  -20.9700 O.2   118  MET118     -0.2867
    130  CB       -47.1760   58.8440  -22.6990 C.3   118  MET118      0.0387
    131  CG       -46.8660   60.2080  -23.3060 C.3   118  MET118      0.0595
    132  SD       -48.3320   61.1730  -23.7350 S.3   118  MET118     -0.1393
    133  CE       -48.9310   60.2770  -25.1630 C.3   118  MET118      0.0692
    134  N        -50.3600   58.4950  -17.7520 N.3   121  TRP121     -0.1241
    135  CA       -51.6220   59.0290  -18.2490 C.3   121  TRP121      0.1605
    136  C        -52.5340   57.9130  -18.7410 C.2   121  TRP121      0.2264
    137  O        -53.7370   57.9090  -18.4550 O.2   121  TRP121     -0.2867
    138  CB       -51.3310   60.0290  -19.3690 C.3   121  TRP121      0.0550
    139  CG       -52.4760   60.9090  -19.7490 C.ar  121  TRP121      0.0003
    140  CD1      -53.7150   60.9410  -19.1830 C.ar  121  TRP121      0.0946
    141  CD2      -52.4830   61.8930  -20.7900 C.ar  121  TRP121      0.0152
    142  NE1      -54.4960   61.8840  -19.8090 N.ar  121  TRP121     -0.2442
    143  CE2      -53.7620   62.4820  -20.7990 C.ar  121  TRP121      0.0810
    144  CE3      -51.5300   62.3320  -21.7170 C.ar  121  TRP121      0.0012
    145  CZ2      -54.1150   63.4860  -21.6960 C.ar  121  TRP121      0.0191
    146  CZ3      -51.8810   63.3300  -22.6060 C.ar  121  TRP121      0.0001
    147  CH2      -53.1630   63.8950  -22.5910 C.ar  121  TRP121      0.0015
    148  N        -54.0010   56.0410  -15.8510 N.3   124  GLU124     -0.1245
    149  CA       -55.0560   56.7910  -15.1780 C.3   124  GLU124      0.1567
    150  C        -56.3880   56.6360  -15.8980 C.2   124  GLU124      0.2260
    151  O        -57.4410   56.5530  -15.2560 O.2   124  GLU124     -0.2867
    152  CB       -54.6710   58.2670  -15.0800 C.3   124  GLU124      0.0388
    153  CG       -55.7700   59.1780  -14.5320 C.3   124  GLU124      0.1160
    154  CD       -56.2190   58.8010  -13.1300 C.2   124  GLU124      0.3649
    155  OE1      -55.5550   57.9610  -12.4910 O.co2 124  GLU124     -0.2457
    156  OE2      -57.2390   59.3500  -12.6640 O.co2 124  GLU124     -0.2457
    157  N        -56.3830   63.9720  -27.6930 N.3   155  VAL155     -0.1231
    158  CA       -56.0030   65.1720  -26.9540 C.3   155  VAL155      0.1692
    159  C        -54.6790   65.7130  -27.4790 C.2   155  VAL155      0.2592
    160  O        -54.5450   66.9100  -27.7630 O.2   155  VAL155     -0.2718
    161  CB       -55.9360   64.8740  -25.4440 C.3   155  VAL155      0.0266
    162  CG1      -55.5780   66.1340  -24.6630 C.3   155  VAL155      0.0020
    163  CG2      -57.2610   64.3020  -24.9480 C.3   155  VAL155      0.0020
    164  N        -53.6810   64.8360  -27.6190 N.am  156  CYS156     -0.1970
    165  CA       -52.4000   65.2470  -28.1840 C.3   156  CYS156      0.1712
    166  C        -52.5880   65.8330  -29.5760 C.2   156  CYS156      0.2296
    167  O        -52.0900   66.9240  -29.8760 O.2   156  CYS156     -0.2864
    168  CB       -51.4410   64.0550  -28.2340 C.3   156  CYS156      0.0983
    169  SG       -50.9240   63.4080  -26.6190 S.3   156  CYS156     -0.0798
    170  N        -54.2400   69.1990  -29.7190 N.3   159  ASP159     -0.1239
    171  CA       -53.3120   70.1490  -29.1150 C.3   159  ASP159      0.1674
    172  C        -52.2890   70.6220  -30.1370 C.2   159  ASP159      0.2266
    173  O        -52.0050   71.8200  -30.2440 O.2   159  ASP159     -0.2867
    174  CB       -52.6200   69.5040  -27.9120 C.3   159  ASP159      0.1410
    175  CG       -51.6820   70.4610  -27.1900 C.2   159  ASP159      0.3668
    176  OD1      -52.1690   71.4630  -26.6260 O.co2 159  ASP159     -0.2456
    177  OD2      -50.4570   70.2080  -27.1760 O.co2 159  ASP159     -0.2456
    178  N        -54.2910   72.9350  -32.1030 N.3   162  TYR162     -0.1241
    179  CA       -54.8080   74.0710  -31.3470 C.3   162  TYR162      0.1605
    180  C        -53.7390   75.1380  -31.1520 C.2   162  TYR162      0.2264
    181  O        -54.0270   76.3370  -31.2400 O.2   162  TYR162     -0.2867
    182  CB       -55.3450   73.5860  -29.9990 C.3   162  TYR162      0.0534
    183  CG       -55.5700   74.6790  -28.9800 C.ar  162  TYR162     -0.0201
    184  CD1      -56.7310   75.4380  -28.9860 C.ar  162  TYR162     -0.0009
    185  CD2      -54.6220   74.9430  -28.0020 C.ar  162  TYR162     -0.0009
    186  CE1      -56.9370   76.4370  -28.0500 C.ar  162  TYR162      0.0417
    187  CE2      -54.8190   75.9380  -27.0640 C.ar  162  TYR162      0.0417
    188  CZ       -55.9760   76.6810  -27.0910 C.ar  162  TYR162      0.1957
    189  OH       -56.1640   77.6710  -26.1530 O.3   162  TYR162     -0.2866
    190  N        -60.3270   76.6420  -27.8750 N.3   171  ASP171     -0.1239
    191  CA       -60.7220   76.0900  -26.5820 C.3   171  ASP171      0.1674
    192  C        -62.0840   75.4130  -26.6540 C.2   171  ASP171      0.2266
    193  O        -62.2500   74.2700  -26.2130 O.2   171  ASP171     -0.2867
    194  CB       -60.7410   77.1990  -25.5260 C.3   171  ASP171      0.1410
    195  CG       -59.3660   77.7690  -25.2520 C.2   171  ASP171      0.3668
    196  OD1      -58.3790   77.0150  -25.3710 O.co2 171  ASP171     -0.2456
    197  OD2      -59.2730   78.9680  -24.9130 O.co2 171  ASP171     -0.2456
    198  N        -62.0340   72.4500  -29.1580 N.3   174  PHE174     -0.1227
    199  CA       -61.2040   71.4230  -28.5350 C.3   174  PHE174      0.1736
    200  C        -61.9860   70.6610  -27.4740 C.2   174  PHE174      0.2596
    201  O        -61.8420   69.4400  -27.3390 O.2   174  PHE174     -0.2718
    202  CB       -59.9570   72.0630  -27.9240 C.3   174  PHE174      0.0547
    203  CG       -58.9240   71.0710  -27.4570 C.ar  174  PHE174     -0.0202
    204  CD1      -59.0970   70.3640  -26.2770 C.ar  174  PHE174     -0.0042
    205  CD2      -57.7710   70.8590  -28.1900 C.ar  174  PHE174     -0.0042
    206  CE1      -58.1450   69.4580  -25.8470 C.ar  174  PHE174     -0.0003
    207  CE2      -56.8150   69.9560  -27.7620 C.ar  174  PHE174     -0.0003
    208  CZ       -57.0030   69.2550  -26.5910 C.ar  174  PHE174     -0.0000
    209  N        -62.8160   71.3680  -26.7060 N.am  175  THR175     -0.1953
    210  CA       -63.6470   70.7130  -25.7020 C.3   175  THR175      0.1897
    211  C        -64.7260   69.8620  -26.3610 C.2   175  THR175      0.2313
    212  O        -64.9460   68.7090  -25.9700 O.2   175  THR175     -0.2863
    213  CB       -64.2730   71.7640  -24.7840 C.3   175  THR175      0.1794
    214  OG1      -63.2400   72.5300  -24.1530 O.3   175  THR175     -0.2208
    215  CG2      -65.1280   71.1110  -23.7140 C.3   175  THR175      0.0378
@<TRIPOS>BOND
     1   178   179    1
     2   179   180    1
     3   179   182    1
     4   181   180    2
     5   173   172    2
     6   172   171    1
     7   182   183    1
     8   167   166    2
     9   170   171    1
    10   166   165    1
    11   113   111   am
    12   198   199    1
    13   171   174    1
    14   184   183   ar
    15   184   186   ar
    16   183   185   ar
    17   111   112    2
    18   111   110    1
    19   199   202    1
    20   199   200    1
    21   168   165    1
    22   168   169    1
    23   205   207   ar
    24   205   203   ar
    25   165   164    1
    26   186   188   ar
    27   108   107    2
    28   185   187   ar
    29   110   109    1
    30   202   203    1
    31   174   175    1
    32   190   191    1
    33   160   159    2
    34   207   208   ar
    35   157   158    1
    36   164   159   am
    37   159   158    1
    38   200   201    2
    39   200   209   am
    40   203   204   ar
    41   107   106    1
    42   175   177   ar
    43   175   176   ar
    44   188   187   ar
    45   188   189    1
    46   158   161    1
    47   109   106    1
    48   209   210    1
    49   192   191    1
    50   192   193    2
    51   208   206   ar
    52   191   194    1
    53   211   212    2
    54   211   210    1
    55   106   105    1
    56   204   206   ar
    57   100   101    1
    58   100    99    1
    59    97    96    2
    60   101   102    2
    61   125   124    1
    62   210   213    1
    63   194   195    1
    64   102   104    1
    65   102   103    1
    66   161   163    1
    67   161   162    1
    68   123   124   ar
    69   123   121   ar
    70   196   195   ar
    71    99    98    1
    72    98    95    1
    73   195   197   ar
    74   133   132    1
    75    96    95    1
    76   124   122   ar
    77    95    94    1
    78   213   214    1
    79   213   215    1
    80   121   119   ar
    81   122   120   ar
    82   132   131    1
    83    83    82    2
    84   119   120   ar
    85   119   118    1
    86    94    82   am
    87   131   130    1
    88    82    81    1
    89   130   127    1
    90   146   147   ar
    91   146   144   ar
    92   118   115    1
    93   147   145   ar
    94    78    76    1
    95    43    42    1
    96    75    74    2
    97    44    42    1
    98   116   117    2
    99   116   115    1
   100   144   141   ar
   101    60    61    1
   102    60    59    1
   103    40    39    2
   104   145   143   ar
   105    41    42    1
   106    41    38    1
   107    63    61   ar
   108   115   114    1
   109    81    84    1
   110    81    80    1
   111   127   128    1
   112   127   126    1
   113    74    73    1
   114    86    88   ar
   115    86    85   ar
   116    61    62   ar
   117    76    73    1
   118    76    77    1
   119   129   128    2
   120    39    38    1
   121    39    45   am
   122    88    89   ar
   123    84    85    1
   124    46    45    1
   125    46    47    1
   126    59    56    1
   127    85    87   ar
   128   143   141   ar
   129   143   142   ar
   130   141   139   ar
   131    79    77    1
   132    38    37    1
   133    89    87   ar
   134    89    91   ar
   135    73    72    1
   136    87    90   ar
   137    47    48    2
   138    47    49   am
   139    56    55    1
   140    56    57    1
   141    91    93   ar
   142   142   140   ar
   143    90    92   ar
   144   139   138    1
   145   139   140   ar
   146    55    51   am
   147    93    92   ar
   148    49    50    1
   149   138   135    1
   150    52    51    2
   151    51    50    1
   152    37    34   am
   153    58    57    2
   154    50    53    1
   155   136   137    2
   156   136   135    1
   157    35    34    2
   158   135   134    1
   159    34    33    1
   160    67    66    2
   161    53    54    1
   162     8     7    1
   163    26    27    1
   164    66    65    1
   165    33    32    1
   166    33    36    1
   167     7     6    1
   168    29    28    2
   169    32    28   am
   170    28    27    1
   171    68    65    1
   172    68    69    1
   173    27    30    1
   174    70    69    1
   175   150   151    2
   176   150   149    1
   177    65    64    1
   178   148   149    1
   179    69    71    1
   180   149   152    1
   181   152   153    1
   182     6     5    1
   183    30    31    1
   184    15    14    1
   185    15    16    1
   186   153   154    1
   187    24    23    2
   188    14    13    1
   189     5     2    1
   190    23    22    1
   191    23    25   am
   192    22    21    1
   193    21    18    1
   194   154   156   ar
   195   154   155   ar
   196    13    10    1
   197     2     3    1
   198     2     1    1
   199     3     4    2
   200     3     9   am
   201     9    10    1
   202    10    11    1
   203    20    19    2
   204    18    19    1
   205    18    17    1
   206    11    12    2
