@<TRIPOS>MOLECULE
tmp/5vloB00.pdb
 204 190 0 0 0
SMALL
GASTEIGER

@<TRIPOS>ATOM
      1  N         36.1840   49.5370   82.2240 N.3    14  LEU14      -0.1231
      2  CA        34.8630   49.6380   81.6180 C.3    14  LEU14       0.1693
      3  C         34.7150   48.7630   80.3830 C.2    14  LEU14       0.2593
      4  O         33.6140   48.2730   80.1080 O.2    14  LEU14      -0.2718
      5  CB        34.5620   51.0940   81.2550 C.3    14  LEU14       0.0284
      6  CG        34.6540   52.0930   82.4090 C.3    14  LEU14       0.0019
      7  CD1       34.3410   53.5010   81.9310 C.3    14  LEU14       0.0001
      8  CD2       33.7210   51.6870   83.5400 C.3    14  LEU14       0.0001
      9  N         35.7920   48.5570   79.6380 N.am   15  GLY15      -0.1942
     10  CA        35.7400   47.7250   78.4510 C.3    15  GLY15       0.2014
     11  C         37.1140   47.6300   77.8280 C.2    15  GLY15       0.2639
     12  O         38.0580   48.3120   78.2390 O.2    15  GLY15      -0.2714
     13  N         37.2120   46.7640   76.8240 N.am   16  LYS16      -0.1963
     14  CA        38.4510   46.5530   76.0930 C.3    16  LYS16       0.1728
     15  C         38.2430   46.8290   74.6120 C.2    16  LYS16       0.2616
     16  O         37.1590   46.6010   74.0650 O.2    16  LYS16      -0.2715
     17  CB        38.9790   45.1210   76.2670 C.3    16  LYS16       0.0311
     18  CG        39.1130   44.6680   77.7050 C.3    16  LYS16       0.0038
     19  CD        39.9120   43.3790   77.8020 C.3    16  LYS16       0.0206
     20  CE        41.2290   43.6090   78.5260 C.3    16  LYS16       0.1093
     21  NZ        42.2910   42.6690   78.0740 N.3    16  LYS16      -0.1314
     22  N         39.2950   47.3270   73.9720 N.am   17  GLY17      -0.1955
     23  CA        39.3590   47.4330   72.5340 C.3    17  GLY17       0.1869
     24  C         40.2230   46.3430   71.9380 C.2    17  GLY17       0.2309
     25  O         40.4700   45.2990   72.5520 O.2    17  GLY17      -0.2863
     26  N         43.6090   48.1400   73.5070 N.3    20  SER20      -0.1217
     27  CA        43.4100   49.2410   74.4320 C.3    20  SER20       0.1889
     28  C         42.4670   48.7820   75.5300 C.2    20  SER20       0.2288
     29  O         41.7120   47.8190   75.3680 O.2    20  SER20      -0.2866
     30  CB        42.8450   50.4810   73.7290 C.3    20  SER20       0.2089
     31  OG        41.4990   50.2710   73.3380 O.3    20  SER20      -0.2183
     32  N         39.7400   50.6460   78.4810 N.3    22  VAL22      -0.1245
     33  CA        39.0690   51.8400   78.9750 C.3    22  VAL22       0.1561
     34  C         38.7590   51.6130   80.4450 C.2    22  VAL22       0.2260
     35  O         38.0640   50.6530   80.8010 O.2    22  VAL22      -0.2867
     36  CB        37.7930   52.1520   78.1800 C.3    22  VAL22       0.0252
     37  CG1       37.1210   53.3990   78.7330 C.3    22  VAL22       0.0019
     38  CG2       38.1200   52.3260   76.7070 C.3    22  VAL22       0.0019
     39  N         36.6830   58.8330   81.7740 N.3    35  ALA35      -0.1245
     40  CA        37.0550   57.5510   81.1960 C.3    35  ALA35       0.1562
     41  C         38.3410   57.7430   80.4090 C.2    35  ALA35       0.2260
     42  O         38.4390   58.6630   79.5900 O.2    35  ALA35      -0.2867
     43  CB        35.9490   56.9980   80.2940 C.3    35  ALA35       0.0290
     44  N         41.0720   56.0590   77.8520 N.3    37  LYS37      -0.1245
     45  CA        41.5010   55.0210   76.9240 C.3    37  LYS37       0.1561
     46  C         43.0150   54.8810   77.0240 C.2    37  LYS37       0.2260
     47  O         43.7530   55.8270   76.7310 O.2    37  LYS37      -0.2867
     48  CB        41.0740   55.3570   75.4970 C.3    37  LYS37       0.0271
     49  CG        41.3260   54.2310   74.5040 C.3    37  LYS37       0.0035
     50  CD        40.8450   54.5900   73.1080 C.3    37  LYS37       0.0206
     51  CE        41.0220   53.4190   72.1540 C.3    37  LYS37       0.1093
     52  NZ        40.6390   53.7670   70.7570 N.3    37  LYS37      -0.1314
     53  N         43.8400   59.6760   65.7200 N.3    55  GLU55      -0.1245
     54  CA        42.6710   59.4630   66.5670 C.3    55  GLU55       0.1567
     55  C         42.5010   60.6040   67.5630 C.2    55  GLU55       0.2260
     56  O         41.3900   61.1110   67.7620 O.2    55  GLU55      -0.2867
     57  CB        42.7920   58.1250   67.2960 C.3    55  GLU55       0.0388
     58  CG        41.6020   57.7880   68.1790 C.3    55  GLU55       0.1160
     59  CD        41.8310   56.5440   69.0150 C.2    55  GLU55       0.3649
     60  OE1       42.8730   55.8810   68.8230 O.co2  55  GLU55      -0.2457
     61  OE2       40.9700   56.2270   69.8630 O.co2  55  GLU55      -0.2457
     62  N         39.3880   63.2510   67.6510 N.3    59  CYS59      -0.1235
     63  CA        38.5630   63.3850   68.8480 C.3    59  CYS59       0.1677
     64  C         38.5330   64.8240   69.3500 C.2    59  CYS59       0.2270
     65  O         37.4960   65.2970   69.8290 O.2    59  CYS59      -0.2867
     66  CB        39.0660   62.4450   69.9440 C.3    59  CYS59       0.0956
     67  SG        38.7190   60.6960   69.6460 S.3    59  CYS59      -0.0801
     68  N         31.1930   61.2750   72.1560 N.3    68  VAL68      -0.1245
     69  CA        32.0030   61.3900   73.3610 C.3    68  VAL68       0.1561
     70  C         32.9830   62.5400   73.1970 C.2    68  VAL68       0.2260
     71  O         33.5360   62.7730   72.1130 O.2    68  VAL68      -0.2867
     72  CB        32.7370   60.0750   73.6700 C.3    68  VAL68       0.0252
     73  CG1       31.7410   58.9930   74.0470 C.3    68  VAL68       0.0019
     74  CG2       33.5930   59.6440   72.4920 C.3    68  VAL68       0.0019
     75  N         38.4110   61.0400   78.2410 N.3    84  PHE84      -0.1227
     76  CA        37.1120   61.5210   77.7970 C.3    84  PHE84       0.1736
     77  C         36.2150   61.7820   78.9990 C.2    84  PHE84       0.2595
     78  O         36.4050   61.2160   80.0800 O.2    84  PHE84      -0.2718
     79  CB        36.4290   60.5070   76.8700 C.3    84  PHE84       0.0547
     80  CG        37.2050   60.1920   75.6220 C.ar   84  PHE84      -0.0202
     81  CD1       38.2330   59.2640   75.6450 C.ar   84  PHE84      -0.0042
     82  CD2       36.8910   60.8080   74.4210 C.ar   84  PHE84      -0.0042
     83  CE1       38.9450   58.9670   74.4980 C.ar   84  PHE84      -0.0003
     84  CE2       37.5990   60.5140   73.2680 C.ar   84  PHE84      -0.0003
     85  CZ        38.6280   59.5930   73.3070 C.ar   84  PHE84      -0.0000
     86  N         35.2260   62.6510   78.7970 N.am   85  ASP85      -0.1960
     87  CA        34.1660   62.8010   79.7850 C.3    85  ASP85       0.1840
     88  C         33.4530   61.4680   79.9760 C.2    85  ASP85       0.2622
     89  O         33.2480   60.7110   79.0230 O.2    85  ASP85      -0.2715
     90  CB        33.1740   63.8850   79.3530 C.3    85  ASP85       0.1450
     91  CG        33.7870   65.2780   79.3580 C.2    85  ASP85       0.3671
     92  OD1       34.8260   65.4720   80.0230 O.co2  85  ASP85      -0.2456
     93  OD2       33.2190   66.1870   78.7110 O.co2  85  ASP85      -0.2456
     94  N         33.0910   61.1710   81.2210 N.am   86  LEU86      -0.1963
     95  CA        32.4930   59.8890   81.5630 C.3    86  LEU86       0.1728
     96  C         30.9930   59.9170   81.2990 C.2    86  LEU86       0.2616
     97  O         30.2920   60.8270   81.7520 O.2    86  LEU86      -0.2715
     98  CB        32.7610   59.5420   83.0280 C.3    86  LEU86       0.0311
     99  CG        32.2620   58.1740   83.4990 C.3    86  LEU86       0.0022
    100  CD1       33.0370   57.0640   82.8070 C.3    86  LEU86       0.0001
    101  CD2       32.3770   58.0510   85.0100 C.3    86  LEU86       0.0001
    102  N         30.5100   58.9250   80.5560 N.am   87  VAL87      -0.1963
    103  CA        29.0840   58.6540   80.4210 C.3    87  VAL87       0.1727
    104  C         28.7910   57.3560   81.1600 C.2    87  VAL87       0.2616
    105  O         29.5500   56.3850   81.0560 O.2    87  VAL87      -0.2715
    106  CB        28.6380   58.5840   78.9450 C.3    87  VAL87       0.0290
    107  CG1       28.7720   59.9500   78.2890 C.3    87  VAL87       0.0023
    108  CG2       29.4450   57.5480   78.1790 C.3    87  VAL87       0.0023
    109  N         27.7020   57.3460   81.9240 N.am   88  THR88      -0.1951
    110  CA        27.4460   56.2860   82.8890 C.3    88  THR88       0.1897
    111  C         26.3220   55.3420   82.4850 C.2    88  THR88       0.2313
    112  O         25.9870   54.4380   83.2580 O.2    88  THR88      -0.2863
    113  CB        27.1310   56.8970   84.2590 C.3    88  THR88       0.1794
    114  OG1       26.1750   57.9530   84.1030 O.3    88  THR88      -0.2208
    115  CG2       28.3950   57.4530   84.8970 C.3    88  THR88       0.0378
    116  N         26.2470   53.0560   80.1070 N.3    90  GLY90      -0.1210
    117  CA        26.6450   51.7920   79.5300 C.3    90  GLY90       0.1956
    118  C         26.3420   51.7240   78.0440 C.2    90  GLY90       0.2611
    119  O         26.0190   52.7200   77.3900 O.2    90  GLY90      -0.2717
    120  N         26.4470   50.5110   77.5090 N.am   91  GLU91      -0.1979
    121  CA        26.2000   50.2870   76.0920 C.3    91  GLU91       0.1602
    122  C         24.7030   50.2710   75.8040 C.2    91  GLU91       0.2287
    123  O         23.9050   49.7890   76.6130 O.2    91  GLU91      -0.2864
    124  CB        26.8540   48.9800   75.6410 C.3    91  GLU91       0.0415
    125  CG        28.3720   49.0750   75.5330 C.3    91  GLU91       0.1163
    126  CD        29.0520   47.7200   75.4680 C.2    91  GLU91       0.3649
    127  OE1       30.2420   47.6350   75.8390 O.co2  91  GLU91      -0.2457
    128  OE2       28.3990   46.7410   75.0510 O.co2  91  GLU91      -0.2457
    129  N         22.6140   46.9630   75.7720 N.3    94  GLU94      -0.1245
    130  CA        22.4130   46.3880   77.0980 C.3    94  GLU94       0.1567
    131  C         21.2880   47.0880   77.8490 C.2    94  GLU94       0.2260
    132  O         20.6070   46.4610   78.6680 O.2    94  GLU94      -0.2867
    133  CB        23.7060   46.4580   77.9100 C.3    94  GLU94       0.0388
    134  CG        24.8370   45.6010   77.3680 C.3    94  GLU94       0.1160
    135  CD        24.5460   44.1150   77.4610 C.2    94  GLU94       0.3649
    136  OE1       25.1980   43.3390   76.7310 O.co2  94  GLU94      -0.2457
    137  OE2       23.6730   43.7190   78.2630 O.co2  94  GLU94      -0.2457
    138  N         28.9780   50.2220   65.1960 N.3   132  LYS132     -0.1245
    139  CA        28.5060   48.9550   65.7300 C.3   132  LYS132      0.1561
    140  C         27.9210   49.2100   67.1120 C.2   132  LYS132      0.2260
    141  O         28.2120   50.2430   67.7280 O.2   132  LYS132     -0.2867
    142  CB        29.6430   47.9210   65.7940 C.3   132  LYS132      0.0271
    143  CG        30.8310   48.3420   66.6320 C.3   132  LYS132      0.0035
    144  CD        31.9130   47.2770   66.5960 C.3   132  LYS132      0.0206
    145  CE        33.0960   47.6580   67.4620 C.3   132  LYS132      0.1093
    146  NZ        34.1500   46.6070   67.4400 N.3   132  LYS132     -0.1314
    147  N         28.5510   48.1020   70.0990 N.3   134  GLU134     -0.1231
    148  CA        29.5050   48.2880   71.1890 C.3   134  GLU134      0.1699
    149  C         30.0770   49.6990   71.2320 C.2   134  GLU134      0.2592
    150  O         30.6290   50.0980   72.2630 O.2   134  GLU134     -0.2718
    151  CB        30.6490   47.2780   71.0800 C.3   134  GLU134      0.0402
    152  CG        30.2320   45.8250   71.2420 C.3   134  GLU134      0.1161
    153  CD        29.9170   45.1550   69.9190 C.2   134  GLU134      0.3649
    154  OE1       29.7250   45.8750   68.9170 O.co2 134  GLU134     -0.2457
    155  OE2       29.8670   43.9080   69.8820 O.co2 134  GLU134     -0.2457
    156  N         29.9630   50.4600   70.1450 N.am  135  ASN135     -0.1974
    157  CA        30.4540   51.8300   70.0960 C.3   135  ASN135      0.1688
    158  C         29.3700   52.8570   70.3960 C.2   135  ASN135      0.2292
    159  O         29.6110   54.0580   70.2450 O.2   135  ASN135     -0.2864
    160  CB        31.0850   52.1160   68.7310 C.3   135  ASN135      0.1181
    161  CG        32.4530   51.4820   68.5800 C.2   135  ASN135      0.2629
    162  OD1       33.1540   51.2520   69.5650 O.2   135  ASN135     -0.2716
    163  ND2       32.8420   51.1980   67.3420 N.am  135  ASN135     -0.0877
    164  N         27.0620   54.4050   73.3100 N.3   137  LEU137     -0.1245
    165  CA        26.9590   54.5150   74.7570 C.3   137  LEU137      0.1561
    166  C         25.8590   55.5010   75.1270 C.2   137  LEU137      0.2260
    167  O         25.5380   56.4150   74.3610 O.2   137  LEU137     -0.2867
    168  CB        28.2900   54.9660   75.3710 C.3   137  LEU137      0.0270
    169  CG        29.5260   54.1500   74.9870 C.3   137  LEU137      0.0019
    170  CD1       30.7950   54.8850   75.3860 C.3   137  LEU137      0.0001
    171  CD2       29.4830   52.7690   75.6230 C.3   137  LEU137      0.0001
    172  N         31.2210   56.6520   70.0910 N.3   150  ALA150     -0.1231
    173  CA        32.5260   56.5710   70.7300 C.3   150  ALA150      0.1694
    174  C         33.5150   55.8180   69.8480 C.2   150  ALA150      0.2592
    175  O         33.1440   55.1570   68.8730 O.2   150  ALA150     -0.2718
    176  CB        32.4310   55.8960   72.1060 C.3   150  ALA150      0.0304
    177  N         34.7930   55.9440   70.2160 N.am  151  ASP151     -0.1960
    178  CA        35.9130   55.2270   69.6120 C.3   151  ASP151      0.1840
    179  C         36.1210   55.5950   68.1480 C.2   151  ASP151      0.2622
    180  O         35.4360   55.0760   67.2610 O.2   151  ASP151     -0.2715
    181  CB        35.7250   53.7140   69.7530 C.3   151  ASP151      0.1450
    182  CG        37.0420   52.9560   69.7110 C.2   151  ASP151      0.3671
    183  OD1       37.9670   53.3930   68.9930 O.co2 151  ASP151     -0.2456
    184  OD2       37.1540   51.9230   70.4040 O.co2 151  ASP151     -0.2456
    185  N         37.0830   56.4790   67.8880 N.am  152  PHE152     -0.1974
    186  CA        37.4630   56.8630   66.5350 C.3   152  PHE152      0.1639
    187  C         38.8390   56.3220   66.1600 C.2   152  PHE152      0.2290
    188  O         39.5660   56.9410   65.3790 O.2   152  PHE152     -0.2864
    189  CB        37.4170   58.3820   66.3810 C.3   152  PHE152      0.0560
    190  CG        36.0350   58.9540   66.5020 C.ar  152  PHE152     -0.0200
    191  CD1       35.5340   59.3400   67.7350 C.ar  152  PHE152     -0.0042
    192  CD2       35.2290   59.0870   65.3850 C.ar  152  PHE152     -0.0042
    193  CE1       34.2560   59.8580   67.8480 C.ar  152  PHE152     -0.0003
    194  CE2       33.9520   59.6010   65.4900 C.ar  152  PHE152     -0.0003
    195  CZ        33.4650   59.9890   66.7230 C.ar  152  PHE152     -0.0000
    196  N         29.3420   38.1860   73.1190 N.3   293  LYS293     -0.1245
    197  CA        30.3390   38.2190   74.1820 C.3   293  LYS293      0.1561
    198  C         31.1760   36.9440   74.1640 C.2   293  LYS293      0.2260
    199  O         32.1880   36.8430   74.8560 O.2   293  LYS293     -0.2867
    200  CB        29.6750   38.3950   75.5470 C.3   293  LYS293      0.0271
    201  CG        28.8920   39.6850   75.6990 C.3   293  LYS293      0.0035
    202  CD        28.0510   39.6670   76.9630 C.3   293  LYS293      0.0206
    203  CE        27.1430   40.8790   77.0310 C.3   293  LYS293      0.1093
    204  NZ        25.7050   40.4970   76.9680 N.3   293  LYS293     -0.1314
@<TRIPOS>BOND
     1   138   139    1
     2   188   187    2
     3   192   194   ar
     4   192   190   ar
     5   194   195   ar
     6    53    54    1
     7   139   142    1
     8   139   140    1
     9   142   143    1
    10   187   186    1
    11   189   190    1
    12   189   186    1
    13   190   191   ar
    14   186   185    1
    15    54    57    1
    16    54    55    1
    17   144   143    1
    18   144   145    1
    19   195   193   ar
    20   140   141    2
    21   180   179    2
    22    57    58    1
    23   163   161   am
    24   146   145    1
    25    55    56    2
    26    62    63    1
    27   191   193   ar
    28   185   179   am
    29   179   178    1
    30    58    59    1
    31   161   160    1
    32   161   162    2
    33   160   157    1
    34    60    59   ar
    35    63    64    1
    36    63    66    1
    37   175   174    2
    38   154   153   ar
    39   183   182   ar
    40    59    61   ar
    41    64    65    2
    42   178   181    1
    43   178   177    1
    44    67    66    1
    45   182   181    1
    46   182   184   ar
    47   174   177   am
    48   174   173    1
    49   155   153   ar
    50   153   152    1
    51   172   173    1
    52   157   156    1
    53   157   158    1
    54   147   148    1
    55   156   149   am
    56   159   158    2
    57   173   176    1
    58    52    51    1
    59   151   148    1
    60   151   152    1
    61   148   149    1
    62   149   150    2
    63    24    23    1
    64    24    25    2
    65    71    70    2
    66    51    50    1
    67    68    69    1
    68    74    72    1
    69    23    22    1
    70    50    49    1
    71   196   197    1
    72    70    69    1
    73    84    85   ar
    74    84    82   ar
    75    85    83   ar
    76   164   165    1
    77    31    30    1
    78    69    72    1
    79    26    27    1
    80    72    73    1
    81    30    27    1
    82    22    15   am
    83    16    15    2
    84   198   197    1
    85   198   199    2
    86   197   200    1
    87   167   166    2
    88    82    80   ar
    89    27    28    1
    90    83    81   ar
    91    49    48    1
    92    15    14    1
    93   165   166    1
    94   165   168    1
    95   169   168    1
    96   169   170    1
    97   169   171    1
    98   128   126   ar
    99    29    28    2
   100   126   125    1
   101   126   127   ar
   102    48    45    1
   103   125   124    1
   104   200   201    1
   105    80    81   ar
   106    80    79    1
   107   124   121    1
   108   201   202    1
   109   129   130    1
   110   122   121    1
   111   122   123    2
   112   121   120    1
   113    14    17    1
   114    14    13    1
   115    17    18    1
   116    38    36    1
   117   136   135   ar
   118    47    46    2
   119    13    11   am
   120    79    76    1
   121    45    46    1
   122    45    44    1
   123   202   203    1
   124   204   203    1
   125   130   131    1
   126   130   133    1
   127   134   135    1
   128   134   133    1
   129   119   118    2
   130   135   137   ar
   131   120   118   am
   132    18    19    1
   133    76    75    1
   134    76    77    1
   135    19    20    1
   136    11    12    2
   137    11    10    1
   138   131   132    2
   139   118   117    1
   140    21    20    1
   141   108   106    1
   142    36    37    1
   143    36    33    1
   144   107   106    1
   145    10     9    1
   146    32    33    1
   147    93    91   ar
   148    86    77   am
   149    86    87    1
   150   106   103    1
   151    33    34    1
   152    77    78    2
   153    89    88    2
   154    90    91    1
   155    90    87    1
   156    91    92   ar
   157   117   116    1
   158    42    41    2
   159     9     3   am
   160    87    88    1
   161    88    94   am
   162     4     3    2
   163    43    40    1
   164     3     2    1
   165    41    40    1
   166   103   102    1
   167   103   104    1
   168    34    35    2
   169   102    96   am
   170   105   104    2
   171   104   109   am
   172    40    39    1
   173    94    95    1
   174     5     2    1
   175     5     6    1
   176    96    95    1
   177    96    97    2
   178    95    98    1
   179     2     1    1
   180   109   110    1
   181     7     6    1
   182     6     8    1
   183   111   110    1
   184   111   112    2
   185   100    99    1
   186   110   113    1
   187    98    99    1
   188    99   101    1
   189   114   113    1
   190   113   115    1
