@<TRIPOS>MOLECULE
tmp/5vlqB00.pdb
 132 123 0 0 0
SMALL
GASTEIGER

@<TRIPOS>ATOM
      1  N        -22.2090   20.5810   -3.5570 N.3    97  LYS97      -0.1245
      2  CA       -21.2880   21.6400   -3.9410 C.3    97  LYS97       0.1561
      3  C        -19.8460   21.1570   -3.8440 C.2    97  LYS97       0.2260
      4  O        -19.0430   21.4000   -4.7430 O.2    97  LYS97      -0.2867
      5  CB       -21.4920   22.8770   -3.0640 C.3    97  LYS97       0.0271
      6  CG       -20.6680   24.0870   -3.5230 C.3    97  LYS97       0.0035
      7  CD       -20.8600   24.4200   -5.0050 C.3    97  LYS97       0.0206
      8  CE       -21.1390   25.9060   -5.2600 C.3    97  LYS97       0.1093
      9  NZ       -21.9500   26.1460   -6.4660 N.3    97  LYS97      -0.1314
     10  N        -17.4990   28.6370  -11.5660 N.3   120  PRO120     -0.2116
     11  CA       -16.7570   29.6050  -10.7480 C.3   120  PRO120      0.1372
     12  C        -15.8590   28.9140   -9.7310 C.2   120  PRO120      0.2244
     13  O        -16.3150   28.0360   -8.9980 O.2   120  PRO120     -0.2868
     14  CB       -17.8610   30.4180  -10.0590 C.3   120  PRO120      0.0268
     15  CG       -19.0900   29.6090  -10.1820 C.3   120  PRO120      0.0207
     16  CD       -18.9560   28.8130  -11.4330 C.3   120  PRO120      0.0892
     17  N        -18.6170   33.1490   -1.6030 N.3   223  ILE223     -0.1245
     18  CA       -19.6950   32.4160   -0.9520 C.3   223  ILE223      0.1561
     19  C        -19.1120   31.2430   -0.1700 C.2   223  ILE223      0.2260
     20  O        -18.3910   30.4200   -0.7310 O.2   223  ILE223     -0.2867
     21  CB       -20.7250   31.8960   -1.9710 C.3   223  ILE223      0.0252
     22  CG1      -21.2850   33.0450   -2.7990 C.3   223  ILE223      0.0019
     23  CG2      -21.8340   31.1370   -1.2490 C.3   223  ILE223      0.0019
     24  CD1      -22.1140   32.4710   -3.9570 C.3   223  ILE223      0.0001
     25  N        -19.8450   27.9020    2.0940 N.3   225  LYS225     -0.1245
     26  CA       -20.8130   26.8640    2.4450 C.3   225  LYS225      0.1561
     27  C        -20.2770   25.9660    3.5560 C.2   225  LYS225      0.2260
     28  O        -19.5330   25.0180    3.2980 O.2   225  LYS225     -0.2867
     29  CB       -21.1600   26.0210    1.2170 C.3   225  LYS225      0.0271
     30  CG       -21.8730   26.7520    0.0970 C.3   225  LYS225      0.0035
     31  CD       -23.3780   26.6670    0.2620 C.3   225  LYS225      0.0206
     32  CE       -24.1130   27.5820   -0.7230 C.3   225  LYS225      0.1093
     33  NZ       -23.8130   27.2770   -2.1540 N.3   225  LYS225     -0.1314
     34  N        -16.4850   29.5310   -2.6520 N.3   240  GLN240     -0.1231
     35  CA       -16.5550   29.7320   -4.0960 C.3   240  GLN240      0.1698
     36  C        -16.6360   31.2150   -4.4240 C.2   240  GLN240      0.2592
     37  O        -17.2280   31.9920   -3.6760 O.2   240  GLN240     -0.2718
     38  CB       -17.7640   28.9990   -4.6780 C.3   240  GLN240      0.0381
     39  CG       -17.9070   29.1320   -6.1850 C.3   240  GLN240      0.0905
     40  CD       -19.0930   28.3580   -6.7240 C.2   240  GLN240      0.2608
     41  OE1      -20.2430   28.6620   -6.4050 O.2   240  GLN240     -0.2717
     42  NE2      -18.8190   27.3450   -7.5380 N.am  240  GLN240     -0.0878
     43  N        -16.0440   31.6080   -5.5470 N.am  241  LYS241     -0.1966
     44  CA       -16.0510   33.0100   -5.9400 C.3   241  LYS241      0.1728
     45  C        -17.4470   33.4380   -6.3780 C.2   241  LYS241      0.2616
     46  O        -18.0440   32.8370   -7.2730 O.2   241  LYS241     -0.2715
     47  CB       -15.0460   33.2720   -7.0640 C.3   241  LYS241      0.0311
     48  CG       -14.9490   34.7390   -7.4830 C.3   241  LYS241      0.0038
     49  CD       -14.3540   35.6100   -6.3800 C.3   241  LYS241      0.0206
     50  CE       -14.5690   37.0910   -6.6510 C.3   241  LYS241      0.1093
     51  NZ       -16.0080   37.4740   -6.5840 N.3   241  LYS241     -0.1314
     52  N        -17.9560   34.4830   -5.7370 N.am  242  TYR242     -0.1960
     53  CA       -19.2690   35.0200   -6.0580 C.3   242  TYR242      0.1771
     54  C        -19.2520   35.7040   -7.4210 C.2   242  TYR242      0.2619
     55  O        -18.2900   36.3870   -7.7750 O.2   242  TYR242     -0.2715
     56  CB       -19.7140   36.0020   -4.9720 C.3   242  TYR242      0.0574
     57  CG       -21.1170   36.5420   -5.1410 C.ar  242  TYR242     -0.0198
     58  CD1      -22.2130   35.8560   -4.6330 C.ar  242  TYR242     -0.0009
     59  CD2      -21.3430   37.7490   -5.7900 C.ar  242  TYR242     -0.0009
     60  CE1      -23.4970   36.3510   -4.7770 C.ar  242  TYR242      0.0417
     61  CE2      -22.6220   38.2530   -5.9400 C.ar  242  TYR242      0.0417
     62  CZ       -23.6950   37.5510   -5.4310 C.ar  242  TYR242      0.1957
     63  OH       -24.9690   38.0520   -5.5800 O.3   242  TYR242     -0.2866
     64  N        -20.3220   35.5020   -8.1810 N.am  243  ILE243     -0.1977
     65  CA       -20.4910   36.1410   -9.4800 C.3   243  ILE243      0.1596
     66  C        -21.0390   37.5490   -9.2690 C.2   243  ILE243      0.2287
     67  O        -22.2450   37.7380   -9.1110 O.2   243  ILE243     -0.2864
     68  CB       -21.4360   35.3210  -10.3880 C.3   243  ILE243      0.0276
     69  CG1      -20.8470   33.9280  -10.6310 C.3   243  ILE243      0.0022
     70  CG2      -21.6720   36.0400  -11.7150 C.3   243  ILE243      0.0022
     71  CD1      -21.7800   32.9690  -11.3490 C.3   243  ILE243      0.0001
     72  N        -31.3540   40.1590  -11.2080 N.3   253  LYS253     -0.1245
     73  CA       -30.5940   38.9150  -11.2700 C.3   253  LYS253      0.1561
     74  C        -31.5150   37.7380  -11.5780 C.2   253  LYS253      0.2260
     75  O        -32.7010   37.7640  -11.2480 O.2   253  LYS253     -0.2867
     76  CB       -29.8520   38.6780   -9.9510 C.3   253  LYS253      0.0271
     77  CG       -29.0050   37.4270   -9.9210 C.3   253  LYS253      0.0035
     78  CD       -28.3140   37.2820   -8.5710 C.3   253  LYS253      0.0206
     79  CE       -28.7410   36.0030   -7.8410 C.3   253  LYS253      0.1093
     80  NZ       -30.0820   36.1280   -7.3020 N.3   253  LYS253     -0.1314
     81  N        -31.4670   33.1300  -12.8280 N.3   255  ASP255     -0.1239
     82  CA       -30.7780   31.9160  -13.2490 C.3   255  ASP255      0.1674
     83  C        -31.7040   31.0870  -14.1340 C.2   255  ASP255      0.2266
     84  O        -32.8780   31.4210  -14.3010 O.2   255  ASP255     -0.2867
     85  CB       -30.2890   31.1000  -12.0400 C.3   255  ASP255      0.1410
     86  CG       -31.4170   30.6310  -11.1300 C.2   255  ASP255      0.3668
     87  OD1      -32.5970   30.6580  -11.5360 O.co2 255  ASP255     -0.2456
     88  OD2      -31.1080   30.2070   -9.9950 O.co2 255  ASP255     -0.2456
     89  N        -35.7040   31.9770  -13.6650 N.3   279  ARG279     -0.1245
     90  CA       -36.2260   32.3880  -12.3640 C.3   279  ARG279      0.1563
     91  C        -35.6440   33.7410  -11.9620 C.2   279  ARG279      0.2260
     92  O        -34.4520   33.8590  -11.6790 O.2   279  ARG279     -0.2867
     93  CB       -35.9120   31.3360  -11.3010 C.3   279  ARG279      0.0307
     94  CG       -36.4520   29.9560  -11.6340 C.3   279  ARG279      0.0489
     95  CD       -36.1250   28.9380  -10.5540 C.3   279  ARG279      0.2205
     96  NE       -34.6860   28.8160  -10.3290 N.pl3 279  ARG279     -0.0865
     97  CZ       -34.1050   27.7960   -9.7050 C.cat 279  ARG279      0.5346
     98  NH1      -34.8340   26.7880   -9.2420 N.pl3 279  ARG279      0.1354
     99  NH2      -32.7890   27.7790   -9.5500 N.pl3 279  ARG279      0.1354
    100  N        -26.1910   30.4260  -14.1510 N.3   353  MET353     -0.1245
    101  CA       -26.1720   31.8830  -14.2400 C.3   353  MET353      0.1570
    102  C        -25.3560   32.2650  -15.4670 C.2   353  MET353      0.2261
    103  O        -24.6560   31.4240  -16.0330 O.2   353  MET353     -0.2867
    104  CB       -25.5840   32.5120  -12.9770 C.3   353  MET353      0.0387
    105  CG       -26.4760   32.3860  -11.7590 C.3   353  MET353      0.0595
    106  SD       -25.8050   33.2150  -10.3070 S.3   353  MET353     -0.1393
    107  CE       -25.9470   34.9360  -10.7940 C.3   353  MET353      0.0692
    108  N        -23.8960   26.4900  -11.4730 N.3   363  ILE363     -0.1231
    109  CA       -23.9100   26.7860  -10.0410 C.3   363  ILE363      0.1692
    110  C        -24.1070   25.5010   -9.2390 C.2   363  ILE363      0.2591
    111  O        -23.3770   25.2460   -8.2820 O.2   363  ILE363     -0.2718
    112  CB       -25.0150   27.8190   -9.6860 C.3   363  ILE363      0.0266
    113  CG1      -24.4800   29.2450   -9.8260 C.3   363  ILE363      0.0019
    114  CG2      -25.5000   27.6560   -8.2530 C.3   363  ILE363      0.0020
    115  CD1      -24.0360   29.6070  -11.2150 C.3   363  ILE363      0.0001
    116  N        -25.0930   24.6970   -9.6250 N.am  364  GLN364     -0.1979
    117  CA       -25.3300   23.4240   -8.9520 C.3   364  GLN364      0.1601
    118  C        -26.1700   22.4670   -9.7920 C.2   364  GLN364      0.2287
    119  O        -26.8280   22.8700  -10.7540 O.2   364  GLN364     -0.2864
    120  CB       -26.0140   23.6520   -7.6020 C.3   364  GLN364      0.0394
    121  CG       -27.4490   24.1610   -7.6890 C.3   364  GLN364      0.0908
    122  CD       -28.1560   24.1860   -6.3390 C.2   364  GLN364      0.2608
    123  OE1      -29.3870   24.1720   -6.2750 O.2   364  GLN364     -0.2717
    124  NE2      -27.3840   24.2290   -5.2550 N.am  364  GLN364     -0.0878
    125  N        -29.1050   19.3680   -9.1710 N.3   366  ASN366     -0.1240
    126  CA       -30.0510   18.8810   -8.1760 C.3   366  ASN366      0.1653
    127  C        -30.7190   17.5870   -8.6180 C.2   366  ASN366      0.2266
    128  O        -31.1480   17.4560   -9.7650 O.2   366  ASN366     -0.2867
    129  CB       -31.1120   19.9450   -7.8960 C.3   366  ASN366      0.1155
    130  CG       -30.5070   21.2740   -7.4780 C.2   366  ASN366      0.2627
    131  OD1      -30.2580   22.1490   -8.3100 O.2   366  ASN366     -0.2716
    132  ND2      -30.2630   21.4300   -6.1820 N.am  366  ASN366     -0.0877
@<TRIPOS>BOND
     1   103   102    2
     2   102   101    1
     3    84    83    2
     4   101   100    1
     5   101   104    1
     6    83    82    1
     7    89    90    1
     8    82    81    1
     9    82    85    1
    10   104   105    1
    11    90    91    1
    12    90    93    1
    13    85    86    1
    14    91    92    2
    15   105   106    1
    16    70    68    1
    17    94    93    1
    18    94    95    1
    19    74    73    1
    20    74    75    2
    21    10    16    1
    22    10    11    1
    23    87    86   ar
    24   108   109    1
    25    16    15    1
    26    71    69    1
    27    73    72    1
    28    73    76    1
    29   115   113    1
    30    86    88   ar
    31   107   106    1
    32   119   118    2
    33    11    14    1
    34    11    12    1
    35    69    68    1
    36    95    96    1
    37    68    65    1
    38    96    97    2
    39    15    14    1
    40   109   112    1
    41   109   110    1
    42    76    77    1
    43    77    78    1
    44   113   112    1
    45   118   117    1
    46   128   127    2
    47    12    13    2
    48    97    99    1
    49    97    98    1
    50   112   114    1
    51   116   110   am
    52   116   117    1
    53    65    66    1
    54    65    64    1
    55    66    67    2
    56   110   111    2
    57   125   126    1
    58   117   120    1
    59   127   126    1
    60    78    79    1
    61   131   130    2
    62    64    54   am
    63   126   129    1
    64   129   130    1
    65    79    80    1
    66    55    54    2
    67   121   120    1
    68   121   122    1
    69    42    40   am
    70    48    47    1
    71    48    49    1
    72   130   132   am
    73    54    53    1
    74    46    45    2
    75    47    44    1
    76    40    41    2
    77    40    39    1
    78    50    51    1
    79    50    49    1
    80     9     8    1
    81    45    44    1
    82    45    52   am
    83   122   123    2
    84   122   124   am
    85    39    38    1
    86    53    52    1
    87    53    56    1
    88    61    59   ar
    89    61    62   ar
    90    44    43    1
    91    59    57   ar
    92    63    62    1
    93    43    36   am
    94    62    60   ar
    95     8     7    1
    96    57    56    1
    97    57    58   ar
    98     7     6    1
    99    60    58   ar
   100     4     3    2
   101    38    35    1
   102    36    35    1
   103    36    37    2
   104    35    34    1
   105    24    22    1
   106     2     3    1
   107     2     1    1
   108     2     5    1
   109     6     5    1
   110    22    21    1
   111    33    32    1
   112    21    23    1
   113    21    18    1
   114    17    18    1
   115    18    19    1
   116    20    19    2
   117    32    31    1
   118    30    31    1
   119    30    29    1
   120    29    26    1
   121    25    26    1
   122    26    27    1
   123    28    27    2
