@<TRIPOS>MOLECULE
tmp/5vlqA00.pdb
 131 122 0 0 0
SMALL
GASTEIGER

@<TRIPOS>ATOM
      1  N        -25.5730  -21.2610   -5.8930 N.3    97  LYS97      -0.1245
      2  CA       -24.8360  -22.3550   -6.5180 C.3    97  LYS97       0.1561
      3  C        -24.1630  -21.8770   -7.7990 C.2    97  LYS97       0.2260
      4  O        -22.9740  -22.1130   -8.0130 O.2    97  LYS97      -0.2867
      5  CB       -25.7690  -23.5320   -6.8180 C.3    97  LYS97       0.0271
      6  CG       -25.0870  -24.7440   -7.4100 C.3    97  LYS97       0.0035
      7  CD       -24.1900  -25.4820   -6.4020 C.3    97  LYS97       0.0206
      8  CE       -22.8390  -24.7880   -6.2000 C.3    97  LYS97       0.1093
      9  NZ       -22.1150  -24.6070   -7.4980 N.3    97  LYS97      -0.1314
     10  N        -16.9870  -29.7380   -5.7980 N.3   120  PRO120     -0.2116
     11  CA       -17.3590  -30.6710   -6.8680 C.3   120  PRO120      0.1372
     12  C        -17.6100  -29.9490   -8.1860 C.2   120  PRO120      0.2244
     13  O        -18.3530  -28.9670   -8.2190 O.2   120  PRO120     -0.2868
     14  CB       -18.6370  -31.3360   -6.3380 C.3   120  PRO120      0.0268
     15  CG       -19.1380  -30.4400   -5.2710 C.3   120  PRO120      0.0207
     16  CD       -17.9380  -29.7850   -4.6740 C.3   120  PRO120      0.0892
     17  N        -26.3210  -33.1710  -10.4810 N.3   212  ILE212     -0.1245
     18  CA       -27.3310  -32.3460   -9.8210 C.3   212  ILE212      0.1561
     19  C        -27.4950  -31.0060  -10.5350 C.2   212  ILE212      0.2260
     20  O        -27.5340  -30.9460  -11.7650 O.2   212  ILE212     -0.2867
     21  CB       -26.9680  -32.0850   -8.3470 C.3   212  ILE212      0.0252
     22  CG1      -28.1930  -31.6320   -7.5480 C.3   212  ILE212      0.0019
     23  CG2      -25.7180  -31.2110   -8.2220 C.3   212  ILE212      0.0019
     24  CD1      -28.0170  -31.7550   -6.0730 C.3   212  ILE212      0.0001
     25  N        -24.0300  -29.9090  -11.4840 N.3   227  GLN227     -0.1231
     26  CA       -22.8950  -30.2510  -10.6300 C.3   227  GLN227      0.1698
     27  C        -22.7990  -31.7600  -10.4290 C.2   227  GLN227      0.2592
     28  O        -23.8090  -32.4630  -10.4390 O.2   227  GLN227     -0.2718
     29  CB       -23.0150  -29.5520   -9.2740 C.3   227  GLN227      0.0381
     30  CG       -21.8230  -29.7730   -8.3570 C.3   227  GLN227      0.0905
     31  CD       -21.9400  -29.0090   -7.0540 C.2   227  GLN227      0.2608
     32  OE1      -22.7070  -29.3860   -6.1680 O.2   227  GLN227     -0.2717
     33  NE2      -21.1780  -27.9290   -6.9310 N.am  227  GLN227     -0.0878
     34  N        -21.5790  -32.2540  -10.2480 N.am  228  LYS228     -0.1966
     35  CA       -21.3730  -33.6770  -10.0220 C.3   228  LYS228      0.1728
     36  C        -21.8070  -34.0570   -8.6130 C.2   228  LYS228      0.2616
     37  O        -21.3750  -33.4520   -7.6320 O.2   228  LYS228     -0.2715
     38  CB       -19.9080  -34.0590  -10.2440 C.3   228  LYS228      0.0311
     39  CG       -19.6240  -35.5520  -10.1000 C.3   228  LYS228      0.0038
     40  CD       -20.2770  -36.3680  -11.2130 C.3   228  LYS228      0.0206
     41  CE       -20.2440  -37.8620  -10.9140 C.3   228  LYS228      0.1093
     42  NZ       -21.1080  -38.2320   -9.7560 N.3   228  LYS228     -0.1314
     43  N        -22.6680  -35.0650   -8.5240 N.am  229  TYR229     -0.1960
     44  CA       -23.1590  -35.5440   -7.2400 C.3   229  TYR229      0.1771
     45  C        -22.0830  -36.3450   -6.5180 C.2   229  TYR229      0.2619
     46  O        -21.3950  -37.1700   -7.1230 O.2   229  TYR229     -0.2715
     47  CB       -24.4140  -36.4000   -7.4380 C.3   229  TYR229      0.0574
     48  CG       -25.0910  -36.8160   -6.1500 C.ar  229  TYR229     -0.0198
     49  CD1      -24.6520  -37.9240   -5.4370 C.ar  229  TYR229     -0.0009
     50  CD2      -26.1770  -36.1070   -5.6530 C.ar  229  TYR229     -0.0009
     51  CE1      -25.2700  -38.3090   -4.2630 C.ar  229  TYR229      0.0417
     52  CE2      -26.8020  -36.4850   -4.4800 C.ar  229  TYR229      0.0417
     53  CZ       -26.3440  -37.5870   -3.7890 C.ar  229  TYR229      0.1957
     54  OH       -26.9620  -37.9680   -2.6200 O.3   229  TYR229     -0.2866
     55  N        -21.9440  -36.0940   -5.2210 N.am  230  ILE230     -0.1977
     56  CA       -21.0060  -36.8350   -4.3900 C.3   230  ILE230      0.1596
     57  C        -21.6150  -38.1860   -4.0380 C.2   230  ILE230      0.2287
     58  O        -22.3960  -38.3010   -3.0930 O.2   230  ILE230     -0.2864
     59  CB       -20.6530  -36.0570   -3.1050 C.3   230  ILE230      0.0276
     60  CG1      -19.9480  -34.7450   -3.4660 C.3   230  ILE230      0.0022
     61  CG2      -19.7660  -36.8990   -2.1890 C.3   230  ILE230      0.0022
     62  CD1      -19.7390  -33.8050   -2.2940 C.3   230  ILE230      0.0001
     63  N        -25.7340  -40.3280    5.4550 N.3   240  LYS240     -0.1245
     64  CA       -24.9970  -39.1660    4.9760 C.3   240  LYS240      0.1561
     65  C        -25.0650  -38.0320    5.9930 C.2   240  LYS240      0.2260
     66  O        -25.9720  -37.9850    6.8260 O.2   240  LYS240     -0.2867
     67  CB       -25.5480  -38.6980    3.6270 C.3   240  LYS240      0.0271
     68  CG       -25.3680  -39.7540    2.5710 C.3   240  LYS240      0.0035
     69  CD       -25.5230  -39.1470    1.2160 C.3   240  LYS240      0.0206
     70  CE       -25.9630  -40.2350    0.2960 C.3   240  LYS240      0.1093
     71  NZ       -24.7990  -40.8200   -0.3620 N.3   240  LYS240     -0.1314
     72  N        -23.4140  -33.6540    6.8370 N.3   242  ASP242     -0.1239
     73  CA       -22.5940  -32.5010    6.4860 C.3   242  ASP242      0.1674
     74  C        -22.2110  -31.7330    7.7480 C.2   242  ASP242      0.2266
     75  O        -22.6690  -32.0580    8.8450 O.2   242  ASP242     -0.2867
     76  CB       -23.3240  -31.5860    5.4880 C.3   242  ASP242      0.1410
     77  CG       -24.6340  -31.0200    6.0310 C.2   242  ASP242      0.3668
     78  OD1      -24.7110  -30.6650    7.2260 O.co2 242  ASP242     -0.2456
     79  OD2      -25.5960  -30.9120    5.2410 O.co2 242  ASP242     -0.2456
     80  N        -24.8110  -32.3120   10.8520 N.3   266  ARG266     -0.1245
     81  CA       -26.2320  -32.5480   10.6150 C.3   266  ARG266      0.1563
     82  C        -26.4330  -33.8620    9.8640 C.2   266  ARG266      0.2260
     83  O        -25.9810  -34.0130    8.7280 O.2   266  ARG266     -0.2867
     84  CB       -26.8450  -31.3900    9.8320 C.3   266  ARG266      0.0307
     85  CG       -26.6190  -30.0320   10.4790 C.3   266  ARG266      0.0489
     86  CD       -27.2280  -28.9040    9.6630 C.3   266  ARG266      0.2205
     87  NE       -26.7330  -28.8840    8.2890 N.pl3 266  ARG266     -0.0865
     88  CZ       -26.9170  -27.8790    7.4400 C.cat 266  ARG266      0.5346
     89  NH1      -27.5800  -26.7930    7.8180 N.pl3 266  ARG266      0.1354
     90  NH2      -26.4300  -27.9560    6.2090 N.pl3 266  ARG266      0.1354
     91  N        -21.6050  -24.9760    4.2950 N.3   329  ASP329     -0.1239
     92  CA       -21.9200  -26.3980    4.3940 C.3   329  ASP329      0.1674
     93  C        -20.8370  -27.2390    3.7310 C.2   329  ASP329      0.2266
     94  O        -20.5210  -27.0410    2.5570 O.2   329  ASP329     -0.2867
     95  CB       -23.2750  -26.6990    3.7520 C.3   329  ASP329      0.1410
     96  CG       -24.4230  -26.0140    4.4650 C.2   329  ASP329      0.3668
     97  OD1      -24.2690  -25.6790    5.6580 O.co2 329  ASP329     -0.2456
     98  OD2      -25.4820  -25.8130    3.8340 O.co2 329  ASP329     -0.2456
     99  N        -19.3740  -31.3080    3.0560 N.3   331  MET331     -0.1245
    100  CA       -19.4040  -32.7640    3.1260 C.3   331  MET331      0.1570
    101  C        -17.9620  -33.2470    3.0900 C.2   331  MET331      0.2261
    102  O        -17.0460  -32.4500    2.8860 O.2   331  MET331     -0.2867
    103  CB       -20.2130  -33.3650    1.9770 C.3   331  MET331      0.0387
    104  CG       -21.7050  -33.0780    2.0560 C.3   331  MET331      0.0595
    105  SD       -22.6520  -33.8830    0.7460 S.3   331  MET331     -0.1393
    106  CE       -22.4160  -35.6120    1.1540 C.3   331  MET331      0.0692
    107  N        -20.1840  -27.4410   -0.2610 N.3   341  ILE341     -0.1231
    108  CA       -21.4460  -27.6260   -0.9710 C.3   341  ILE341      0.1692
    109  C        -22.0950  -26.2700   -1.2380 C.2   341  ILE341      0.2591
    110  O        -22.5060  -25.9890   -2.3630 O.2   341  ILE341     -0.2718
    111  CB       -22.4140  -28.5450   -0.1810 C.3   341  ILE341      0.0266
    112  CG1      -22.1270  -30.0160   -0.4850 C.3   341  ILE341      0.0019
    113  CG2      -23.8680  -28.2910   -0.5600 C.3   341  ILE341      0.0020
    114  CD1      -20.7300  -30.4620   -0.1610 C.3   341  ILE341      0.0001
    115  N        -22.1840  -25.4290   -0.2110 N.am  342  GLN342     -0.1979
    116  CA       -22.7920  -24.1130   -0.3700 C.3   342  GLN342      0.1601
    117  C        -22.4380  -23.1550    0.7650 C.2   342  GLN342      0.2287
    118  O        -21.9070  -23.5610    1.8020 O.2   342  GLN342     -0.2864
    119  CB       -24.3150  -24.2410   -0.4720 C.3   342  GLN342      0.0394
    120  CG       -24.9960  -24.7390    0.7970 C.3   342  GLN342      0.0908
    121  CD       -26.5120  -24.6210    0.7410 C.2   342  GLN342      0.2608
    122  OE1      -27.1680  -24.4600    1.7710 O.2   342  GLN342     -0.2717
    123  NE2      -27.0760  -24.7030   -0.4600 N.am  342  GLN342     -0.0878
    124  N        -24.2060  -19.8330    2.9870 N.3   344  ASN344     -0.1240
    125  CA       -25.4630  -19.1720    3.3160 C.3   344  ASN344      0.1653
    126  C        -25.2380  -17.8840    4.0980 C.2   344  ASN344      0.2266
    127  O        -24.4240  -17.8410    5.0200 O.2   344  ASN344     -0.2867
    128  CB       -26.3540  -20.1160    4.1220 C.3   344  ASN344      0.1155
    129  CG       -26.5100  -21.4730    3.4610 C.2   344  ASN344      0.2627
    130  OD1      -25.7400  -22.3990    3.7260 O.2   344  ASN344     -0.2716
    131  ND2      -27.5060  -21.5970    2.5920 N.am  344  ASN344     -0.0877
@<TRIPOS>BOND
     1    20    19    2
     2    25    26    1
     3    40    41    1
     4    40    39    1
     5    41    42    1
     6    26    27    1
     7    26    29    1
     8    19    18    1
     9    17    18    1
    10    28    27    2
    11    27    34   am
    12    34    35    1
    13    38    39    1
    14    38    35    1
    15    35    36    1
    16    18    21    1
    17    29    30    1
    18    36    43   am
    19    36    37    2
    20    43    44    1
    21    30    31    1
    22    21    23    1
    23    21    22    1
    24    13    12    2
    25    12    11    1
    26     4     3    2
    27     3     2    1
    28    22    24    1
    29     9     8    1
    30    47    44    1
    31    47    48    1
    32     6     5    1
    33     6     7    1
    34    44    45    1
    35    46    45    2
    36    31    33   am
    37    31    32    2
    38    11    14    1
    39    11    10    1
    40     5     2    1
    41    45    55   am
    42     2     1    1
    43     7     8    1
    44    14    15    1
    45    48    50   ar
    46    48    49   ar
    47    10    16    1
    48    50    52   ar
    49    49    51   ar
    50    15    16    1
    51    55    56    1
    52    52    53   ar
    53    56    57    1
    54    56    59    1
    55    51    53   ar
    56    57    58    2
    57    53    54    1
    58    60    59    1
    59    60    62    1
    60    59    61    1
    61   110   109    2
    62   109   108    1
    63   109   115   am
    64   108   107    1
    65   108   111    1
    66   113   111    1
    67   112   111    1
    68   112   114    1
    69   119   116    1
    70   119   120    1
    71   123   121   am
    72   116   115    1
    73   116   117    1
    74    71    70    1
    75    70    69    1
    76   121   120    1
    77   121   122    2
    78   105   106    1
    79   105   104    1
    80   117   118    2
    81    69    68    1
    82   103   104    1
    83   103   100    1
    84    94    93    2
    85    68    67    1
    86   131   129   am
    87   102   101    2
    88   124   125    1
    89    99   100    1
    90   101   100    1
    91   125   126    1
    92   125   128    1
    93   129   130    2
    94   129   128    1
    95    67    64    1
    96    93    92    1
    97    95    92    1
    98    95    96    1
    99    98    96   ar
   100   126   127    2
   101    91    92    1
   102    96    97   ar
   103    64    63    1
   104    64    65    1
   105    79    77   ar
   106    76    77    1
   107    76    73    1
   108    65    66    2
   109    77    78   ar
   110    90    88    1
   111    73    72    1
   112    73    74    1
   113    88    89    1
   114    88    87    2
   115    74    75    2
   116    87    86    1
   117    83    82    2
   118    86    85    1
   119    84    85    1
   120    84    81    1
   121    82    81    1
   122    81    80    1
