@<TRIPOS>MOLECULE
tmp/5vlrA00.pdb
 219 209 0 0 0
SMALL
GASTEIGER

@<TRIPOS>ATOM
      1  N         53.0770    6.6590   28.2790 N.3   623  LYS623     -0.1245
      2  CA        52.2020    7.8280   28.1440 C.3   623  LYS623      0.1561
      3  C         52.9240    9.1310   27.7140 C.2   623  LYS623      0.2260
      4  O         52.3930    9.7590   26.7980 O.2   623  LYS623     -0.2867
      5  CB        51.3460    8.0620   29.4130 C.3   623  LYS623      0.0271
      6  CG        50.2350    9.1150   29.2390 C.3   623  LYS623      0.0035
      7  CD        49.0960    8.9490   30.2400 C.3   623  LYS623      0.0206
      8  CE        48.1280   10.1100   30.2370 C.3   623  LYS623      0.1093
      9  NZ        48.6780   11.3070   30.9400 N.3   623  LYS623     -0.1314
     10  N         48.7590   21.5870   26.0500 N.3   663  GLN663     -0.1245
     11  CA        47.7160   21.1960   27.0130 C.3   663  GLN663      0.1566
     12  C         46.8960   19.9610   26.5910 C.2   663  GLN663      0.2260
     13  O         46.2390   19.3510   27.4340 O.2   663  GLN663     -0.2867
     14  CB        46.7900   22.3810   27.3110 C.3   663  GLN663      0.0367
     15  CG        47.4580   23.4930   28.1090 C.3   663  GLN663      0.0905
     16  CD        47.1230   24.8620   27.5710 C.2   663  GLN663      0.2608
     17  OE1       45.9600   25.2830   27.5420 O.2   663  GLN663     -0.2717
     18  NE2       48.1410   25.5960   27.1320 N.am  663  GLN663     -0.0878
     19  N         46.1030   16.1940   25.8290 N.3   665  THR665     -0.1203
     20  CA        46.5400   14.8920   26.3750 C.3   665  THR665      0.1994
     21  C         45.4870   13.8260   26.0500 C.2   665  THR665      0.2618
     22  O         44.6880   14.0070   25.1220 O.2   665  THR665     -0.2717
     23  CB        46.7420   14.9740   27.9190 C.3   665  THR665      0.1784
     24  OG1       45.6760   15.7100   28.5180 O.3   665  THR665     -0.2211
     25  CG2       48.0540   15.6010   28.3180 C.3   665  THR665      0.0376
     26  N         45.5000   12.7180   26.8170 N.am  666  PHE666     -0.1961
     27  CA        44.5240   11.6400   26.7540 C.3   666  PHE666      0.1771
     28  C         44.3160   11.0210   28.1510 C.2   666  PHE666      0.2619
     29  O         45.0760   11.3390   29.0730 O.2   666  PHE666     -0.2715
     30  CB        44.8470   10.6190   25.6620 C.3   666  PHE666      0.0574
     31  CG        46.0280    9.7260   25.9290 C.ar  666  PHE666     -0.0200
     32  CD1       47.3220   10.1530   25.6440 C.ar  666  PHE666     -0.0042
     33  CD2       45.8480    8.4320   26.3990 C.ar  666  PHE666     -0.0042
     34  CE1       48.4170    9.3090   25.8510 C.ar  666  PHE666     -0.0003
     35  CE2       46.9430    7.5940   26.6180 C.ar  666  PHE666     -0.0003
     36  CZ        48.2180    8.0340   26.3340 C.ar  666  PHE666     -0.0000
     37  N         43.2630   10.1940   28.3280 N.am  667  MET667     -0.1963
     38  CA        42.9290    9.6030   29.6300 C.3   667  MET667      0.1736
     39  C         43.2860    8.1300   29.6980 C.2   667  MET667      0.2616
     40  O         43.0480    7.3890   28.7360 O.2   667  MET667     -0.2715
     41  CB        41.4420    9.7900   29.9850 C.3   667  MET667      0.0427
     42  CG        40.9050   11.1920   29.7660 C.3   667  MET667      0.0599
     43  SD        39.6860   11.7570   30.9800 S.3   667  MET667     -0.1393
     44  CE        38.6020   10.3380   31.1040 C.3   667  MET667      0.0692
     45  N         43.7980    7.6880   30.8670 N.am  668  ASP668     -0.1957
     46  CA        44.2180    6.3000   31.1050 C.3   668  ASP668      0.1840
     47  C         43.0360    5.3090   31.1780 C.2   668  ASP668      0.2622
     48  O         43.2400    4.1370   31.5100 O.2   668  ASP668     -0.2715
     49  CB        45.1250    6.2060   32.3430 C.3   668  ASP668      0.1450
     50  CG        46.5660    6.4900   32.1020 C.2   668  ASP668      0.3671
     51  OD1       46.9850    6.6780   30.9800 O.co2 668  ASP668     -0.2456
     52  OD2       47.3160    6.4600   33.1610 O.co2 668  ASP668     -0.2456
     53  N         41.8160    5.7790   30.7960 N.am  669  SER669     -0.1950
     54  CA        40.5570    5.0350   30.7320 C.3   669  SER669      0.1924
     55  C         40.6190    3.9670   29.6320 C.2   669  SER669      0.2314
     56  O         41.5590    3.9690   28.8380 O.2   669  SER669     -0.2863
     57  CB        39.4030    6.0050   30.4980 C.3   669  SER669      0.2116
     58  OG        38.1560    5.3430   30.3880 O.3   669  SER669     -0.2180
     59  N         40.1310    8.2700   25.9740 N.3   673  PRO673     -0.2116
     60  CA        39.5220    9.4960   25.4130 C.3   673  PRO673      0.1372
     61  C         40.4810   10.6710   25.3370 C.2   673  PRO673      0.2244
     62  O         41.2090   10.8940   26.2930 O.2   673  PRO673     -0.2868
     63  CB        38.3170    9.7570   26.3250 C.3   673  PRO673      0.0268
     64  CG        38.6200    9.0500   27.5920 C.3   673  PRO673      0.0207
     65  CD        39.5320    7.9090   27.2810 C.3   673  PRO673      0.0892
     66  N         41.9540   14.4360   25.3620 N.3   675  TRP675     -0.1241
     67  CA        41.7410   15.6870   26.1060 C.3   675  TRP675      0.1605
     68  C         42.2440   16.8050   25.1990 C.2   675  TRP675      0.2264
     69  O         43.4450   16.8570   24.9470 O.2   675  TRP675     -0.2867
     70  CB        42.5510   15.6250   27.4140 C.3   675  TRP675      0.0550
     71  CG        42.2940   16.7400   28.3680 C.ar  675  TRP675      0.0003
     72  CD1       42.8890   17.9670   28.3760 C.ar  675  TRP675      0.0946
     73  CD2       41.4540   16.6910   29.5250 C.ar  675  TRP675      0.0152
     74  NE1       42.4200   18.7130   29.4310 N.ar  675  TRP675     -0.2442
     75  CE2       41.5520   17.9460   30.1680 C.ar  675  TRP675      0.0810
     76  CE3       40.6020   15.7090   30.0730 C.ar  675  TRP675      0.0012
     77  CZ2       40.8040   18.2650   31.3080 C.ar  675  TRP675      0.0191
     78  CZ3       39.8640   16.0280   31.2040 C.ar  675  TRP675      0.0001
     79  CH2       39.9580   17.3000   31.7970 C.ar  675  TRP675      0.0015
     80  N         36.3450   16.5910   25.1930 N.3   688  ILE688     -0.1245
     81  CA        36.8510   15.2280   25.3730 C.3   688  ILE688      0.1561
     82  C         36.3280   14.3730   24.2180 C.2   688  ILE688      0.2260
     83  O         35.1190   14.2680   24.0470 O.2   688  ILE688     -0.2867
     84  CB        36.5960   14.5950   26.7840 C.3   688  ILE688      0.0252
     85  CG1       37.1190   15.5000   27.9330 C.3   688  ILE688      0.0019
     86  CG2       37.2460   13.2090   26.8540 C.3   688  ILE688      0.0019
     87  CD1       36.5460   15.2500   29.3390 C.3   688  ILE688      0.0001
     88  N         35.6930   10.9100   22.8850 N.3   690  LYS690     -0.1245
     89  CA        35.6280    9.5110   23.2900 C.3   690  LYS690      0.1561
     90  C         35.0530    8.7230   22.1500 C.2   690  LYS690      0.2260
     91  O         34.0630    9.1340   21.5500 O.2   690  LYS690     -0.2867
     92  CB        34.8300    9.3200   24.6020 C.3   690  LYS690      0.0271
     93  CG        34.8240    7.8740   25.1420 C.3   690  LYS690      0.0035
     94  CD        34.9250    7.7500   26.6750 C.3   690  LYS690      0.0206
     95  CE        33.6120    7.9260   27.4190 C.3   690  LYS690      0.1093
     96  NZ        33.7750    7.7000   28.8800 N.3   690  LYS690     -0.1314
     97  N         27.4740    6.4960   23.9350 N.3   695  LEU695     -0.1245
     98  CA        27.2350    7.6280   24.8220 C.3   695  LEU695      0.1561
     99  C         25.7500    7.9890   25.0450 C.2   695  LEU695      0.2260
    100  O         25.4440    8.7280   25.9780 O.2   695  LEU695     -0.2867
    101  CB        28.0420    8.8340   24.3510 C.3   695  LEU695      0.0270
    102  CG        29.4810    8.8030   24.8600 C.3   695  LEU695      0.0019
    103  CD1       30.3460    9.7310   24.0900 C.3   695  LEU695      0.0001
    104  CD2       29.5560    9.1160   26.3510 C.3   695  LEU695      0.0001
    105  N         24.4950    7.9020   28.6580 N.3   698  ASP698     -0.1239
    106  CA        25.0100    9.0600   29.4010 C.3   698  ASP698      0.1674
    107  C         24.3150   10.3460   28.9940 C.2   698  ASP698      0.2266
    108  O         24.0480   11.1690   29.8560 O.2   698  ASP698     -0.2867
    109  CB        26.5170    9.2220   29.1830 C.3   698  ASP698      0.1410
    110  CG        27.3730    8.5380   30.2190 C.2   698  ASP698      0.3668
    111  OD1       27.7330    7.3480   30.0040 O.co2 698  ASP698     -0.2456
    112  OD2       27.7260    9.2040   31.2280 O.co2 698  ASP698     -0.2456
    113  N         26.9640   19.6840   32.2140 N.3   724  TYR724     -0.1241
    114  CA        28.0570   19.6550   31.2600 C.3   724  TYR724      0.1605
    115  C         27.5170   18.9220   30.0570 C.2   724  TYR724      0.2264
    116  O         26.6700   18.0400   30.2300 O.2   724  TYR724     -0.2867
    117  CB        29.3450   19.0070   31.8410 C.3   724  TYR724      0.0534
    118  CG        29.2210   17.5420   32.2200 C.ar  724  TYR724     -0.0201
    119  CD1       29.4260   16.5370   31.2760 C.ar  724  TYR724     -0.0009
    120  CD2       28.9400   17.1580   33.5360 C.ar  724  TYR724     -0.0009
    121  CE1       29.3100   15.1870   31.6200 C.ar  724  TYR724      0.0417
    122  CE2       28.8510   15.8140   33.8960 C.ar  724  TYR724      0.0417
    123  CZ        29.0360   14.8310   32.9350 C.ar  724  TYR724      0.1957
    124  OH        28.9180   13.4990   33.2640 O.3   724  TYR724     -0.2866
    125  N         32.3950   15.1470   25.1380 N.3   736  ILE736     -0.1231
    126  CA        32.0230   15.4230   26.5250 C.3   736  ILE736      0.1692
    127  C         32.7700   16.7130   26.8580 C.2   736  ILE736      0.2592
    128  O         33.9700   16.7930   26.5990 O.2   736  ILE736     -0.2718
    129  CB        32.4020   14.2670   27.5120 C.3   736  ILE736      0.0266
    130  CG1       31.7320   12.9130   27.1450 C.3   736  ILE736      0.0019
    131  CG2       32.0070   14.6520   28.9580 C.3   736  ILE736      0.0020
    132  CD1       32.5600   11.9050   26.3490 C.3   736  ILE736      0.0001
    133  N         32.0620   17.7190   27.3940 N.am  737  GLU737     -0.1966
    134  CA        32.5970   19.0330   27.7990 C.3   737  GLU737      0.1733
    135  C         33.6310   18.9050   28.9280 C.2   737  GLU737      0.2616
    136  O         33.4970   18.0350   29.7930 O.2   737  GLU737     -0.2715
    137  CB        31.4560   19.9490   28.2790 C.3   737  GLU737      0.0429
    138  CG        31.8810   21.3850   28.5090 C.3   737  GLU737      0.1163
    139  CD        30.8060   22.3660   28.9290 C.2   737  GLU737      0.3649
    140  OE1       29.6420   21.9510   29.1390 O.co2 737  GLU737     -0.2457
    141  OE2       31.1370   23.5690   29.0310 O.co2 737  GLU737     -0.2457
    142  N         34.6440   19.7840   28.9280 N.am  738  VAL738     -0.1963
    143  CA        35.6400   19.8210   29.9800 C.3   738  VAL738      0.1727
    144  C         35.1450   20.8010   31.0200 C.2   738  VAL738      0.2616
    145  O         34.8440   21.9520   30.6970 O.2   738  VAL738     -0.2715
    146  CB        37.0740   20.1530   29.4790 C.3   738  VAL738      0.0290
    147  CG1       37.9860   20.6010   30.6280 C.3   738  VAL738      0.0023
    148  CG2       37.6920   18.9540   28.7610 C.3   738  VAL738      0.0023
    149  N         35.0090   20.3220   32.2540 N.am  739  VAL739     -0.1977
    150  CA        34.6440   21.1320   33.4110 C.3   739  VAL739      0.1596
    151  C         36.0110   21.4420   34.0140 C.2   739  VAL739      0.2287
    152  O         36.6730   20.5360   34.5530 O.2   739  VAL739     -0.2864
    153  CB        33.7040   20.3920   34.4130 C.3   739  VAL739      0.0276
    154  CG1       33.5380   21.1770   35.7030 C.3   739  VAL739      0.0022
    155  CG2       32.3450   20.0970   33.7900 C.3   739  VAL739      0.0022
    156  N         38.1210   21.1980   38.1740 N.3   742  SER742     -0.1202
    157  CA        37.4090   20.1110   38.8520 C.3   742  SER742      0.2020
    158  C         38.2570   18.8370   38.9840 C.2   742  SER742      0.2619
    159  O         39.1100   18.5810   38.1210 O.2   742  SER742     -0.2717
    160  CB        36.0810   19.8110   38.1590 C.3   742  SER742      0.2103
    161  OG        36.2510   18.9120   37.0760 O.3   742  SER742     -0.2182
    162  N         38.0000   18.0300   40.0480 N.am  743  ASP743     -0.1959
    163  CA        38.7010   16.7570   40.2820 C.3   743  ASP743      0.1840
    164  C         37.7740   15.7080   40.9000 C.2   743  ASP743      0.2622
    165  O         36.7720   16.0900   41.5070 O.2   743  ASP743     -0.2715
    166  CB        39.9610   16.9640   41.1520 C.3   743  ASP743      0.1450
    167  CG        41.0390   15.8960   40.9780 C.2   743  ASP743      0.3671
    168  OD1       41.1710   15.3540   39.8500 O.co2 743  ASP743     -0.2456
    169  OD2       41.7870   15.6420   41.9560 O.co2 743  ASP743     -0.2456
    170  N         38.0940   14.3940   40.7190 N.am  744  THR744     -0.1951
    171  CA        37.3210   13.2730   41.2800 C.3   744  THR744      0.1897
    172  C         37.6510   13.1410   42.7590 C.2   744  THR744      0.2313
    173  O         38.8310   13.1910   43.1140 O.2   744  THR744     -0.2863
    174  CB        37.6020   11.9290   40.5700 C.3   744  THR744      0.1794
    175  OG1       38.9780   11.5880   40.6790 O.3   744  THR744     -0.2208
    176  CG2       37.1780   11.9080   39.1260 C.3   744  THR744      0.0378
    177  N         40.8160   11.2260   43.8090 N.3   747  ASN747     -0.1240
    178  CA        42.0600   11.9830   43.6150 C.3   747  ASN747      0.1653
    179  C         42.2800   13.0870   44.6550 C.2   747  ASN747      0.2266
    180  O         43.4310   13.3600   45.0100 O.2   747  ASN747     -0.2867
    181  CB        42.1310   12.5780   42.2060 C.3   747  ASN747      0.1155
    182  CG        42.4250   11.6060   41.0870 C.2   747  ASN747      0.2627
    183  OD1       42.8360   10.4490   41.3050 O.2   747  ASN747     -0.2716
    184  ND2       42.2400   12.0810   39.8480 N.am  747  ASN747     -0.0877
    185  N         32.6920   13.9650   41.1580 N.3   802  MET802     -0.1245
    186  CA        33.6490   15.0510   40.9590 C.3   802  MET802      0.1570
    187  C         33.2590   16.3060   41.7010 C.2   802  MET802      0.2261
    188  O         32.0750   16.6170   41.8400 O.2   802  MET802     -0.2867
    189  CB        33.8500   15.3710   39.4730 C.3   802  MET802      0.0387
    190  CG        34.6360   14.3410   38.7190 C.3   802  MET802      0.0595
    191  SD        35.1560   14.9880   37.1160 S.3   802  MET802     -0.1393
    192  CE        36.8570   15.2390   37.3900 C.3   802  MET802      0.0692
    193  N         29.3570   16.9630   41.3410 N.3   810  PHE810     -0.1241
    194  CA        28.6670   16.4860   40.1340 C.3   810  PHE810      0.1605
    195  C         29.0890   15.0670   39.7830 C.2   810  PHE810      0.2264
    196  O         30.1820   14.6190   40.1520 O.2   810  PHE810     -0.2867
    197  CB        28.7510   17.4480   38.9140 C.3   810  PHE810      0.0534
    198  CG        30.0930   17.5610   38.2510 C.ar  810  PHE810     -0.0203
    199  CD1       31.0340   18.4760   38.7060 C.ar  810  PHE810     -0.0042
    200  CD2       30.4260   16.7390   37.1820 C.ar  810  PHE810     -0.0042
    201  CE1       32.2950   18.5440   38.1300 C.ar  810  PHE810     -0.0003
    202  CE2       31.6880   16.8200   36.5860 C.ar  810  PHE810     -0.0003
    203  CZ        32.6110   17.7240   37.0610 C.ar  810  PHE810     -0.0000
    204  N         29.7740   11.7460   37.1350 N.3   812  ILE812     -0.1231
    205  CA        30.3740   11.3410   35.8720 C.3   812  ILE812      0.1692
    206  C         30.2080    9.8220   35.6430 C.2   812  ILE812      0.2592
    207  O         29.9180    9.0620   36.5820 O.2   812  ILE812     -0.2718
    208  CB        31.8590   11.7900   35.7890 C.3   812  ILE812      0.0266
    209  CG1       32.7950   10.9830   36.7230 C.3   812  ILE812      0.0019
    210  CG2       31.9970   13.2820   36.0320 C.3   812  ILE812      0.0020
    211  CD1       33.7810   10.0650   36.0100 C.3   812  ILE812      0.0001
    212  N         30.4070    9.4010   34.3790 N.am  813  ASP813     -0.1974
    213  CA        30.3450    8.0270   33.8930 C.3   813  ASP813      0.1709
    214  C         29.1860    7.2250   34.5040 C.2   813  ASP813      0.2293
    215  O         29.3810    6.3710   35.3740 O.2   813  ASP813     -0.2864
    216  CB        31.7110    7.3330   34.0580 C.3   813  ASP813      0.1436
    217  CG        32.7680    7.8400   33.0820 C.2   813  ASP813      0.3671
    218  OD1       32.3970    8.1930   31.9230 O.co2 813  ASP813     -0.2456
    219  OD2       33.9740    7.8620   33.4620 O.co2 813  ASP813     -0.2456
@<TRIPOS>BOND
     1    91    90    2
     2    90    89    1
     3    88    89    1
     4    89    92    1
     5    97    98    1
     6    83    82    2
     7   103   102    1
     8    82    81    1
     9   101    98    1
    10   101   102    1
    11    92    93    1
    12    98    99    1
    13   102   104    1
    14    69    68    2
    15    99   100    2
    16    22    21    2
    17   125   126    1
    18    93    94    1
    19    80    81    1
    20    68    67    1
    21    61    60    1
    22    61    62    2
    23    66    67    1
    24    81    84    1
    25    60    59    1
    26    60    63    1
    27    32    34   ar
    28    32    31   ar
    29    30    31    1
    30    30    27    1
    31    19    20    1
    32    34    36   ar
    33    31    33   ar
    34    59    65    1
    35    21    20    1
    36    21    26   am
    37    10    11    1
    38    67    70    1
    39    63    64    1
    40    36    35   ar
    41   132   130    1
    42    20    23    1
    43    33    35   ar
    44   126   127    1
    45   126   129    1
    46    12    11    1
    47    12    13    2
    48   128   127    2
    49    94    95    1
    50    27    26    1
    51    27    28    1
    52    84    86    1
    53    84    85    1
    54     4     3    2
    55   127   133   am
    56    11    14    1
    57    18    16   am
    58   130   129    1
    59    65    64    1
    60    14    15    1
    61   133   134    1
    62    70    71    1
    63    95    96    1
    64   129   131    1
    65    17    16    2
    66    16    15    1
    67     3     2    1
    68   134   137    1
    69   134   135    1
    70    23    25    1
    71    23    24    1
    72    85    87    1
    73     2     1    1
    74     2     5    1
    75    28    37   am
    76    28    29    2
    77   137   138    1
    78    37    38    1
    79    71    72   ar
    80    71    73   ar
    81    72    74   ar
    82   138   139    1
    83   105   106    1
    84    40    39    2
    85   148   146    1
    86    56    55    2
    87   135   142   am
    88   135   136    2
    89   142   143    1
    90   139   141   ar
    91   139   140   ar
    92   107   106    1
    93   107   108    2
    94   109   106    1
    95   109   110    1
    96     6     5    1
    97     6     7    1
    98    74    75   ar
    99   146   143    1
   100   146   147    1
   101    73    76   ar
   102    73    75   ar
   103    38    39    1
   104    38    41    1
   105    55    54    1
   106    39    45   am
   107    42    41    1
   108    42    43    1
   109   143   144    1
   110   111   110   ar
   111   115   116    2
   112   115   114    1
   113    76    78   ar
   114    75    77   ar
   115   110   112   ar
   116     8     7    1
   117     8     9    1
   118    58    57    1
   119    57    54    1
   120   145   144    2
   121    54    53    1
   122    53    47   am
   123    45    46    1
   124    43    44    1
   125    51    50   ar
   126   144   149   am
   127    46    47    1
   128    46    49    1
   129    47    48    2
   130    78    79   ar
   131   114   117    1
   132   114   113    1
   133   119   121   ar
   134   119   118   ar
   135    77    79   ar
   136   121   123   ar
   137   117   118    1
   138   218   217   ar
   139    50    49    1
   140    50    52   ar
   141   118   120   ar
   142   149   150    1
   143   123   124    1
   144   123   122   ar
   145   217   219   ar
   146   217   216    1
   147   150   151    1
   148   150   153    1
   149   120   122   ar
   150   155   153    1
   151   213   216    1
   152   213   212    1
   153   213   214    1
   154   151   152    2
   155   212   206   am
   156   153   154    1
   157   214   215    2
   158   206   205    1
   159   206   207    2
   160   208   205    1
   161   208   210    1
   162   208   209    1
   163   205   204    1
   164   211   209    1
   165   202   203   ar
   166   202   200   ar
   167   203   201   ar
   168   161   160    1
   169   191   192    1
   170   191   190    1
   171   200   198   ar
   172   159   158    2
   173   201   199   ar
   174   160   157    1
   175   156   157    1
   176   198   199   ar
   177   198   197    1
   178   190   189    1
   179   157   158    1
   180   197   194    1
   181   158   162   am
   182   176   174    1
   183   189   186    1
   184   195   194    1
   185   195   196    2
   186   184   182   am
   187   168   167   ar
   188   162   163    1
   189   194   193    1
   190   163   164    1
   191   163   166    1
   192   174   175    1
   193   174   171    1
   194   170   164   am
   195   170   171    1
   196   164   165    2
   197   186   185    1
   198   186   187    1
   199   167   166    1
   200   167   169   ar
   201   182   183    2
   202   182   181    1
   203   171   172    1
   204   187   188    2
   205   181   178    1
   206   172   173    2
   207   178   177    1
   208   178   179    1
   209   179   180    2
