@<TRIPOS>MOLECULE
tmp/5vm0B00.pdb
 166 159 0 0 0
SMALL
GASTEIGER

@<TRIPOS>ATOM
      1  N         -6.9060   27.9480   14.3970 N.3     2  GLU2       -0.1231
      2  CA        -5.7640   28.2730   13.5530 C.3     2  GLU2        0.1699
      3  C         -6.1410   28.6100   12.1100 C.2     2  GLU2        0.2592
      4  O         -5.3260   29.2080   11.3900 O.2     2  GLU2       -0.2718
      5  CB        -4.7810   27.1060   13.5440 C.3     2  GLU2        0.0402
      6  CG        -4.6310   26.4480   14.9010 C.3     2  GLU2        0.1161
      7  CD        -3.5170   25.4090   14.9000 C.2     2  GLU2        0.3649
      8  OE1       -3.8330   24.2110   14.8390 O.co2   2  GLU2       -0.2457
      9  OE2       -2.3390   25.8090   14.8970 O.co2   2  GLU2       -0.2457
     10  N         -7.3270   28.1560   11.6970 N.am    3  VAL3       -0.1980
     11  CA        -7.9790   28.5580   10.4170 C.3     3  VAL3        0.1595
     12  C         -9.3500   29.1830   10.6670 C.2     3  VAL3        0.2287
     13  O        -10.1350   28.7170   11.5200 O.2     3  VAL3       -0.2864
     14  CB        -8.0510   27.3760    9.4080 C.3     3  VAL3        0.0276
     15  CG1       -8.8870   27.6820    8.1410 C.3     3  VAL3        0.0022
     16  CG2       -6.6480   26.9440    9.0270 C.3     3  VAL3        0.0022
     17  N        -10.6740   30.8360    3.0840 N.3    25  ALA25      -0.1245
     18  CA        -9.9620   30.3860    4.2880 C.3    25  ALA25       0.1562
     19  C         -8.8170   31.3350    4.5930 C.2    25  ALA25       0.2260
     20  O         -8.2560   31.8890    3.6840 O.2    25  ALA25      -0.2867
     21  CB        -9.4310   28.9870    4.0870 C.3    25  ALA25       0.0290
     22  N         -3.5840   29.4110    9.2050 N.3    28  ARG28      -0.1231
     23  CA        -2.5460   28.3860    8.9050 C.3    28  ARG28       0.1694
     24  C         -3.1550   27.3010    7.9630 C.2    28  ARG28       0.2593
     25  O         -3.4680   26.1820    8.3760 O.2    28  ARG28      -0.2718
     26  CB        -2.0200   27.7700   10.2160 C.3    28  ARG28       0.0321
     27  CG        -1.3570   28.8000   11.1650 C.3    28  ARG28       0.0489
     28  CD        -0.5250   28.1740   12.2670 C.3    28  ARG28       0.2205
     29  NE         0.2730   27.0540   11.7570 N.pl3  28  ARG28      -0.0865
     30  CZ         0.9820   26.2280   12.5240 C.cat  28  ARG28       0.5346
     31  NH1        1.0090   26.3710   13.8560 N.pl3  28  ARG28       0.1354
     32  NH2        1.6620   25.2540   11.9630 N.pl3  28  ARG28       0.1354
     33  N         -3.3590   27.6890    6.7090 N.am   29  THR29      -0.1939
     34  CA        -4.1520   26.8780    5.7630 C.3    29  THR29       0.2028
     35  C         -3.2270   25.8800    5.0470 C.2    29  THR29       0.2642
     36  O         -2.0400   26.1040    4.9190 O.2    29  THR29      -0.2714
     37  CB        -4.8250   27.7740    4.7010 C.3    29  THR29       0.1808
     38  OG1       -3.8290   28.6420    4.0980 O.3    29  THR29      -0.2208
     39  CG2       -5.8860   28.6520    5.3390 C.3    29  THR29       0.0379
     40  N         -3.8170   24.7950    4.5640 N.am   30  TYR30      -0.1959
     41  CA        -3.1550   23.7960    3.7500 C.3    30  TYR30       0.1771
     42  C         -4.2650   23.2790    2.8170 C.2    30  TYR30       0.2620
     43  O         -5.2260   22.5890    3.2260 O.2    30  TYR30      -0.2715
     44  CB        -2.5480   22.7040    4.6200 C.3    30  TYR30       0.0574
     45  CG        -1.8910   21.6210    3.8050 C.ar   30  TYR30      -0.0198
     46  CD1       -0.8090   21.9130    2.9740 C.ar   30  TYR30      -0.0009
     47  CD2       -2.3910   20.3290    3.8160 C.ar   30  TYR30      -0.0009
     48  CE1       -0.2000   20.9230    2.2030 C.ar   30  TYR30       0.0417
     49  CE2       -1.7980   19.3190    3.0500 C.ar   30  TYR30       0.0417
     50  CZ        -0.7220   19.6290    2.2370 C.ar   30  TYR30       0.1957
     51  OH        -0.1680   18.6210    1.4710 O.3    30  TYR30      -0.2866
     52  N         -4.1800   23.7380    1.5740 N.am   31  THR31      -0.1951
     53  CA        -5.2930   23.6540    0.6570 C.3    31  THR31       0.1897
     54  C         -5.7080   22.2240    0.2590 C.2    31  THR31       0.2313
     55  O         -6.7730   22.0650   -0.1040 O.2    31  THR31      -0.2863
     56  CB        -5.1160   24.5510   -0.6040 C.3    31  THR31       0.1794
     57  OG1       -4.0190   24.0800   -1.3880 O.3    31  THR31      -0.2208
     58  CG2       -4.9440   26.0350   -0.2370 C.3    31  THR31       0.0378
     59  N         -6.2880   19.9490    2.3080 N.3    33  TYR33      -0.1241
     60  CA        -7.2250   19.4450    3.3620 C.3    33  TYR33       0.1605
     61  C         -8.7330   19.5440    2.9980 C.2    33  TYR33       0.2264
     62  O         -9.1720   20.4600    2.2880 O.2    33  TYR33      -0.2867
     63  CB        -6.8940   20.1410    4.6910 C.3    33  TYR33       0.0534
     64  CG        -5.6580   19.6080    5.4140 C.ar   33  TYR33      -0.0201
     65  CD1       -5.0730   18.3950    5.0600 C.ar   33  TYR33      -0.0009
     66  CD2       -5.0870   20.3370    6.4660 C.ar   33  TYR33      -0.0009
     67  CE1       -3.9780   17.8930    5.7460 C.ar   33  TYR33       0.0417
     68  CE2       -3.9890   19.8720    7.1610 C.ar   33  TYR33       0.0417
     69  CZ        -3.4230   18.6740    6.7990 C.ar   33  TYR33       0.1957
     70  OH        -2.3320   18.2410    7.4850 O.3    33  TYR33      -0.2866
     71  N        -12.3320   20.2480    2.4340 N.3    35  MET35      -0.1245
     72  CA       -13.3160   21.3550    2.5680 C.3    35  MET35       0.1570
     73  C        -14.6960   20.8640    2.1810 C.2    35  MET35       0.2261
     74  O        -14.9000   20.3590    1.0760 O.2    35  MET35      -0.2867
     75  CB       -12.8690   22.5950    1.7740 C.3    35  MET35       0.0387
     76  CG       -11.8890   23.3840    2.6330 C.3    35  MET35       0.0595
     77  SD       -12.7640   24.6880    3.5260 S.3    35  MET35      -0.1393
     78  CE       -11.9930   25.9920    2.5950 C.3    35  MET35       0.0692
     79  N        -14.4290   18.7180   -1.2220 N.3    52  ILE52      -0.1245
     80  CA       -13.1960   18.6280   -2.0320 C.3    52  ILE52       0.1561
     81  C        -11.9790   18.4210   -1.1440 C.2    52  ILE52       0.2260
     82  O        -11.7670   19.1230   -0.1180 O.2    52  ILE52      -0.2867
     83  CB       -13.0280   19.8610   -2.9760 C.3    52  ILE52       0.0252
     84  CG1      -11.8450   19.6760   -3.9660 C.3    52  ILE52       0.0019
     85  CG2      -12.9420   21.1710   -2.1780 C.3    52  ILE52       0.0019
     86  CD1      -12.0000   20.6120   -5.1770 C.3    52  ILE52       0.0001
     87  N        -11.5290   24.3120   -6.0930 N.3    73  ARG73      -0.1231
     88  CA       -10.7070   25.1740   -5.2490 C.3    73  ARG73       0.1694
     89  C         -9.6450   25.9120   -6.0170 C.2    73  ARG73       0.2592
     90  O         -9.1110   25.4500   -7.0410 O.2    73  ARG73      -0.2718
     91  CB       -10.1230   24.4060   -4.0570 C.3    73  ARG73       0.0321
     92  CG        -8.9930   23.5140   -4.4400 C.3    73  ARG73       0.0489
     93  CD        -8.3800   22.8300   -3.2250 C.3    73  ARG73       0.2205
     94  NE        -7.2760   22.0160   -3.7250 N.pl3  73  ARG73      -0.0865
     95  CZ        -7.0730   20.7180   -3.5400 C.cat  73  ARG73       0.5346
     96  NH1       -7.9260   19.9280   -2.8260 N.pl3  73  ARG73       0.1354
     97  NH2       -6.0070   20.1950   -4.1220 N.pl3  73  ARG73       0.1354
     98  N         -9.2920   27.0430   -5.4550 N.am   74  ASP74      -0.1974
     99  CA        -8.1970   27.8550   -5.9900 C.3    74  ASP74       0.1709
    100  C         -7.2270   28.0530   -4.8230 C.2    74  ASP74       0.2293
    101  O         -7.4880   28.7990   -3.8870 O.2    74  ASP74      -0.2864
    102  CB        -8.7790   29.1600   -6.5530 C.3    74  ASP74       0.1436
    103  CG        -7.7150   30.0730   -7.1430 C.2    74  ASP74       0.3671
    104  OD1       -6.5680   30.1100   -6.6570 O.co2  74  ASP74      -0.2456
    105  OD2       -8.0610   30.8000   -8.0880 O.co2  74  ASP74      -0.2456
    106  N         -6.8460   30.7370   -1.6800 N.3    78  LYS78      -0.1231
    107  CA        -7.3700   29.9800   -0.5180 C.3    78  LYS78       0.1693
    108  C         -8.9010   29.9220   -0.4600 C.2    78  LYS78       0.2593
    109  O         -9.5200   30.0840    0.6260 O.2    78  LYS78      -0.2718
    110  CB        -6.7920   30.5570    0.7720 C.3    78  LYS78       0.0285
    111  CG        -5.2690   30.5750    0.8350 C.3    78  LYS78       0.0035
    112  CD        -4.8590   31.4780    1.9870 C.3    78  LYS78       0.0206
    113  CE        -3.3650   31.4580    2.2010 C.3    78  LYS78       0.1093
    114  NZ        -2.9940   32.6590    3.0040 N.3    78  LYS78      -0.1314
    115  N         -9.5140   29.6970   -1.6330 N.am   79  THR79      -0.1939
    116  CA       -10.9330   29.7380   -1.7700 C.3    79  THR79       0.2028
    117  C        -11.4550   28.4530   -2.4170 C.2    79  THR79       0.2642
    118  O        -10.8550   27.9430   -3.3850 O.2    79  THR79      -0.2714
    119  CB       -11.4100   31.0140   -2.5570 C.3    79  THR79       0.1808
    120  OG1      -10.9820   32.1930   -1.8460 O.3    79  THR79      -0.2208
    121  CG2      -12.9060   31.0550   -2.6560 C.3    79  THR79       0.0379
    122  N        -12.5010   27.9090   -1.7980 N.am   80  VAL80      -0.1977
    123  CA       -13.3360   26.8050   -2.3630 C.3    80  VAL80       0.1596
    124  C        -14.6420   27.3740   -2.9440 C.2    80  VAL80       0.2287
    125  O        -15.3360   28.1800   -2.2650 O.2    80  VAL80      -0.2864
    126  CB       -13.6250   25.7630   -1.2650 C.3    80  VAL80       0.0276
    127  CG1      -14.6950   24.7540   -1.6960 C.3    80  VAL80       0.0022
    128  CG2      -12.3310   25.0440   -0.8440 C.3    80  VAL80       0.0022
    129  N        -13.8540   22.5350    7.6230 N.3    99  THR99      -0.1203
    130  CA       -12.5510   21.9270    7.3030 C.3    99  THR99       0.1994
    131  C        -11.9120   21.1930    8.4790 C.2    99  THR99       0.2618
    132  O        -12.3050   21.3140    9.6190 O.2    99  THR99      -0.2717
    133  CB       -11.5670   22.9360    6.6020 C.3    99  THR99       0.1784
    134  OG1      -10.4600   22.2020    6.0700 O.3    99  THR99      -0.2211
    135  CG2      -10.9940   23.9340    7.6240 C.3    99  THR99       0.0376
    136  N        -10.9460   20.3460    8.1800 N.am  100  ARG100     -0.1965
    137  CA       -10.3420   19.5090    9.1910 C.3   100  ARG100      0.1729
    138  C         -8.9460   19.2240    8.6850 C.2   100  ARG100      0.2616
    139  O         -8.6540   19.4280    7.4630 O.2   100  ARG100     -0.2715
    140  CB       -11.1600   18.1760    9.3220 C.3   100  ARG100      0.0348
    141  CG       -11.0510   17.2830    8.0560 C.3   100  ARG100      0.0492
    142  CD       -12.1530   16.1910    8.0240 C.3   100  ARG100      0.2205
    143  NE       -11.9920   15.2410    9.1270 N.pl3 100  ARG100     -0.0865
    144  CZ       -11.4130   14.0310    9.0360 C.cat 100  ARG100      0.5346
    145  NH1      -11.0430   13.5070    7.8440 N.pl3 100  ARG100      0.1354
    146  NH2      -11.3490   13.2620   10.1410 N.pl3 100  ARG100      0.1354
    147  N         -8.0530   18.8070    9.6130 N.am  101  ALA101     -0.1977
    148  CA        -6.6340   18.6170    9.3350 C.3   101  ALA101      0.1597
    149  C         -6.2860   17.2920    8.6900 C.2   101  ALA101      0.2287
    150  O         -5.3820   16.5660    9.1590 O.2   101  ALA101     -0.2864
    151  CB        -5.7680   18.8740   10.5920 C.3   101  ALA101      0.0319
    152  N        -13.6100   20.1750   12.7860 N.3   113  PRO113     -0.2102
    153  CA       -13.5570   21.0930   13.9410 C.3   113  PRO113      0.1504
    154  C        -13.7760   22.5490   13.6020 C.2   113  PRO113      0.2575
    155  O        -14.0210   23.3370   14.5130 O.2   113  PRO113     -0.2718
    156  CB       -12.1500   20.9180   14.5060 C.3   113  PRO113      0.0282
    157  CG       -11.3480   20.1870   13.4690 C.3   113  PRO113      0.0208
    158  CD       -12.3080   19.5480   12.4800 C.3   113  PRO113      0.0893
    159  N        -13.6170   22.9090   12.3230 N.am  114  ILE114     -0.1980
    160  CA       -13.5730   24.3000   11.9370 C.3   114  ILE114      0.1595
    161  C        -14.7090   24.5740   10.9840 C.2   114  ILE114      0.2287
    162  O        -14.8670   23.8670    9.9750 O.2   114  ILE114     -0.2864
    163  CB       -12.2200   24.6780   11.2700 C.3   114  ILE114      0.0276
    164  CG1      -11.0600   24.5250   12.2960 C.3   114  ILE114      0.0022
    165  CG2      -12.3380   26.0510   10.5800 C.3   114  ILE114      0.0022
    166  CD1       -9.7260   25.1360   11.8880 C.3   114  ILE114      0.0001
@<TRIPOS>BOND
     1   105   103   ar
     2   103   104   ar
     3   103   102    1
     4    90    89    2
     5   102    99    1
     6    87    88    1
     7    89    98   am
     8    89    88    1
     9    99    98    1
    10    99   100    1
    11    88    91    1
    12    86    84    1
    13   100   101    2
    14    92    91    1
    15    92    93    1
    16    97    95    1
    17    84    83    1
    18    94    95    2
    19    94    93    1
    20    95    96    1
    21   118   117    2
    22    83    85    1
    23    83    80    1
    24   124   123    1
    25   124   125    2
    26   121   119    1
    27   119   120    1
    28   119   116    1
    29   117   122   am
    30   117   116    1
    31   123   122    1
    32   123   126    1
    33    80    79    1
    34    80    81    1
    35   116   115    1
    36   127   126    1
    37   106   107    1
    38   115   108   am
    39    57    56    1
    40   126   128    1
    41    81    82    2
    42    56    58    1
    43    56    53    1
    44   107   108    1
    45   107   110    1
    46   108   109    2
    47    55    54    2
    48    54    53    1
    49    53    52    1
    50   110   111    1
    51   111   112    1
    52    74    73    2
    53    51    50    1
    54    52    42   am
    55    75    72    1
    56    75    76    1
    57   112   113    1
    58    73    72    1
    59   113   114    1
    60    48    50   ar
    61    48    46   ar
    62    50    49   ar
    63    62    61    2
    64    59    60    1
    65    71    72    1
    66    78    77    1
    67    76    77    1
    68    42    43    2
    69    42    41    1
    70    46    45   ar
    71    61    60    1
    72    49    47   ar
    73    17    18    1
    74    60    63    1
    75    20    19    2
    76    41    40    1
    77    41    44    1
    78    45    47   ar
    79    45    44    1
    80    21    18    1
    81    38    37    1
    82    18    19    1
    83    40    35   am
    84    63    64    1
    85    37    39    1
    86    37    34    1
    87    36    35    2
    88    35    34    1
    89    65    64   ar
    90    65    67   ar
    91    64    66   ar
    92    67    69   ar
    93    34    33    1
    94   134   133    1
    95    66    68   ar
    96   133   130    1
    97   133   135    1
    98    33    24   am
    99    69    68   ar
   100    69    70    1
   101   130   129    1
   102   130   131    1
   103   139   138    2
   104   145   144    1
   105    24    25    2
   106    24    23    1
   107   142   141    1
   108   142   143    1
   109   141   140    1
   110    15    14    1
   111   136   131   am
   112   136   137    1
   113   131   132    2
   114   138   137    1
   115   138   147   am
   116   149   150    2
   117   149   148    1
   118    23    22    1
   119    23    26    1
   120    16    14    1
   121   144   143    2
   122   144   146    1
   123   137   140    1
   124   148   147    1
   125   148   151    1
   126    14    11    1
   127   162   161    2
   128    26    27    1
   129    11    12    1
   130    11    10    1
   131   165   163    1
   132    12    13    2
   133   161   160    1
   134    27    28    1
   135   163   160    1
   136   163   164    1
   137     4     3    2
   138    10     3   am
   139    29    28    1
   140    29    30    2
   141   166   164    1
   142   160   159    1
   143    32    30    1
   144     3     2    1
   145   159   154   am
   146   158   152    1
   147   158   157    1
   148    30    31    1
   149   152   153    1
   150   157   156    1
   151     5     2    1
   152     5     6    1
   153     2     1    1
   154   154   153    1
   155   154   155    2
   156   153   156    1
   157     8     7   ar
   158     9     7   ar
   159     7     6    1
