@<TRIPOS>MOLECULE
tmp/5vm6A00.pdb
 133 124 0 0 0
SMALL
GASTEIGER

@<TRIPOS>ATOM
      1  N         39.8700  -12.5110   -4.3960 N.3     1  VAL1       -0.1245
      2  CA        39.7510  -11.2020   -3.6890 C.3     1  VAL1        0.1561
      3  C         40.9310  -10.2900   -4.0180 C.2     1  VAL1        0.2260
      4  O         42.0680  -10.7550   -4.1070 O.2     1  VAL1       -0.2867
      5  CB        39.5420  -11.3900   -2.1540 C.3     1  VAL1        0.0252
      6  CG1       40.7610  -11.9940   -1.4560 C.3     1  VAL1        0.0019
      7  CG2       39.1280  -10.0930   -1.4910 C.3     1  VAL1        0.0019
      8  N         42.7300   -6.5490   -2.7360 N.3     3  LEU3       -0.1245
      9  CA        42.8590   -5.7360   -1.5440 C.3     3  LEU3        0.1561
     10  C         43.3610   -4.3480   -1.9280 C.2     3  LEU3        0.2260
     11  O         44.3510   -4.2380   -2.6580 O.2     3  LEU3       -0.2867
     12  CB        43.8540   -6.3620   -0.5400 C.3     3  LEU3        0.0270
     13  CG        43.5030   -7.7830   -0.0960 C.3     3  LEU3        0.0019
     14  CD1       44.5830   -8.3490    0.7840 C.3     3  LEU3        0.0001
     15  CD2       42.1500   -7.8300    0.5800 C.3     3  LEU3        0.0001
     16  N         42.2110   -0.9180    4.7280 N.3    21  CYS21      -0.1235
     17  CA        42.3450   -1.9130    3.6930 C.3    21  CYS21       0.1677
     18  C         40.9600   -2.5170    3.4240 C.2    21  CYS21       0.2270
     19  O         40.2920   -2.9300    4.3590 O.2    21  CYS21      -0.2867
     20  CB        43.3200   -2.9850    4.1550 C.3    21  CYS21       0.0956
     21  SG        43.4300   -4.4300    3.0690 S.3    21  CYS21      -0.0801
     22  N         38.4570   -5.1610    0.9390 N.3    23  GLY23      -0.1225
     23  CA        38.4180   -6.2910    0.0380 C.3    23  GLY23       0.1811
     24  C         37.3600   -6.1160   -1.0390 C.2    23  GLY23       0.2280
     25  O         36.2640   -5.5680   -0.7960 O.2    23  GLY23      -0.2866
     26  N         35.6980   -8.4930   -2.4290 N.3    25  ARG25      -0.1231
     27  CA        34.6020   -9.4230   -2.1610 C.3    25  ARG25       0.1694
     28  C         34.3810   -9.4920   -0.6670 C.2    25  ARG25       0.2592
     29  O         35.3260   -9.3730    0.1190 O.2    25  ARG25      -0.2718
     30  CB        34.9130  -10.8250   -2.6840 C.3    25  ARG25       0.0321
     31  CG        34.8310  -10.9450   -4.1950 C.3    25  ARG25       0.0489
     32  CD        33.3840  -10.9370   -4.6970 C.3    25  ARG25       0.2205
     33  NE        33.3170  -11.4330   -6.0560 N.pl3  25  ARG25      -0.0865
     34  CZ        32.2070  -11.8350   -6.6950 C.cat  25  ARG25       0.5346
     35  NH1       31.0410  -11.7140   -6.1240 N.pl3  25  ARG25       0.1354
     36  NH2       32.2800  -12.2920   -7.9440 N.pl3  25  ARG25       0.1354
     37  N         33.1290   -9.6870   -0.2760 N.am   26  ARG26      -0.1966
     38  CA        32.7680   -9.7660    1.1290 C.3    26  ARG26       0.1729
     39  C         33.5800  -10.8160    1.8710 C.2    26  ARG26       0.2616
     40  O         33.8360  -11.9100    1.3380 O.2    26  ARG26      -0.2715
     41  CB        31.2860  -10.0610    1.2810 C.3    26  ARG26       0.0348
     42  CG        30.8000   -9.8550    2.7010 C.3    26  ARG26       0.0492
     43  CD        29.3410  -10.2110    2.7640 C.3    26  ARG26       0.2205
     44  NE        28.5700   -9.2660    1.9720 N.pl3  26  ARG26      -0.0865
     45  CZ        27.3250   -9.4700    1.5720 C.cat  26  ARG26       0.5346
     46  NH1       26.7000  -10.5810    1.8820 N.pl3  26  ARG26       0.1354
     47  NH2       26.7220   -8.5320    0.8630 N.pl3  26  ARG26       0.1354
     48  N         33.9730  -10.4790    3.0990 N.am   27  ALA27      -0.1963
     49  CA        34.6800  -11.4350    3.9620 C.3    27  ALA27       0.1728
     50  C         33.8910  -12.7140    4.0940 C.2    27  ALA27       0.2616
     51  O         32.6480  -12.7170    4.1180 O.2    27  ALA27      -0.2715
     52  CB        34.9180  -10.8610    5.3380 C.3    27  ALA27       0.0334
     53  N         34.6310  -13.7980    4.2030 N.am   28  LEU28      -0.1977
     54  CA        34.0820  -15.1040    4.5210 C.3    28  LEU28       0.1596
     55  C         34.2590  -15.3220    6.0230 C.2    28  LEU28       0.2287
     56  O         35.0660  -14.6570    6.6690 O.2    28  LEU28      -0.2864
     57  CB        34.8420  -16.1910    3.7360 C.3    28  LEU28       0.0297
     58  CG        34.7880  -16.0360    2.1920 C.3    28  LEU28       0.0022
     59  CD1       35.5170  -17.1910    1.5210 C.3    28  LEU28       0.0001
     60  CD2       33.3770  -15.8260    1.6730 C.3    28  LEU28       0.0001
     61  N         37.9010  -15.7920    6.6960 N.3    31  THR31      -0.1218
     62  CA        38.8300  -14.7560    6.3010 C.3    31  THR31       0.1862
     63  C         39.7090  -14.3420    7.4660 C.2    31  THR31       0.2287
     64  O         39.2160  -14.1300    8.5980 O.2    31  THR31      -0.2866
     65  CB        38.0470  -13.5410    5.7620 C.3    31  THR31       0.1770
     66  OG1       37.4790  -13.8670    4.4880 O.3    31  THR31      -0.2211
     67  CG2       38.9250  -12.2960    5.6070 C.3    31  THR31       0.0375
     68  N         42.7380  -11.3240    8.0160 N.3    33  VAL33      -0.1245
     69  CA        43.3940  -10.1540    7.4220 C.3    33  VAL33       0.1561
     70  C         44.6030   -9.8190    8.2550 C.2    33  VAL33       0.2260
     71  O         44.5240   -9.6860    9.4730 O.2    33  VAL33      -0.2867
     72  CB        42.4610   -8.9430    7.3390 C.3    33  VAL33       0.0252
     73  CG1       43.1250   -7.7770    6.5850 C.3    33  VAL33       0.0019
     74  CG2       41.1340   -9.3600    6.7490 C.3    33  VAL33       0.0019
     75  N         38.2700  -12.6990   10.9720 N.3    52  TRP52      -0.1241
     76  CA        36.9860  -12.0290   10.7220 C.3    52  TRP52       0.1605
     77  C         35.8280  -12.5470   11.5960 C.2    52  TRP52       0.2264
     78  O         35.0660  -11.7550   12.1600 O.2    52  TRP52      -0.2867
     79  CB        36.6000  -12.1480    9.2240 C.3    52  TRP52       0.0550
     80  CG        35.6020  -11.1140    8.8600 C.ar   52  TRP52       0.0003
     81  CD1       34.2630  -11.2110    8.9650 C.ar   52  TRP52       0.0946
     82  CD2       35.8760   -9.8150    8.3140 C.ar   52  TRP52       0.0152
     83  NE1       33.6680  -10.0330    8.5390 N.ar   52  TRP52      -0.2442
     84  CE2       34.6420   -9.1620    8.1460 C.ar   52  TRP52       0.0810
     85  CE3       37.0450   -9.1390    7.9710 C.ar   52  TRP52       0.0012
     86  CZ2       34.5530   -7.8570    7.6180 C.ar   52  TRP52       0.0191
     87  CZ3       36.9460   -7.8520    7.4600 C.ar   52  TRP52       0.0001
     88  CH2       35.7260   -7.2400    7.2880 C.ar   52  TRP52       0.0015
     89  N         33.5020   -3.2270    4.0890 N.3    76  ASN76      -0.1225
     90  CA        34.0950   -4.5510    3.9720 C.3    76  ASN76       0.1785
     91  C         35.5990   -4.4020    4.0210 C.2    76  ASN76       0.2598
     92  O         36.2570   -4.5810    3.0260 O.2    76  ASN76      -0.2718
     93  CB        33.6250   -5.2140    2.6790 C.3    76  ASN76       0.1169
     94  CG        34.1250   -6.6450    2.5230 C.2    76  ASN76       0.2627
     95  OD1       33.9180   -7.4890    3.3920 O.2    76  ASN76      -0.2716
     96  ND2       34.7610   -6.9260    1.3830 N.am   76  ASN76      -0.0877
     97  N         36.1200   -4.0630    5.1880 N.am   77  GLY77      -0.1942
     98  CA        37.5220   -3.7360    5.3320 C.3    77  GLY77       0.2014
     99  C         37.9310   -3.7310    6.7860 C.2    77  GLY77       0.2638
    100  O         37.1230   -4.0130    7.6710 O.2    77  GLY77      -0.2714
    101  N         39.2110   -3.4170    6.9970 N.am   78  VAL78      -0.1977
    102  CA        39.7670   -3.2820    8.3260 C.3    78  VAL78       0.1596
    103  C         40.5050   -1.9730    8.4150 C.2    78  VAL78       0.2287
    104  O         40.8230   -1.3510    7.4050 O.2    78  VAL78      -0.2864
    105  CB        40.7220   -4.4450    8.6740 C.3    78  VAL78       0.0276
    106  CG1       39.9970   -5.7870    8.5710 C.3    78  VAL78       0.0022
    107  CG2       41.9610   -4.4480    7.7980 C.3    78  VAL78       0.0022
    108  N         45.5670  -11.0420    3.0180 N.3    97  SER97      -0.1217
    109  CA        44.4570  -11.8580    3.4590 C.3    97  SER97       0.1889
    110  C         44.6460  -13.3510    3.1610 C.2    97  SER97       0.2288
    111  O         45.3820  -13.7210    2.2560 O.2    97  SER97      -0.2866
    112  CB        43.1580  -11.3670    2.8360 C.3    97  SER97       0.2089
    113  OG        42.0870  -11.8770    3.5820 O.3    97  SER97      -0.2183
    114  N         42.4960  -17.4500    3.9100 N.3    99  LEU99      -0.1245
    115  CA        41.3290  -18.1990    4.3320 C.3    99  LEU99       0.1561
    116  C         41.8260  -19.3170    5.2090 C.2    99  LEU99       0.2260
    117  O         42.5990  -20.1750    4.7670 O.2    99  LEU99      -0.2867
    118  CB        40.5940  -18.7750    3.1130 C.3    99  LEU99       0.0270
    119  CG        39.9420  -17.7930    2.1230 C.3    99  LEU99       0.0019
    120  CD1       39.1850  -18.5100    1.0040 C.3    99  LEU99       0.0001
    121  CD2       38.9920  -16.8370    2.8320 C.3    99  LEU99       0.0001
    122  N         46.9620  -13.3390   -0.6990 N.3   117  TYR117     -0.1241
    123  CA        46.3790  -12.1690   -1.3280 C.3   117  TYR117      0.1605
    124  C         47.0000  -10.9280   -0.6840 C.2   117  TYR117      0.2264
    125  O         47.0100  -10.8260    0.5390 O.2   117  TYR117     -0.2867
    126  CB        44.8560  -12.1800   -1.1580 C.3   117  TYR117      0.0534
    127  CG        44.2350  -13.4350   -1.7090 C.ar  117  TYR117     -0.0201
    128  CD1       44.2930  -13.7470   -3.0760 C.ar  117  TYR117     -0.0009
    129  CD2       43.5940  -14.3340   -0.8730 C.ar  117  TYR117     -0.0009
    130  CE1       43.7110  -14.9060   -3.5670 C.ar  117  TYR117      0.0417
    131  CE2       43.0380  -15.5030   -1.3580 C.ar  117  TYR117      0.0417
    132  CZ        43.1000  -15.7780   -2.7040 C.ar  117  TYR117      0.1957
    133  OH        42.5230  -16.9450   -3.1760 O.3   117  TYR117     -0.2866
@<TRIPOS>BOND
     1    36    34    1
     2    34    35    1
     3    34    33    2
     4    33    32    1
     5    32    31    1
     6     1     2    1
     7    31    30    1
     8     4     3    2
     9     3     2    1
    10     2     5    1
    11   130   128   ar
    12   130   132   ar
    13   133   132    1
    14   128   127   ar
    15     8     9    1
    16   132   131   ar
    17    30    27    1
    18    11    10    2
    19    26    27    1
    20    27    28    1
    21     5     7    1
    22     5     6    1
    23    10     9    1
    24   127   126    1
    25   127   129   ar
    26     9    12    1
    27   131   129   ar
    28   123   126    1
    29   123   122    1
    30   123   124    1
    31    24    25    2
    32    24    23    1
    33   124   125    2
    34    28    37   am
    35    28    29    2
    36    12    13    1
    37    37    38    1
    38    13    15    1
    39    13    14    1
    40    23    22    1
    41    47    45    1
    42   120   119    1
    43    38    41    1
    44    38    39    1
    45    41    42    1
    46    40    39    2
    47    96    94   am
    48    59    58    1
    49    45    46    1
    50    45    44    2
    51    60    58    1
    52    39    48   am
    53    44    43    1
    54   119   121    1
    55   119   118    1
    56    58    57    1
    57   111   110    2
    58    94    93    1
    59    94    95    2
    60    93    90    1
    61    42    43    1
    62   112   109    1
    63   112   113    1
    64   108   109    1
    65    92    91    2
    66    21    20    1
    67    48    49    1
    68   118   115    1
    69   110   109    1
    70    18    17    1
    71    18    19    2
    72    17    20    1
    73    17    16    1
    74    57    54    1
    75   114   115    1
    76    49    50    1
    77    49    52    1
    78    90    91    1
    79    90    89    1
    80    91    97   am
    81    50    51    2
    82    50    53   am
    83    53    54    1
    84   115   116    1
    85    66    65    1
    86    54    55    1
    87   117   116    2
    88    97    98    1
    89    98    99    1
    90    67    65    1
    91    65    62    1
    92    55    56    2
    93    62    61    1
    94    62    63    1
    95    73    72    1
    96    74    72    1
    97    99   101   am
    98    99   100    2
    99   101   102    1
   100    88    87   ar
   101    88    86   ar
   102    72    69    1
   103   104   103    2
   104    69    68    1
   105    69    70    1
   106    87    85   ar
   107    63    64    2
   108    86    84   ar
   109   107   105    1
   110    85    82   ar
   111    84    82   ar
   112    84    83   ar
   113    70    71    2
   114    82    80   ar
   115   102   103    1
   116   102   105    1
   117    83    81   ar
   118   106   105    1
   119    80    81   ar
   120    80    79    1
   121    79    76    1
   122    76    75    1
   123    76    77    1
   124    77    78    2
