@<TRIPOS>MOLECULE
tmp/5vm8B00.pdb
 158 155 0 0 0
SMALL
GASTEIGER

@<TRIPOS>ATOM
      1  N         31.1710   11.1880  -24.6300 N.3   112  ARG112     -0.1245
      2  CA        30.1700   10.5680  -23.7670 C.3   112  ARG112      0.1563
      3  C         29.0630    9.8760  -24.5570 C.2   112  ARG112      0.2260
      4  O         28.0890    9.4170  -23.9610 O.2   112  ARG112     -0.2867
      5  CB        29.5760   11.6040  -22.8120 C.3   112  ARG112      0.0307
      6  CG        30.5740   12.0970  -21.7920 C.3   112  ARG112      0.0489
      7  CD        30.0560   13.2960  -21.0360 C.3   112  ARG112      0.2205
      8  NE        31.1130   13.9340  -20.2530 N.pl3 112  ARG112     -0.0865
      9  CZ        30.9500   15.0400  -19.5360 C.cat 112  ARG112      0.5346
     10  NH1       29.7680   15.6440  -19.5150 N.pl3 112  ARG112      0.1354
     11  NH2       31.9650   15.5470  -18.8540 N.pl3 112  ARG112      0.1354
     12  N         25.6840   24.5030  -28.5490 N.3   165  MET165     -0.1230
     13  CA        24.7150   24.5740  -27.4690 C.3   165  MET165      0.1702
     14  C         25.3880   24.0460  -26.2100 C.2   165  MET165      0.2593
     15  O         25.8150   22.8910  -26.1780 O.2   165  MET165     -0.2718
     16  CB        23.4660   23.7430  -27.8010 C.3   165  MET165      0.0401
     17  CG        22.7660   24.1130  -29.1160 C.3   165  MET165      0.0596
     18  SD        22.8360   25.8530  -29.6110 S.3   165  MET165     -0.1393
     19  CE        21.6370   26.5260  -28.4680 C.3   165  MET165      0.0692
     20  N         25.4550   24.8650  -25.1690 N.am  166  SER166     -0.1938
     21  CA        26.1290   24.4750  -23.9440 C.3   166  SER166      0.2055
     22  C         25.3380   24.9670  -22.7420 C.2   166  SER166      0.2642
     23  O         24.6040   25.9570  -22.8170 O.2   166  SER166     -0.2714
     24  CB        27.5570   25.0280  -23.8780 C.3   166  SER166      0.2130
     25  OG        28.1030   24.8000  -22.5930 O.3   166  SER166     -0.2179
     26  N         25.5110   24.2480  -21.6240 N.am  167  ILE167     -0.1977
     27  CA        24.7170   24.4610  -20.4200 C.3   167  ILE167      0.1596
     28  C         25.3540   25.4320  -19.4410 C.2   167  ILE167      0.2287
     29  O         24.8080   25.6310  -18.3500 O.2   167  ILE167     -0.2864
     30  CB        24.4320   23.1290  -19.6940 C.3   167  ILE167      0.0276
     31  CG1       25.7100   22.4660  -19.1620 C.3   167  ILE167      0.0022
     32  CG2       23.6800   22.2120  -20.6350 C.3   167  ILE167      0.0022
     33  CD1       25.4280   21.2560  -18.2960 C.3   167  ILE167      0.0001
     34  N         24.7950   19.9920  -30.7890 N.3   187  VAL187     -0.1231
     35  CA        24.0750   19.4870  -29.6200 C.3   187  VAL187      0.1692
     36  C         24.7440   18.2030  -29.1330 C.2   187  VAL187      0.2593
     37  O         25.0190   17.2980  -29.9270 O.2   187  VAL187     -0.2718
     38  CB        22.5850   19.2140  -29.9260 C.3   187  VAL187      0.0266
     39  CG1       21.8810   18.7310  -28.6680 C.3   187  VAL187      0.0020
     40  CG2       21.9060   20.4560  -30.5260 C.3   187  VAL187      0.0020
     41  N         24.9480   18.1080  -27.8170 N.am  188  GLY188     -0.1943
     42  CA        25.5910   16.9750  -27.2060 C.3   188  GLY188      0.1998
     43  C         24.6390   15.8630  -26.7990 C.2   188  GLY188      0.2481
     44  O         23.4210   15.9960  -26.8710 O.2   188  GLY188     -0.2729
     45  N         25.1920   14.7650  -26.3180 N.am  189  PRO189     -0.2715
     46  CA        24.3660   13.6140  -25.9420 C.3   189  PRO189      0.1536
     47  C         23.7850   13.8050  -24.5590 C.2   189  PRO189      0.2598
     48  O         23.9740   14.8700  -23.9650 O.2   189  PRO189     -0.2715
     49  CB        25.3710   12.4570  -25.9570 C.3   189  PRO189      0.0310
     50  CG        26.6570   13.1030  -25.5080 C.3   189  PRO189      0.0237
     51  CD        26.6240   14.5450  -26.0230 C.3   189  PRO189      0.0939
     52  N         23.1030   12.7820  -24.0340 N.am  190  GLU190     -0.1964
     53  CA        22.5600   12.8560  -22.6800 C.3   190  GLU190      0.1733
     54  C         23.6100   13.3380  -21.6830 C.2   190  GLU190      0.2617
     55  O         23.3830   14.3070  -20.9410 O.2   190  GLU190     -0.2715
     56  CB        21.9980   11.4960  -22.2630 C.3   190  GLU190      0.0429
     57  CG        21.0130   10.9910  -23.3100 C.3   190  GLU190      0.1163
     58  CD        19.6600   11.6500  -23.2730 C.2   190  GLU190      0.3649
     59  OE1       19.4650   12.5100  -22.4110 O.co2 190  GLU190     -0.2457
     60  OE2       18.7780   11.3030  -24.1180 O.co2 190  GLU190     -0.2457
     61  N         24.7760   12.6790  -21.6680 N.am  191  GLY191     -0.1940
     62  CA        25.8420   13.0130  -20.7400 C.3   191  GLY191      0.2014
     63  C         26.5140   14.3470  -21.0050 C.2   191  GLY191      0.2639
     64  O         27.2060   14.8640  -20.1170 O.2   191  GLY191     -0.2714
     65  N         26.3410   14.9050  -22.2040 N.am  192  GLY192     -0.1939
     66  CA        26.8280   16.2410  -22.5110 C.3   192  GLY192      0.2014
     67  C         28.2520   16.3020  -23.0330 C.2   192  GLY192      0.2638
     68  O         28.9230   15.2970  -23.2840 O.2   192  GLY192     -0.2714
     69  N         28.7160   17.5380  -23.1910 N.am  193  TRP193     -0.1973
     70  CA        30.0680   17.8030  -23.6600 C.3   193  TRP193      0.1640
     71  C         31.0570   17.7010  -22.5070 C.2   193  TRP193      0.2290
     72  O         30.7400   18.0610  -21.3710 O.2   193  TRP193     -0.2864
     73  CB        30.1670   19.2110  -24.2410 C.3   193  TRP193      0.0576
     74  CG        29.1910   19.5880  -25.3290 C.ar  193  TRP193      0.0006
     75  CD1       28.3220   20.6250  -25.3010 C.ar  193  TRP193      0.0946
     76  CD2       29.0400   18.9780  -26.6160 C.ar  193  TRP193      0.0152
     77  NE1       27.6370   20.7050  -26.4740 N.ar  193  TRP193     -0.2442
     78  CE2       28.0510   19.7030  -27.3020 C.ar  193  TRP193      0.0810
     79  CE3       29.6420   17.8840  -27.2540 C.ar  193  TRP193      0.0012
     80  CZ2       27.6440   19.3810  -28.5910 C.ar  193  TRP193      0.0191
     81  CZ3       29.2240   17.5560  -28.5390 C.ar  193  TRP193      0.0001
     82  CH2       28.2260   18.3000  -29.1880 C.ar  193  TRP193      0.0015
     83  N         26.3080   28.9340  -26.8040 N.3   209  VAL209     -0.1231
     84  CA        25.0030   29.5650  -26.6700 C.3   209  VAL209      0.1692
     85  C         24.2010   28.8000  -25.6320 C.2   209  VAL209      0.2593
     86  O         24.0680   27.5710  -25.7130 O.2   209  VAL209     -0.2718
     87  CB        24.2500   29.5800  -28.0220 C.3   209  VAL209      0.0266
     88  CG1       22.7770   29.8750  -27.8190 C.3   209  VAL209      0.0020
     89  CG2       24.8660   30.6120  -28.9650 C.3   209  VAL209      0.0020
     90  N         23.5610   29.5330  -24.7340 N.am  210  THR210     -0.1939
     91  CA        22.6340   28.9270  -23.7940 C.3   210  THR210      0.2028
     92  C         21.2320   29.4620  -24.0520 C.2   210  THR210      0.2642
     93  O         21.0600   30.6400  -24.3720 O.2   210  THR210     -0.2714
     94  CB        23.1040   29.2120  -22.3730 C.3   210  THR210      0.1808
     95  OG1       24.3450   28.5520  -22.2050 O.3   210  THR210     -0.2208
     96  CG2       22.1430   28.6650  -21.3310 C.3   210  THR210      0.0379
     97  N         20.2270   28.6000  -23.8850 N.am  211  LEU211     -0.1963
     98  CA        18.8230   28.9860  -24.0350 C.3   211  LEU211      0.1728
     99  C         18.1950   28.7650  -22.6770 C.2   211  LEU211      0.2616
    100  O         17.7550   27.6580  -22.3760 O.2   211  LEU211     -0.2715
    101  CB        18.1060   28.1390  -25.0820 C.3   211  LEU211      0.0311
    102  CG        18.4750   28.1630  -26.5600 C.3   211  LEU211      0.0022
    103  CD1       17.7860   27.0410  -27.2770 C.3   211  LEU211      0.0001
    104  CD2       18.1090   29.4790  -27.2040 C.3   211  LEU211      0.0001
    105  N         18.1310   29.8080  -21.8680 N.am  212  GLY212     -0.1955
    106  CA        17.4350   29.7280  -20.6090 C.3   212  GLY212      0.1869
    107  C         18.2270   28.9910  -19.5460 C.2   212  GLY212      0.2309
    108  O         19.2940   28.4230  -19.7800 O.2   212  GLY212     -0.2863
    109  N         17.1710   26.3660  -17.8030 N.3   214  ARG214     -0.1231
    110  CA        16.7830   24.9720  -17.6460 C.3   214  ARG214      0.1694
    111  C         17.5280   24.0340  -18.5980 C.2   214  ARG214      0.2592
    112  O         17.7720   24.3640  -19.7650 O.2   214  ARG214     -0.2718
    113  CB        15.2700   24.8530  -17.8650 C.3   214  ARG214      0.0321
    114  CG        14.4780   25.8450  -17.0150 C.3   214  ARG214      0.0489
    115  CD        13.0180   25.8840  -17.4290 C.3   214  ARG214      0.2205
    116  NE        12.8650   26.4570  -18.7690 N.pl3 214  ARG214     -0.0865
    117  CZ        12.9660   27.7580  -19.0290 C.cat 214  ARG214      0.5346
    118  NH1       13.2180   28.6130  -18.0510 N.pl3 214  ARG214      0.1354
    119  NH2       12.8150   28.2060  -20.2640 N.pl3 214  ARG214      0.1354
    120  N         17.8710   22.8540  -18.0860 N.am  215  ILE215     -0.1966
    121  CA        18.5090   21.8170  -18.8890 C.3   215  ILE215      0.1727
    122  C         17.4530   21.1570  -19.7640 C.2   215  ILE215      0.2616
    123  O         16.4710   20.5960  -19.2690 O.2   215  ILE215     -0.2715
    124  CB        19.2130   20.7700  -18.0100 C.3   215  ILE215      0.0290
    125  CG1       20.1500   21.4250  -16.9870 C.3   215  ILE215      0.0022
    126  CG2       19.9250   19.7240  -18.8820 C.3   215  ILE215      0.0023
    127  CD1       21.2170   22.3160  -17.5650 C.3   215  ILE215      0.0001
    128  N         17.6790   21.1980  -21.0640 N.am  216  LEU216     -0.1963
    129  CA        16.8270   20.5810  -22.0640 C.3   216  LEU216      0.1728
    130  C         17.2970   19.1570  -22.3450 C.2   216  LEU216      0.2616
    131  O         18.5070   18.8870  -22.3470 O.2   216  LEU216     -0.2715
    132  CB        16.8990   21.3870  -23.3530 C.3   216  LEU216      0.0311
    133  CG        16.5220   22.8600  -23.2770 C.3   216  LEU216      0.0022
    134  CD1       16.5450   23.4430  -24.6880 C.3   216  LEU216      0.0001
    135  CD2       15.1540   23.0290  -22.6160 C.3   216  LEU216      0.0001
    136  N         16.3590   18.2350  -22.5660 N.am  217  ARG217     -0.1963
    137  CA        16.8750   16.9290  -22.9420 C.3   217  ARG217      0.1729
    138  C         17.4490   17.0350  -24.3450 C.2   217  ARG217      0.2616
    139  O         17.2100   18.0050  -25.0660 O.2   217  ARG217     -0.2715
    140  CB        15.8040   15.8330  -22.9020 C.3   217  ARG217      0.0348
    141  CG        15.2940   15.4690  -21.5300 C.3   217  ARG217      0.0492
    142  CD        14.0430   14.5740  -21.6190 C.3   217  ARG217      0.2205
    143  NE        14.3090   13.1790  -21.2750 N.pl3 217  ARG217     -0.0865
    144  CZ        14.0570   12.6360  -20.0850 C.cat 217  ARG217      0.5346
    145  NH1       13.5220   13.3650  -19.1190 N.pl3 217  ARG217      0.1354
    146  NH2       14.3310   11.3620  -19.8640 N.pl3 217  ARG217      0.1354
    147  N         18.1980   16.0040  -24.7420 N.am  218  THR218     -0.1951
    148  CA        18.9870   16.0990  -25.9650 C.3   218  THR218      0.1897
    149  C         18.1040   16.1430  -27.2130 C.2   218  THR218      0.2313
    150  O         18.4680   16.7950  -28.2010 O.2   218  THR218     -0.2863
    151  CB        19.9310   14.8950  -26.0490 C.3   218  THR218      0.1794
    152  OG1       20.9060   14.9670  -25.0000 O.3   218  THR218     -0.2208
    153  CG2       20.6310   14.8350  -27.3940 C.3   218  THR218      0.0378
    154  N         16.7130   19.8410  -27.4370 N.3   221  ALA221     -0.1245
    155  CA        17.5820   20.9880  -27.7100 C.3   221  ALA221      0.1562
    156  C         17.4810   21.5140  -29.1370 C.2   221  ALA221      0.2260
    157  O         17.3070   22.7340  -29.2960 O.2   221  ALA221     -0.2867
    158  CB        19.0340   20.6650  -27.3300 C.3   221  ALA221      0.0290
@<TRIPOS>BOND
     1    34    35    1
     2    40    38    1
     3    37    36    2
     4    38    35    1
     5    38    39    1
     6    35    36    1
     7    18    17    1
     8    18    19    1
     9   157   156    2
    10    82    80   ar
    11    82    81   ar
    12   156   155    1
    13    36    41   am
    14    17    16    1
    15    89    87    1
    16    80    78   ar
    17    12    13    1
    18    81    79   ar
    19   150   149    2
    20    87    88    1
    21    87    84    1
    22    41    42    1
    23    16    13    1
    24   155   154    1
    25   155   158    1
    26    13    14    1
    27   153   151    1
    28    78    76   ar
    29    78    77   ar
    30   103   102    1
    31    79    76   ar
    32   149   148    1
    33    42    43    1
    34   104   102    1
    35    44    43    2
    36    83    84    1
    37    43    45   am
    38    84    85    1
    39    76    74   ar
    40   102   101    1
    41    77    75   ar
    42    45    51    1
    43    45    46    1
    44    14    15    2
    45    14    20   am
    46   151   148    1
    47   151   152    1
    48    51    50    1
    49   148   147    1
    50    49    46    1
    51    49    50    1
    52    46    47    1
    53    86    85    2
    54    85    90   am
    55    74    75   ar
    56    74    73    1
    57    20    21    1
    58   101    98    1
    59   139   138    2
    60   147   138   am
    61    90    91    1
    62   134   133    1
    63     1     2    1
    64    47    52   am
    65    47    48    2
    66     3     4    2
    67     3     2    1
    68    93    92    2
    69   138   137    1
    70    73    70    1
    71    60    58   ar
    72    92    97   am
    73    92    91    1
    74    98    97    1
    75    98    99    1
    76    52    53    1
    77    21    24    1
    78    21    22    1
    79    24    25    1
    80    91    94    1
    81     2     5    1
    82    70    69    1
    83    70    71    1
    84   132   133    1
    85   132   129    1
    86    57    58    1
    87    57    56    1
    88    68    67    2
    89   133   135    1
    90    58    59   ar
    91    69    67   am
    92    67    66    1
    93   137   140    1
    94   137   136    1
    95   140   141    1
    96    23    22    2
    97     5     6    1
    98    22    26   am
    99    53    56    1
   100    53    54    1
   101    99   100    2
   102    99   105   am
   103   136   130   am
   104    66    65    1
   105    71    72    2
   106    94    95    1
   107    94    96    1
   108   131   130    2
   109   130   129    1
   110    65    63   am
   111   129   128    1
   112   105   106    1
   113     6     7    1
   114    54    61   am
   115    54    55    2
   116    61    62    1
   117    26    27    1
   118   142   141    1
   119   142   143    1
   120   143   144    2
   121   128   122   am
   122     7     8    1
   123    63    62    1
   124    63    64    2
   125    32    30    1
   126   106   107    1
   127    27    30    1
   128    27    28    1
   129   119   117    1
   130     8     9    2
   131   144   146    1
   132   144   145    1
   133   108   107    2
   134   112   111    2
   135   122   123    2
   136   122   121    1
   137    30    31    1
   138     9    10    1
   139     9    11    1
   140    28    29    2
   141    31    33    1
   142   117   116    2
   143   117   118    1
   144   121   120    1
   145   121   124    1
   146   126   124    1
   147   116   115    1
   148   111   120   am
   149   111   110    1
   150   124   125    1
   151   113   110    1
   152   113   114    1
   153   109   110    1
   154   127   125    1
   155   115   114    1
