@<TRIPOS>MOLECULE
tmp/5vmaA02.pdb
 166 158 0 0 0
SMALL
GASTEIGER

@<TRIPOS>ATOM
      1  N         30.6760   31.6780  -20.5800 N.3   102  ALA102     -0.1231
      2  CA        30.5600   33.0090  -21.1400 C.3   102  ALA102      0.1694
      3  C         31.8120   33.8170  -20.7460 C.2   102  ALA102      0.2592
      4  O         32.6290   33.3490  -19.9270 O.2   102  ALA102     -0.2718
      5  CB        29.2880   33.6920  -20.6300 C.3   102  ALA102      0.0304
      6  N         31.9020   35.0230  -21.2830 N.am  103  THR103     -0.1953
      7  CA        33.0050   35.9410  -20.9850 C.3   103  THR103      0.1897
      8  C         32.4480   37.1360  -20.1920 C.2   103  THR103      0.2313
      9  O         31.4740   37.7730  -20.5890 O.2   103  THR103     -0.2863
     10  CB        33.6130   36.4680  -22.2800 C.3   103  THR103      0.1794
     11  OG1       34.1830   35.3940  -22.9790 O.3   103  THR103     -0.2208
     12  CG2       34.7640   37.4070  -22.0390 C.3   103  THR103      0.0378
     13  N         31.6380   40.5850  -18.3260 N.3   105  ALA105     -0.1245
     14  CA        31.5990   42.0130  -18.4410 C.3   105  ALA105      0.1562
     15  C         30.8170   42.6110  -17.2750 C.2   105  ALA105      0.2260
     16  O         29.8440   41.9940  -16.7890 O.2   105  ALA105     -0.2867
     17  CB        30.9210   42.3910  -19.7180 C.3   105  ALA105      0.0290
     18  N         34.0650   43.5010  -22.6900 N.3   118  LEU118     -0.1245
     19  CA        34.0880   42.0780  -22.5390 C.3   118  LEU118      0.1561
     20  C         35.4720   41.7190  -22.1090 C.2   118  LEU118      0.2260
     21  O         36.2430   41.3260  -22.8880 O.2   118  LEU118     -0.2867
     22  CB        33.7910   41.4590  -23.8810 C.3   118  LEU118      0.0270
     23  CG        32.9460   40.2640  -24.0330 C.3   118  LEU118      0.0019
     24  CD1       31.7050   40.2790  -23.1700 C.3   118  LEU118      0.0001
     25  CD2       32.5350   40.2430  -25.5190 C.3   118  LEU118      0.0001
     26  N         19.1520   45.9820  -22.4370 N.3   174  GLN174     -0.1245
     27  CA        20.5280   45.4360  -22.4090 C.3   174  GLN174      0.1566
     28  C         21.4780   46.1880  -21.4910 C.2   174  GLN174      0.2260
     29  O         22.6000   45.7190  -21.1940 O.2   174  GLN174     -0.2867
     30  CB        21.1800   45.6340  -23.7870 C.3   174  GLN174      0.0367
     31  CG        20.6510   44.7410  -24.8990 C.3   174  GLN174      0.0905
     32  CD        21.1140   43.3240  -24.7640 C.2   174  GLN174      0.2608
     33  OE1       20.3470   42.4630  -24.4280 O.2   174  GLN174     -0.2717
     34  NE2       22.3180   43.0750  -25.1010 N.am  174  GLN174     -0.0878
     35  N         25.4140   45.0660  -31.8240 N.3   203  MET203     -0.1245
     36  CA        26.2590   44.5230  -30.7460 C.3   203  MET203      0.1570
     37  C         27.1260   45.5520  -30.0290 C.2   203  MET203      0.2261
     38  O         27.2620   45.5730  -28.7560 O.2   203  MET203     -0.2867
     39  CB        27.1890   43.4360  -31.2820 C.3   203  MET203      0.0387
     40  CG        26.5290   42.0840  -31.2800 C.3   203  MET203      0.0595
     41  SD        25.2430   41.8180  -32.5170 S.3   203  MET203     -0.1393
     42  CE        26.3100   41.7430  -33.9780 C.3   203  MET203      0.0692
     43  N         26.2930   47.5960  -26.8860 N.3   206  PHE206     -0.1227
     44  CA        26.1350   46.8470  -25.6240 C.3   206  PHE206      0.1736
     45  C         27.4340   46.2720  -25.0420 C.2   206  PHE206      0.2596
     46  O         27.6930   46.4020  -23.8390 O.2   206  PHE206     -0.2718
     47  CB        25.1020   45.7600  -25.8210 C.3   206  PHE206      0.0547
     48  CG        23.8720   46.2200  -26.4840 C.ar  206  PHE206     -0.0202
     49  CD1       23.1410   47.2970  -25.9590 C.ar  206  PHE206     -0.0042
     50  CD2       23.3810   45.5450  -27.6170 C.ar  206  PHE206     -0.0042
     51  CE1       21.9960   47.7340  -26.5770 C.ar  206  PHE206     -0.0003
     52  CE2       22.2430   46.0070  -28.2460 C.ar  206  PHE206     -0.0003
     53  CZ        21.5390   47.0840  -27.7080 C.ar  206  PHE206     -0.0000
     54  N         28.2930   45.7520  -25.9070 N.am  207  THR207     -0.1953
     55  CA        29.5780   45.1400  -25.4870 C.3   207  THR207      0.1897
     56  C         30.6730   45.6530  -26.3950 C.2   207  THR207      0.2313
     57  O         30.4300   45.9500  -27.5440 O.2   207  THR207     -0.2863
     58  CB        29.5540   43.5660  -25.5330 C.3   207  THR207      0.1794
     59  OG1       29.1680   43.1530  -26.7950 O.3   207  THR207     -0.2208
     60  CG2       28.4830   42.9790  -24.6610 C.3   207  THR207      0.0378
     61  N         34.8410   44.8710  -27.6240 N.3   209  GLU209     -0.1196
     62  CA        35.8670   43.8260  -27.6740 C.3   209  GLU209      0.1783
     63  C         36.9300   44.3310  -28.6260 C.2   209  GLU209      0.2306
     64  O         36.7360   45.3670  -29.2240 O.2   209  GLU209     -0.2863
     65  CB        35.2580   42.4500  -28.0560 C.2   209  GLU209      0.0071
     66  CG        34.0910   42.5070  -29.0020 C.2   209  GLU209      0.0834
     67  CD        33.4570   41.1510  -29.3600 C.2   209  GLU209      0.3877
     68  OE1       32.2380   41.1590  -29.6750 O.co2 209  GLU209     -0.2406
     69  OE2       34.1530   40.1070  -29.3740 O.co2 209  GLU209     -0.2406
     70  N         38.0540   43.2230  -31.4990 N.3   211  GLN211     -0.1245
     71  CA        37.5500   43.0610  -32.8500 C.3   211  GLN211      0.1566
     72  C         36.1240   43.6620  -33.1450 C.2   211  GLN211      0.2260
     73  O         35.3190   44.0190  -32.2830 O.2   211  GLN211     -0.2867
     74  CB        37.5370   41.5530  -33.0900 C.3   211  GLN211      0.0367
     75  CG        36.7530   40.8400  -32.0060 C.3   211  GLN211      0.0905
     76  CD        36.8010   39.3550  -32.1770 C.2   211  GLN211      0.2608
     77  OE1       37.8820   38.7570  -32.2770 O.2   211  GLN211     -0.2717
     78  NE2       35.6250   38.7410  -32.2070 N.am  211  GLN211     -0.0878
     79  N         31.1500   39.6970  -34.3240 N.3   214  ALA214     -0.1245
     80  CA        30.6470   38.7510  -35.3280 C.3   214  ALA214      0.1562
     81  C         29.1520   38.7770  -35.4250 C.2   214  ALA214      0.2260
     82  O         28.4880   39.0350  -34.4220 O.2   214  ALA214     -0.2867
     83  CB        31.0700   37.3610  -34.9190 C.3   214  ALA214      0.0290
     84  N         25.7580   37.2500  -35.0350 N.3   216  GLN216     -0.1245
     85  CA        25.4040   36.3980  -33.8720 C.3   216  GLN216      0.1566
     86  C         23.9590   36.5010  -33.4790 C.2   216  GLN216      0.2260
     87  O         23.2570   37.4490  -33.8610 O.2   216  GLN216     -0.2867
     88  CB        26.2810   36.7530  -32.6840 C.3   216  GLN216      0.0367
     89  CG        26.2110   38.2060  -32.2270 C.3   216  GLN216      0.0905
     90  CD        27.2640   38.5200  -31.1560 C.2   216  GLN216      0.2608
     91  OE1       27.0290   38.2490  -29.9900 O.2   216  GLN216     -0.2717
     92  NE2       28.4500   38.9060  -31.5760 N.am  216  GLN216     -0.0878
     93  N         21.0750   35.7850  -30.1270 N.3   218  ARG218     -0.1245
     94  CA        20.9290   35.5220  -28.7050 C.3   218  ARG218      0.1563
     95  C         19.4900   35.6100  -28.2750 C.2   218  ARG218      0.2260
     96  O         18.7450   36.3510  -28.8350 O.2   218  ARG218     -0.2867
     97  CB        21.7200   36.4920  -27.8250 C.3   218  ARG218      0.0307
     98  CG        21.6350   37.9580  -28.2070 C.3   218  ARG218      0.0489
     99  CD        22.8590   38.4830  -29.0350 C.3   218  ARG218      0.2205
    100  NE        22.9060   39.9770  -29.2890 N.pl3 218  ARG218     -0.0865
    101  CZ        22.0880   40.6600  -30.1000 C.cat 218  ARG218      0.5346
    102  NH1       21.1530   40.0130  -30.8480 N.pl3 218  ARG218      0.1354
    103  NH2       22.2720   41.9890  -30.2260 N.pl3 218  ARG218      0.1354
    104  N         25.0670   34.7590  -12.7980 N.3   264  LYS264     -0.1231
    105  CA        25.2300   35.2090  -14.1910 C.3   264  LYS264      0.1693
    106  C         26.4690   34.5680  -14.9210 C.2   264  LYS264      0.2592
    107  O         26.3230   34.0420  -16.0210 O.2   264  LYS264     -0.2718
    108  CB        25.3890   36.7410  -14.2040 C.3   264  LYS264      0.0285
    109  CG        25.2790   37.3050  -15.6290 C.3   264  LYS264      0.0035
    110  CD        25.3260   38.8360  -15.5730 C.3   264  LYS264      0.0206
    111  CE        25.0210   39.4130  -16.9610 C.3   264  LYS264      0.1093
    112  NZ        25.3970   40.8410  -16.9620 N.3   264  LYS264     -0.1314
    113  N         27.6350   34.6890  -14.2920 N.am  265  TYR265     -0.1976
    114  CA        28.8740   34.1520  -14.7240 C.3   265  TYR265      0.1639
    115  C         29.3370   32.9470  -13.9320 C.2   265  TYR265      0.2290
    116  O         30.5330   32.6850  -13.8670 O.2   265  TYR265     -0.2864
    117  CB        29.9770   35.2230  -14.8380 C.3   265  TYR265      0.0560
    118  CG        29.6270   36.3170  -15.8800 C.ar  265  TYR265     -0.0198
    119  CD1       29.6210   36.0370  -17.2320 C.ar  265  TYR265     -0.0009
    120  CD2       29.1890   37.5660  -15.4600 C.ar  265  TYR265     -0.0009
    121  CE1       29.2050   36.9900  -18.1850 C.ar  265  TYR265      0.0417
    122  CE2       28.8230   38.5500  -16.3700 C.ar  265  TYR265      0.0417
    123  CZ        28.7920   38.2590  -17.7240 C.ar  265  TYR265      0.1957
    124  OH        28.4320   39.2170  -18.6110 O.3   265  TYR265     -0.2866
    125  N         30.7910   29.0270  -32.0470 N.3   306  TRP306     -0.1227
    126  CA        30.9380   29.3170  -30.6430 C.3   306  TRP306      0.1737
    127  C         29.5390   29.6070  -30.0950 C.2   306  TRP306      0.2596
    128  O         28.6390   30.0170  -30.8670 O.2   306  TRP306     -0.2718
    129  CB        31.9590   30.4430  -30.3420 C.3   306  TRP306      0.0564
    130  CG        31.7360   31.6730  -31.1020 C.ar  306  TRP306      0.0003
    131  CD1       32.3400   32.0130  -32.2570 C.ar  306  TRP306      0.0946
    132  CD2       30.7930   32.7420  -30.8070 C.ar  306  TRP306      0.0152
    133  NE1       31.8640   33.2110  -32.7140 N.ar  306  TRP306     -0.2442
    134  CE2       30.9030   33.6790  -31.8510 C.ar  306  TRP306      0.0810
    135  CE3       29.8800   32.9740  -29.7850 C.ar  306  TRP306      0.0012
    136  CZ2       30.1550   34.8620  -31.8850 C.ar  306  TRP306      0.0191
    137  CZ3       29.1250   34.1270  -29.8140 C.ar  306  TRP306      0.0001
    138  CH2       29.2640   35.0680  -30.8700 C.ar  306  TRP306      0.0015
    139  N         29.3810   29.4230  -28.7900 N.am  307  SER307     -0.1938
    140  CA        28.0820   29.7290  -28.1190 C.3   307  SER307      0.2055
    141  C         28.3460   29.9020  -26.6540 C.2   307  SER307      0.2643
    142  O         29.4250   29.6010  -26.1530 O.2   307  SER307     -0.2714
    143  CB        27.0140   28.6570  -28.4200 C.3   307  SER307      0.2130
    144  OG        27.4330   27.3490  -28.0240 O.3   307  SER307     -0.2179
    145  N         27.3720   30.4490  -25.9630 N.am  308  TRP308     -0.1973
    146  CA        27.5700   30.8360  -24.5660 C.3   308  TRP308      0.1640
    147  C         26.2360   30.8030  -23.8180 C.2   308  TRP308      0.2290
    148  O         25.1190   30.8400  -24.4460 O.2   308  TRP308     -0.2864
    149  CB        28.2400   32.2360  -24.5160 C.3   308  TRP308      0.0576
    150  CG        27.4290   33.2990  -25.2280 C.ar  308  TRP308      0.0006
    151  CD1       27.5710   33.6760  -26.5240 C.ar  308  TRP308      0.0946
    152  CD2       26.3250   34.0480  -24.7190 C.ar  308  TRP308      0.0152
    153  NE1       26.5990   34.5850  -26.8710 N.ar  308  TRP308     -0.2442
    154  CE2       25.8430   34.8690  -25.7880 C.ar  308  TRP308      0.0810
    155  CE3       25.6880   34.1230  -23.4750 C.ar  308  TRP308      0.0012
    156  CZ2       24.7260   35.7550  -25.6510 C.ar  308  TRP308      0.0191
    157  CZ3       24.5830   35.0480  -23.3200 C.ar  308  TRP308      0.0001
    158  CH2       24.1090   35.8070  -24.4280 C.ar  308  TRP308      0.0015
    159  N         24.6280   32.5620  -19.9300 N.3   310  ILE310     -0.1245
    160  CA        24.6240   33.2230  -18.6370 C.3   310  ILE310      0.1561
    161  C         23.3250   32.9040  -17.8870 C.2   310  ILE310      0.2260
    162  O         22.2160   32.6820  -18.4710 O.2   310  ILE310     -0.2867
    163  CB        24.7960   34.7440  -18.7100 C.3   310  ILE310      0.0252
    164  CG1       23.6440   35.4000  -19.5150 C.3   310  ILE310      0.0019
    165  CG2       26.1670   35.0140  -19.2910 C.3   310  ILE310      0.0019
    166  CD1       23.7750   36.9540  -19.6500 C.3   310  ILE310      0.0001
@<TRIPOS>BOND
     1    81    80    1
     2    81    82    2
     3    80    83    1
     4    80    79    1
     5    84    85    1
     6    42    41    1
     7    85    86    1
     8    85    88    1
     9    87    86    2
    10    72    71    1
    11    72    73    2
    12    74    71    1
    13    74    75    1
    14    71    70    1
    15   133   131   ar
    16   133   134   ar
    17    88    89    1
    18    41    40    1
    19    77    76    2
    20   131   130   ar
    21    89    90    1
    22    78    76   am
    23    76    75    1
    24   125   126    1
    25   136   134   ar
    26   136   138   ar
    27   134   132   ar
    28    35    36    1
    29    92    90   am
    30    39    40    1
    31    39    36    1
    32    90    91    2
    33   130   132   ar
    34   130   129    1
    35   138   137   ar
    36   128   127    2
    37   102   101    1
    38   132   135   ar
    39    36    37    1
    40   126   129    1
    41   126   127    1
    42   103   101    1
    43    93    94    1
    44   101   100    2
    45   127   139   am
    46    37    38    2
    47   137   135   ar
    48    68    67   ar
    49    69    67   ar
    50    67    66    1
    51   100    99    1
    52    64    63    2
    53    99    98    1
    54    66    65    2
    55    96    95    2
    56   139   140    1
    57    94    95    1
    58    94    97    1
    59    63    62    1
    60   143   140    1
    61   143   144    1
    62    52    53   ar
    63    52    50   ar
    64    98    97    1
    65   140   141    1
    66    65    62    1
    67    53    51   ar
    68    62    61    1
    69    50    48   ar
    70    57    56    2
    71    43    44    1
    72   153   151   ar
    73   153   154   ar
    74    59    58    1
    75   141   142    2
    76   141   145   am
    77    51    49   ar
    78   151   150   ar
    79    48    49   ar
    80    48    47    1
    81    56    55    1
    82   145   146    1
    83    54    55    1
    84    54    45   am
    85    47    44    1
    86   154   156   ar
    87   154   152   ar
    88   156   158   ar
    89    44    45    1
    90    58    55    1
    91    58    60    1
    92    25    23    1
    93   150   152   ar
    94   150   149    1
    95    34    32   am
    96    45    46    2
    97    31    32    1
    98    31    30    1
    99    32    33    2
   100   152   155   ar
   101   146   149    1
   102   146   147    1
   103   148   147    2
   104   158   157   ar
   105    23    22    1
   106    23    24    1
   107    22    19    1
   108    30    27    1
   109   155   157   ar
   110    11    10    1
   111    21    20    2
   112    18    19    1
   113    19    20    1
   114    26    27    1
   115    27    28    1
   116    10    12    1
   117    10     7    1
   118    28    29    2
   119     6     7    1
   120     6     3   am
   121     2     3    1
   122     2     5    1
   123     2     1    1
   124     7     8    1
   125     3     4    2
   126     9     8    2
   127   159   160    1
   128    17    14    1
   129   166   164    1
   130   164   163    1
   131   165   163    1
   132   163   160    1
   133   160   161    1
   134   124   123    1
   135   162   161    2
   136    14    13    1
   137    14    15    1
   138   121   123   ar
   139   121   119   ar
   140   123   122   ar
   141    15    16    2
   142   119   118   ar
   143   112   111    1
   144   111   110    1
   145   122   120   ar
   146   107   106    2
   147   118   120   ar
   148   118   117    1
   149   109   110    1
   150   109   108    1
   151   106   113   am
   152   106   105    1
   153   117   114    1
   154   114   113    1
   155   114   115    1
   156   108   105    1
   157   105   104    1
   158   115   116    2
