@<TRIPOS>MOLECULE
tmp/5vmaA00.pdb
 234 228 0 0 0
SMALL
GASTEIGER

@<TRIPOS>ATOM
      1  N          0.2750   41.6360  -26.7070 N.3    29  HIS29      -0.1241
      2  CA         0.2960   42.2220  -25.3810 C.3    29  HIS29       0.1621
      3  C         -1.0790   42.8460  -25.0520 C.2    29  HIS29       0.2264
      4  O         -1.6820   42.6150  -23.9450 O.2    29  HIS29      -0.2867
      5  CB         1.4120   43.2150  -25.2340 C.3    29  HIS29       0.0745
      6  CG         1.3940   43.9200  -23.9120 C.ar   29  HIS29       0.0817
      7  ND1        1.7820   43.2990  -22.7320 N.ar   29  HIS29      -0.2268
      8  CD2        1.0040   45.1720  -23.5890 C.ar   29  HIS29       0.1154
      9  CE1        1.6220   44.1710  -21.7380 C.ar   29  HIS29       0.1986
     10  NE2        1.1660   45.3200  -22.2280 N.ar   29  HIS29      -0.2212
     11  N          6.4830   47.4850  -20.5500 N.3    38  ALA38      -0.1231
     12  CA         7.5570   46.4940  -20.3950 C.3    38  ALA38       0.1679
     13  C          7.8930   46.0350  -21.8170 C.2    38  ALA38       0.2434
     14  O          9.0060   46.3410  -22.2890 O.2    38  ALA38      -0.2733
     15  CB         7.1390   45.3470  -19.4120 C.3    38  ALA38       0.0304
     16  N          6.8750   45.4930  -22.5890 N.am   39  PRO39      -0.2729
     17  CA         6.9750   45.6860  -24.0480 C.3    39  PRO39       0.1401
     18  C          6.7420   47.1860  -24.3420 C.2    39  PRO39       0.2269
     19  O          6.1500   47.9020  -23.5180 O.2    39  PRO39      -0.2865
     20  CB         5.8860   44.7770  -24.6210 C.3    39  PRO39       0.0296
     21  CG         4.8650   44.7620  -23.5600 C.3    39  PRO39       0.0237
     22  CD         5.5960   44.8670  -22.2340 C.3    39  PRO39       0.0939
     23  N          4.6280   38.6170  -25.5110 N.3    46  THR46      -0.1203
     24  CA         5.5890   38.2470  -24.5100 C.3    46  THR46       0.1994
     25  C          5.4680   36.8170  -24.1290 C.2    46  THR46       0.2619
     26  O          4.3770   36.2340  -24.2840 O.2    46  THR46      -0.2717
     27  CB         5.4130   39.0730  -23.2160 C.3    46  THR46       0.1784
     28  OG1        4.1240   38.8570  -22.7110 O.3    46  THR46      -0.2211
     29  CG2        5.6320   40.4780  -23.4780 C.3    46  THR46       0.0376
     30  N          6.5190   36.2740  -23.5270 N.am   47  SER47      -0.1937
     31  CA         6.4010   34.9620  -22.9210 C.3    47  SER47       0.2055
     32  C          5.2940   35.0020  -21.8390 C.2    47  SER47       0.2642
     33  O          4.5820   34.0010  -21.6400 O.2    47  SER47      -0.2714
     34  CB         7.7230   34.3510  -22.4190 C.3    47  SER47       0.2130
     35  OG         8.4660   35.2530  -21.6180 O.3    47  SER47      -0.2179
     36  N          5.1730   36.1380  -21.1440 N.am   48  GLU48      -0.1976
     37  CA         4.1480   36.3200  -20.1780 C.3    48  GLU48       0.1602
     38  C          2.7660   36.0420  -20.7660 C.2    48  GLU48       0.2287
     39  O          1.9510   35.2640  -20.2190 O.2    48  GLU48      -0.2864
     40  CB         4.2570   37.7490  -19.6330 C.3    48  GLU48       0.0415
     41  CG         3.0610   38.2830  -18.8590 C.3    48  GLU48       0.1163
     42  CD         3.3860   39.7410  -18.5000 C.2    48  GLU48       0.3649
     43  OE1        4.1200   40.0080  -17.4810 O.co2  48  GLU48      -0.2457
     44  OE2        2.9780   40.6170  -19.3350 O.co2  48  GLU48      -0.2457
     45  N         28.2040   45.1920  -15.4550 N.3   107  GLU107     -0.1245
     46  CA        26.9890   45.9850  -15.6120 C.3   107  GLU107      0.1567
     47  C         27.3050   47.3950  -15.1740 C.2   107  GLU107      0.2260
     48  O         28.2600   47.6070  -14.4010 O.2   107  GLU107     -0.2867
     49  CB        25.8480   45.3860  -14.7430 C.3   107  GLU107      0.0388
     50  CG        25.4460   43.9620  -15.1780 C.3   107  GLU107      0.1160
     51  CD        24.3310   43.2900  -14.3610 C.2   107  GLU107      0.3649
     52  OE1       23.7430   43.9370  -13.4480 O.co2 107  GLU107     -0.2457
     53  OE2       24.0620   42.0910  -14.6530 O.co2 107  GLU107     -0.2457
     54  N         11.6080   36.0310  -24.5400 N.3   147  TRP147     -0.1241
     55  CA        10.5870   36.7580  -23.8680 C.3   147  TRP147      0.1605
     56  C          9.7530   37.7040  -24.7480 C.2   147  TRP147      0.2264
     57  O          8.6680   38.0610  -24.3430 O.2   147  TRP147     -0.2867
     58  CB        11.1700   37.5440  -22.7090 C.3   147  TRP147      0.0550
     59  CG        11.6910   38.9890  -23.0380 C.ar  147  TRP147      0.0003
     60  CD1       12.8620   39.3040  -23.5670 C.ar  147  TRP147      0.0946
     61  CD2       10.9770   40.2230  -22.8770 C.ar  147  TRP147      0.0152
     62  NE1       13.0020   40.6930  -23.6680 N.ar  147  TRP147     -0.2442
     63  CE2       11.8360   41.2690  -23.2900 C.ar  147  TRP147      0.0810
     64  CE3        9.7040   40.5560  -22.4040 C.ar  147  TRP147      0.0012
     65  CZ2       11.4420   42.6460  -23.2510 C.ar  147  TRP147      0.0191
     66  CZ3        9.3450   41.9010  -22.3120 C.ar  147  TRP147      0.0001
     67  CH2       10.1980   42.9180  -22.7810 C.ar  147  TRP147      0.0015
     68  N         14.7740   42.0010  -29.1370 N.3   171  ASN171     -0.1240
     69  CA        15.0870   42.3530  -27.7560 C.3   171  ASN171      0.1653
     70  C         15.2440   43.8420  -27.6210 C.2   171  ASN171      0.2266
     71  O         15.3990   44.5350  -28.6320 O.2   171  ASN171     -0.2867
     72  CB        16.3440   41.6360  -27.2760 C.3   171  ASN171      0.1155
     73  CG        16.4180   41.4910  -25.7180 C.2   171  ASN171      0.2627
     74  OD1       15.4700   41.8190  -24.9530 O.2   171  ASN171     -0.2716
     75  ND2       17.5720   40.9610  -25.2550 N.am  171  ASN171     -0.0877
     76  N         15.8790   45.6490  -23.7580 N.3   173  PHE173     -0.1227
     77  CA        16.7320   45.9520  -22.5550 C.3   173  PHE173      0.1736
     78  C         18.0740   45.2350  -22.6780 C.2   173  PHE173      0.2595
     79  O         18.1190   44.0070  -22.9910 O.2   173  PHE173     -0.2718
     80  CB        16.0580   45.3740  -21.2990 C.3   173  PHE173      0.0547
     81  CG        14.7250   45.9750  -20.9880 C.ar  173  PHE173     -0.0202
     82  CD1       14.6320   47.2640  -20.3700 C.ar  173  PHE173     -0.0042
     83  CD2       13.5490   45.3050  -21.3170 C.ar  173  PHE173     -0.0042
     84  CE1       13.4050   47.8120  -20.0770 C.ar  173  PHE173     -0.0003
     85  CE2       12.3350   45.8780  -21.0240 C.ar  173  PHE173     -0.0003
     86  CZ        12.2460   47.1170  -20.4030 C.ar  173  PHE173     -0.0000
     87  N         19.1520   45.9820  -22.4370 N.am  174  GLN174     -0.1979
     88  CA        20.5280   45.4360  -22.4090 C.3   174  GLN174      0.1601
     89  C         21.4780   46.1880  -21.4910 C.2   174  GLN174      0.2287
     90  O         22.6000   45.7190  -21.1940 O.2   174  GLN174     -0.2864
     91  CB        21.1800   45.6340  -23.7870 C.3   174  GLN174      0.0394
     92  CG        20.6510   44.7410  -24.8990 C.3   174  GLN174      0.0908
     93  CD        21.1140   43.3240  -24.7640 C.2   174  GLN174      0.2608
     94  OE1       20.3470   42.4630  -24.4280 O.2   174  GLN174     -0.2717
     95  NE2       22.3180   43.0750  -25.1010 N.am  174  GLN174     -0.0878
     96  N         21.3450   47.7720  -18.2300 N.3   176  GLY176     -0.1225
     97  CA        21.4020   47.8850  -16.8120 C.3   176  GLY176      0.1811
     98  C         20.2110   48.5180  -16.1780 C.2   176  GLY176      0.2280
     99  O         19.1790   48.7620  -16.8040 O.2   176  GLY176     -0.2866
    100  N         16.8010   35.5850  -24.5760 N.3   220  THR220     -0.1203
    101  CA        16.6530   35.7510  -23.1460 C.3   220  THR220      0.1994
    102  C         15.2560   35.3570  -22.7330 C.2   220  THR220      0.2618
    103  O         14.2760   35.8810  -23.2740 O.2   220  THR220     -0.2717
    104  CB        16.9360   37.2310  -22.7720 C.3   220  THR220      0.1784
    105  OG1       18.2390   37.5860  -23.2180 O.3   220  THR220     -0.2211
    106  CG2       16.8590   37.3950  -21.2600 C.3   220  THR220      0.0376
    107  N         15.1210   34.4460  -21.7520 N.am  221  ASN221     -0.1960
    108  CA        13.8260   34.1340  -21.1930 C.3   221  ASN221      0.1819
    109  C         13.4880   35.1180  -20.0780 C.2   221  ASN221      0.2621
    110  O         14.3520   35.8630  -19.6230 O.2   221  ASN221     -0.2715
    111  CB        13.7290   32.6650  -20.7100 C.3   221  ASN221      0.1195
    112  CG        14.0920   32.4490  -19.2600 C.2   221  ASN221      0.2630
    113  OD1       15.0670   33.0380  -18.7800 O.2   221  ASN221     -0.2716
    114  ND2       13.2960   31.6080  -18.5420 N.am  221  ASN221     -0.0877
    115  N         12.2580   35.0340  -19.6170 N.am  222  ALA222     -0.1977
    116  CA        11.7590   35.6530  -18.3940 C.3   222  ALA222      0.1597
    117  C         11.2930   34.4570  -17.5500 C.2   222  ALA222      0.2287
    118  O         10.3740   33.7490  -17.9150 O.2   222  ALA222     -0.2864
    119  CB        10.5400   36.4880  -18.7500 C.3   222  ALA222      0.0319
    120  N          9.7340   33.9890  -14.8230 N.3   224  ASP224     -0.1225
    121  CA         8.3610   33.9290  -14.3100 C.3   224  ASP224      0.1805
    122  C          7.4070   33.3940  -15.3820 C.2   224  ASP224      0.2597
    123  O          6.3570   32.8420  -15.0180 O.2   224  ASP224     -0.2718
    124  CB         7.7790   35.2620  -13.7500 C.3   224  ASP224      0.1424
    125  CG         7.6500   36.3880  -14.7870 C.2   224  ASP224      0.3668
    126  OD1        8.3160   36.3710  -15.8650 O.co2 224  ASP224     -0.2456
    127  OD2        6.8940   37.3430  -14.4730 O.co2 224  ASP224     -0.2456
    128  N          7.7070   33.6280  -16.6490 N.am  225  ALA225     -0.1979
    129  CA         6.7680   33.1680  -17.7300 C.3   225  ALA225      0.1597
    130  C          6.8070   31.7050  -17.9880 C.2   225  ALA225      0.2287
    131  O          5.7540   31.0290  -18.0440 O.2   225  ALA225     -0.2864
    132  CB         6.9710   33.9350  -19.0340 C.3   225  ALA225      0.0319
    133  N         25.0670   34.7590  -12.7980 N.3   264  LYS264     -0.1245
    134  CA        25.2300   35.2090  -14.1910 C.3   264  LYS264      0.1561
    135  C         26.4690   34.5680  -14.9210 C.2   264  LYS264      0.2260
    136  O         26.3230   34.0420  -16.0210 O.2   264  LYS264     -0.2867
    137  CB        25.3890   36.7410  -14.2040 C.3   264  LYS264      0.0271
    138  CG        25.2790   37.3050  -15.6290 C.3   264  LYS264      0.0035
    139  CD        25.3260   38.8360  -15.5730 C.3   264  LYS264      0.0206
    140  CE        25.0210   39.4130  -16.9610 C.3   264  LYS264      0.1093
    141  NZ        25.3970   40.8410  -16.9620 N.3   264  LYS264     -0.1314
    142  N         16.2670   36.7610  -12.6110 N.3   292  TRP292     -0.1227
    143  CA        15.4720   37.5280  -13.5270 C.3   292  TRP292      0.1737
    144  C         15.3940   36.9000  -14.9480 C.2   292  TRP292      0.2595
    145  O         14.3810   37.0520  -15.6810 O.2   292  TRP292     -0.2718
    146  CB        16.1260   38.9290  -13.6290 C.3   292  TRP292      0.0564
    147  CG        15.3260   39.9940  -14.2580 C.ar  292  TRP292      0.0003
    148  CD1       15.5800   40.6240  -15.4870 C.ar  292  TRP292      0.0946
    149  CD2       14.3410   40.7970  -13.6270 C.ar  292  TRP292      0.0152
    150  NE1       14.7130   41.5910  -15.6840 N.ar  292  TRP292     -0.2442
    151  CE2       13.9640   41.7770  -14.5430 C.ar  292  TRP292      0.0810
    152  CE3       13.7190   40.7590  -12.3830 C.ar  292  TRP292      0.0012
    153  CZ2       12.9900   42.7480  -14.2570 C.ar  292  TRP292      0.0191
    154  CZ3       12.6810   41.7140  -12.0950 C.ar  292  TRP292      0.0001
    155  CH2       12.3710   42.7140  -13.0220 C.ar  292  TRP292      0.0015
    156  N         16.4770   36.2620  -15.3730 N.am  293  TYR293     -0.1976
    157  CA        16.5550   35.6190  -16.6640 C.3   293  TYR293      0.1639
    158  C         17.7020   34.5920  -16.7610 C.2   293  TYR293      0.2290
    159  O         18.5300   34.5370  -15.8760 O.2   293  TYR293     -0.2864
    160  CB        16.8030   36.7260  -17.7570 C.3   293  TYR293      0.0560
    161  CG        18.1090   37.4310  -17.5440 C.ar  293  TYR293     -0.0198
    162  CD1       18.1530   38.5200  -16.7300 C.ar  293  TYR293     -0.0009
    163  CD2       19.2830   37.0050  -18.1560 C.ar  293  TYR293     -0.0009
    164  CE1       19.2960   39.2280  -16.5160 C.ar  293  TYR293      0.0417
    165  CE2       20.4950   37.6830  -17.9590 C.ar  293  TYR293      0.0417
    166  CZ        20.4780   38.8130  -17.0930 C.ar  293  TYR293      0.1957
    167  OH        21.5950   39.4510  -16.8210 O.3   293  TYR293     -0.2866
    168  N         20.1550   33.6840  -20.3950 N.3   295  SER295     -0.1217
    169  CA        20.3800   34.0940  -21.7380 C.3   295  SER295      0.1889
    170  C         21.3470   33.1380  -22.4030 C.2   295  SER295      0.2288
    171  O         22.2080   32.5730  -21.7370 O.2   295  SER295     -0.2866
    172  CB        20.9390   35.5030  -21.7910 C.3   295  SER295      0.2089
    173  OG        20.8490   35.9920  -23.0850 O.3   295  SER295     -0.2183
    174  N         24.6280   32.5620  -19.9300 N.3   310  ILE310     -0.1245
    175  CA        24.6240   33.2230  -18.6370 C.3   310  ILE310      0.1561
    176  C         23.3250   32.9040  -17.8870 C.2   310  ILE310      0.2260
    177  O         22.2160   32.6820  -18.4710 O.2   310  ILE310     -0.2867
    178  CB        24.7960   34.7440  -18.7100 C.3   310  ILE310      0.0252
    179  CG1       23.6440   35.4000  -19.5150 C.3   310  ILE310      0.0019
    180  CG2       26.1670   35.0140  -19.2910 C.3   310  ILE310      0.0019
    181  CD1       23.7750   36.9540  -19.6500 C.3   310  ILE310      0.0001
    182  N          9.0090   37.0520   -9.0480 N.3   319  TYR319     -0.1241
    183  CA         9.2360   36.0460  -10.0670 C.3   319  TYR319      0.1605
    184  C          9.1850   34.6080   -9.5650 C.2   319  TYR319      0.2264
    185  O          9.1470   33.7000  -10.3800 O.2   319  TYR319     -0.2867
    186  CB        10.6230   36.2830  -10.6990 C.3   319  TYR319      0.0534
    187  CG        10.6690   37.2750  -11.8050 C.ar  319  TYR319     -0.0201
    188  CD1       10.0910   38.5420  -11.6840 C.ar  319  TYR319     -0.0009
    189  CD2       11.3920   37.0070  -12.9470 C.ar  319  TYR319     -0.0009
    190  CE1       10.1600   39.4890  -12.7530 C.ar  319  TYR319      0.0417
    191  CE2       11.4500   37.9050  -13.9910 C.ar  319  TYR319      0.0417
    192  CZ        10.8130   39.1340  -13.9100 C.ar  319  TYR319      0.1957
    193  OH        10.9270   40.0260  -14.9250 O.3   319  TYR319     -0.2866
    194  N         17.2940   44.6010  -10.0270 N.3   399  VAL399     -0.1231
    195  CA        17.4730   44.7110  -11.4670 C.3   399  VAL399      0.1692
    196  C         17.1350   46.0660  -12.0130 C.2   399  VAL399      0.2592
    197  O         17.9230   46.5380  -12.7980 O.2   399  VAL399     -0.2718
    198  CB        16.7150   43.6580  -12.3390 C.3   399  VAL399      0.0266
    199  CG1       17.3410   43.5740  -13.7260 C.3   399  VAL399      0.0020
    200  CG2       16.8070   42.2740  -11.7470 C.3   399  VAL399      0.0020
    201  N         15.9820   46.6750  -11.6850 N.am  400  TYR400     -0.1976
    202  CA        15.6230   47.9930  -12.2800 C.3   400  TYR400      0.1639
    203  C         15.3080   48.9970  -11.2250 C.2   400  TYR400      0.2290
    204  O         14.6190   48.6610  -10.2680 O.2   400  TYR400     -0.2864
    205  CB        14.4200   47.9130  -13.2390 C.3   400  TYR400      0.0560
    206  CG        14.8930   47.2740  -14.5020 C.ar  400  TYR400     -0.0198
    207  CD1       15.5460   48.0320  -15.5150 C.ar  400  TYR400     -0.0009
    208  CD2       14.7060   45.9220  -14.7260 C.ar  400  TYR400     -0.0009
    209  CE1       16.0540   47.4240  -16.6750 C.ar  400  TYR400      0.0417
    210  CE2       15.2180   45.2940  -15.8870 C.ar  400  TYR400      0.0417
    211  CZ        15.9030   46.0530  -16.8520 C.ar  400  TYR400      0.1957
    212  OH        16.4180   45.4370  -17.9760 O.3   400  TYR400     -0.2866
    213  N          3.2760   43.3710   -8.3380 N.3   411  MET411     -0.1245
    214  CA         4.3160   42.4700   -7.8020 C.3   411  MET411      0.1570
    215  C          4.0050   41.8780   -6.4270 C.2   411  MET411      0.2261
    216  O          4.7310   40.9580   -5.9880 O.2   411  MET411     -0.2867
    217  CB         5.7140   43.0850   -7.8000 C.3   411  MET411      0.0387
    218  CG         6.4860   43.0790   -9.1270 C.3   411  MET411      0.0595
    219  SD         6.6950   41.5060  -10.0100 S.3   411  MET411     -0.1393
    220  CE         5.4910   41.7210  -11.2710 C.3   411  MET411      0.0692
    221  N          0.7440   39.0210   -7.8440 N.3   414  TRP414     -0.1241
    222  CA         1.1240   37.8730   -8.6500 C.3   414  TRP414      0.1605
    223  C          1.8040   36.7040   -7.8290 C.2   414  TRP414      0.2264
    224  O          1.4340   35.5400   -8.0260 O.2   414  TRP414     -0.2867
    225  CB         2.0400   38.3030   -9.8320 C.3   414  TRP414      0.0550
    226  CG         1.3370   38.9150  -11.0160 C.ar  414  TRP414      0.0003
    227  CD1       -0.0060   38.9420  -11.2710 C.ar  414  TRP414      0.0946
    228  CD2        1.9650   39.4720  -12.1510 C.ar  414  TRP414      0.0152
    229  NE1       -0.2620   39.5490  -12.4890 N.ar  414  TRP414     -0.2442
    230  CE2        0.9370   39.8870  -13.0530 C.ar  414  TRP414      0.0810
    231  CE3        3.3110   39.6440  -12.5230 C.ar  414  TRP414      0.0012
    232  CZ2        1.2180   40.4190  -14.3180 C.ar  414  TRP414      0.0191
    233  CZ3        3.6080   40.2350  -13.7530 C.ar  414  TRP414      0.0001
    234  CH2        2.5550   40.6100  -14.6510 C.ar  414  TRP414      0.0015
@<TRIPOS>BOND
     1    68    69    1
     2    71    70    2
     3    69    70    1
     4    69    72    1
     5    72    73    1
     6     1     2    1
     7    73    75   am
     8    73    74    2
     9    23    24    1
    10     2     5    1
    11     2     3    1
    12     5     6    1
    13    95    93   am
    14     3     4    2
    15    92    93    1
    16    92    91    1
    17    93    94    2
    18    56    57    2
    19    56    55    1
    20    20    17    1
    21    20    21    1
    22   100   101    1
    23    54    55    1
    24    24    25    1
    25    24    27    1
    26    18    17    1
    27    18    19    2
    28    26    25    2
    29    25    30   am
    30    17    16    1
    31     6     8   ar
    32     6     7   ar
    33    55    58    1
    34    91    88    1
    35    76    77    1
    36    62    60   ar
    37    62    63   ar
    38     8    10   ar
    39    60    59   ar
    40    21    22    1
    41    30    31    1
    42    29    27    1
    43    63    65   ar
    44    63    61   ar
    45   103   102    2
    46    65    67   ar
    47   105   104    1
    48    27    28    1
    49   101   104    1
    50   101   102    1
    51   173   172    1
    52    59    61   ar
    53    59    58    1
    54    79    78    2
    55    31    34    1
    56    31    32    1
    57    61    64   ar
    58    67    66   ar
    59   104   106    1
    60   102   107   am
    61     7     9   ar
    62    78    77    1
    63    78    87   am
    64    16    22    1
    65    16    13   am
    66    77    80    1
    67    87    88    1
    68    34    35    1
    69    88    89    1
    70    64    66   ar
    71   170   169    1
    72   170   171    2
    73    14    13    2
    74    10     9   ar
    75    32    33    2
    76    32    36   am
    77    13    12    1
    78   172   169    1
    79   107   108    1
    80   169   168    1
    81    89    90    2
    82    83    85   ar
    83    83    81   ar
    84    80    81    1
    85   108   111    1
    86   108   109    1
    87    36    37    1
    88    85    86   ar
    89    81    82   ar
    90    38    39    2
    91    38    37    1
    92   111   112    1
    93    11    12    1
    94    86    84   ar
    95    12    15    1
    96    82    84   ar
    97    37    40    1
    98   109   110    2
    99   109   115   am
   100   174   175    1
   101   181   179    1
   102    40    41    1
   103   115   116    1
   104   179   178    1
   105    44    42   ar
   106   180   178    1
   107   112   113    2
   108   112   114   am
   109   132   129    1
   110    41    42    1
   111   119   116    1
   112   178   175    1
   113   175   176    1
   114    42    43   ar
   115   177   176    2
   116   116   117    1
   117    96    97    1
   118   163   165   ar
   119   163   161   ar
   120   131   130    2
   121   130   129    1
   122   212   211    1
   123   165   166   ar
   124   118   117    2
   125   160   161    1
   126   160   157    1
   127   129   128    1
   128   161   162   ar
   129   166   167    1
   130   166   164   ar
   131   141   140    1
   132   140   139    1
   133   211   209   ar
   134   211   210   ar
   135    97    98    1
   136    99    98    2
   137   158   157    1
   138   158   159    2
   139   162   164   ar
   140   209   207   ar
   141   157   156    1
   142   128   122   am
   143   136   135    2
   144   210   208   ar
   145   126   125   ar
   146   150   148   ar
   147   150   151   ar
   148   145   144    2
   149   138   139    1
   150   138   137    1
   151    46    45    1
   152    46    47    1
   153    46    49    1
   154   207   206   ar
   155   148   147   ar
   156   122   123    2
   157   122   121    1
   158   156   144   am
   159    50    49    1
   160    50    51    1
   161    47    48    2
   162   144   143    1
   163   193   192    1
   164   135   134    1
   165   120   121    1
   166   125   127   ar
   167   125   124    1
   168   208   206   ar
   169    53    51   ar
   170   234   232   ar
   171   234   233   ar
   172   151   153   ar
   173   151   149   ar
   174   206   205    1
   175    51    52   ar
   176   232   230   ar
   177   121   124    1
   178   147   146    1
   179   147   149   ar
   180   153   155   ar
   181   137   134    1
   182   134   133    1
   183   191   192   ar
   184   191   189   ar
   185   192   190   ar
   186   233   231   ar
   187   199   198    1
   188   146   143    1
   189   149   152   ar
   190   143   142    1
   191   205   202    1
   192   230   229   ar
   193   230   228   ar
   194   155   154   ar
   195   189   187   ar
   196   197   196    2
   197   190   188   ar
   198   231   228   ar
   199   229   227   ar
   200   152   154   ar
   201   198   200    1
   202   198   195    1
   203   202   201    1
   204   202   203    1
   205   228   226   ar
   206   196   201   am
   207   196   195    1
   208   187   188   ar
   209   187   186    1
   210   195   194    1
   211   227   226   ar
   212   220   219    1
   213   203   204    2
   214   226   225    1
   215   186   183    1
   216   185   184    2
   217   183   184    1
   218   183   182    1
   219   219   218    1
   220   225   222    1
   221   218   217    1
   222   222   221    1
   223   222   223    1
   224   213   214    1
   225   224   223    2
   226   214   217    1
   227   214   215    1
   228   215   216    2
