@<TRIPOS>MOLECULE
tmp/5vmaA01.pdb
 189 186 0 0 0
SMALL
GASTEIGER

@<TRIPOS>ATOM
      1  N          0.2750   41.6360  -26.7070 N.3    29  HIS29      -0.1241
      2  CA         0.2960   42.2220  -25.3810 C.3    29  HIS29       0.1621
      3  C         -1.0790   42.8460  -25.0520 C.2    29  HIS29       0.2264
      4  O         -1.6820   42.6150  -23.9450 O.2    29  HIS29      -0.2867
      5  CB         1.4120   43.2150  -25.2340 C.3    29  HIS29       0.0745
      6  CG         1.3940   43.9200  -23.9120 C.ar   29  HIS29       0.0817
      7  ND1        1.7820   43.2990  -22.7320 N.ar   29  HIS29      -0.2268
      8  CD2        1.0040   45.1720  -23.5890 C.ar   29  HIS29       0.1154
      9  CE1        1.6220   44.1710  -21.7380 C.ar   29  HIS29       0.1986
     10  NE2        1.1660   45.3200  -22.2280 N.ar   29  HIS29      -0.2212
     11  N          5.2120   49.9470  -21.4830 N.3    37  GLU37      -0.1231
     12  CA         5.2600   49.5340  -20.0660 C.3    37  GLU37       0.1699
     13  C          6.2910   48.4760  -19.7100 C.2    37  GLU37       0.2592
     14  O          6.9850   48.6520  -18.7520 O.2    37  GLU37      -0.2718
     15  CB         3.8490   49.1800  -19.4940 C.3    37  GLU37       0.0402
     16  CG         3.0440   48.1610  -20.2640 C.3    37  GLU37       0.1161
     17  CD         1.5830   48.2310  -19.9350 C.2    37  GLU37       0.3649
     18  OE1        0.8850   47.2100  -20.1090 O.co2  37  GLU37      -0.2457
     19  OE2        1.0880   49.3280  -19.5330 O.co2  37  GLU37      -0.2457
     20  N          6.4830   47.4850  -20.5500 N.am   38  ALA38      -0.1966
     21  CA         7.5570   46.4940  -20.3950 C.3    38  ALA38       0.1713
     22  C          7.8930   46.0350  -21.8170 C.2    38  ALA38       0.2458
     23  O          9.0060   46.3410  -22.2890 O.2    38  ALA38      -0.2730
     24  CB         7.1390   45.3470  -19.4120 C.3    38  ALA38       0.0333
     25  N          6.8750   45.4930  -22.5890 N.am   39  PRO39      -0.2727
     26  CA         6.9750   45.6860  -24.0480 C.3    39  PRO39       0.1402
     27  C          6.7420   47.1860  -24.3420 C.2    39  PRO39       0.2269
     28  O          6.1500   47.9020  -23.5180 O.2    39  PRO39      -0.2865
     29  CB         5.8860   44.7770  -24.6210 C.3    39  PRO39       0.0296
     30  CG         4.8650   44.7620  -23.5600 C.3    39  PRO39       0.0237
     31  CD         5.5960   44.8670  -22.2340 C.3    39  PRO39       0.0939
     32  N          5.1730   36.1380  -21.1440 N.3    48  GLU48      -0.1245
     33  CA         4.1480   36.3200  -20.1780 C.3    48  GLU48       0.1567
     34  C          2.7660   36.0420  -20.7660 C.2    48  GLU48       0.2260
     35  O          1.9510   35.2640  -20.2190 O.2    48  GLU48      -0.2867
     36  CB         4.2570   37.7490  -19.6330 C.3    48  GLU48       0.0388
     37  CG         3.0610   38.2830  -18.8590 C.3    48  GLU48       0.1160
     38  CD         3.3860   39.7410  -18.5000 C.2    48  GLU48       0.3649
     39  OE1        4.1200   40.0080  -17.4810 O.co2  48  GLU48      -0.2457
     40  OE2        2.9780   40.6170  -19.3350 O.co2  48  GLU48      -0.2457
     41  N          5.5170   48.5000   -7.9440 N.3   408  TRP408     -0.1241
     42  CA         4.1900   48.1030   -8.4970 C.3   408  TRP408      0.1605
     43  C          3.4320   47.0890   -7.6170 C.2   408  TRP408      0.2264
     44  O          3.9870   46.0320   -7.2340 O.2   408  TRP408     -0.2867
     45  CB         4.3280   47.5670   -9.8880 C.3   408  TRP408      0.0550
     46  CG         2.9990   47.2600  -10.5680 C.ar  408  TRP408      0.0003
     47  CD1        1.9020   48.0470  -10.5810 C.ar  408  TRP408      0.0946
     48  CD2        2.6610   46.0710  -11.3170 C.ar  408  TRP408      0.0152
     49  NE1        0.8660   47.4000  -11.2540 N.ar  408  TRP408     -0.2442
     50  CE2        1.3290   46.2150  -11.7570 C.ar  408  TRP408      0.0810
     51  CE3        3.3370   44.9000  -11.6070 C.ar  408  TRP408      0.0012
     52  CZ2        0.6690   45.2360  -12.4710 C.ar  408  TRP408      0.0191
     53  CZ3        2.6850   43.9120  -12.3110 C.ar  408  TRP408      0.0001
     54  CH2        1.3410   44.0910  -12.7550 C.ar  408  TRP408      0.0015
     55  N          3.2760   43.3710   -8.3380 N.3   411  MET411     -0.1245
     56  CA         4.3160   42.4700   -7.8020 C.3   411  MET411      0.1570
     57  C          4.0050   41.8780   -6.4270 C.2   411  MET411      0.2261
     58  O          4.7310   40.9580   -5.9880 O.2   411  MET411     -0.2867
     59  CB         5.7140   43.0850   -7.8000 C.3   411  MET411      0.0387
     60  CG         6.4860   43.0790   -9.1270 C.3   411  MET411      0.0595
     61  SD         6.6950   41.5060  -10.0100 S.3   411  MET411     -0.1393
     62  CE         5.4910   41.7210  -11.2710 C.3   411  MET411      0.0692
     63  N          0.7440   39.0210   -7.8440 N.3   414  TRP414     -0.1241
     64  CA         1.1240   37.8730   -8.6500 C.3   414  TRP414      0.1605
     65  C          1.8040   36.7040   -7.8290 C.2   414  TRP414      0.2264
     66  O          1.4340   35.5400   -8.0260 O.2   414  TRP414     -0.2867
     67  CB         2.0400   38.3030   -9.8320 C.3   414  TRP414      0.0550
     68  CG         1.3370   38.9150  -11.0160 C.ar  414  TRP414      0.0003
     69  CD1       -0.0060   38.9420  -11.2710 C.ar  414  TRP414      0.0946
     70  CD2        1.9650   39.4720  -12.1510 C.ar  414  TRP414      0.0152
     71  NE1       -0.2620   39.5490  -12.4890 N.ar  414  TRP414     -0.2442
     72  CE2        0.9370   39.8870  -13.0530 C.ar  414  TRP414      0.0810
     73  CE3        3.3110   39.6440  -12.5230 C.ar  414  TRP414      0.0012
     74  CZ2        1.2180   40.4190  -14.3180 C.ar  414  TRP414      0.0191
     75  CZ3        3.6080   40.2350  -13.7530 C.ar  414  TRP414      0.0001
     76  CH2        2.5550   40.6100  -14.6510 C.ar  414  TRP414      0.0015
     77  N         -1.8840   50.8650   -5.5720 N.3   498  GLY498     -0.1210
     78  CA        -1.1600   50.9930   -6.8350 C.3   498  GLY498      0.1956
     79  C          0.3250   50.7630   -6.7290 C.2   498  GLY498      0.2611
     80  O          0.9140   50.1810   -7.6380 O.2   498  GLY498     -0.2717
     81  N          0.9290   51.2330   -5.6650 N.am  499  ASN499     -0.1974
     82  CA         2.3320   51.1300   -5.4610 C.3   499  ASN499      0.1688
     83  C          2.6200   50.9930   -3.9650 C.2   499  ASN499      0.2292
     84  O          1.7930   51.3780   -3.0780 O.2   499  ASN499     -0.2864
     85  CB         3.1180   52.3650   -6.0150 C.3   499  ASN499      0.1181
     86  CG         3.1100   52.4320   -7.5160 C.2   499  ASN499      0.2629
     87  OD1        3.6610   51.5850   -8.2190 O.2   499  ASN499     -0.2716
     88  ND2        2.3940   53.4430   -8.0220 N.am  499  ASN499     -0.0877
     89  N         -6.0130   52.8460   -7.2350 N.3   529  THR529     -0.1203
     90  CA        -6.3770   52.7710   -8.6370 C.3   529  THR529      0.1994
     91  C         -7.4040   51.6930   -8.8870 C.2   529  THR529      0.2618
     92  O         -7.8050   51.0150   -7.9520 O.2   529  THR529     -0.2717
     93  CB        -5.2540   52.3790   -9.6140 C.3   529  THR529      0.1784
     94  OG1       -4.2160   51.5140   -9.0210 O.3   529  THR529     -0.2211
     95  CG2       -4.7840   53.5640  -10.3000 C.3   529  THR529      0.0376
     96  N         -7.7370   51.4840  -10.1650 N.am  530  GLN530     -0.1965
     97  CA        -8.6680   50.4900  -10.5910 C.3   530  GLN530      0.1733
     98  C         -8.1340   49.4910  -11.6730 C.2   530  GLN530      0.2616
     99  O         -8.8610   49.1380  -12.6380 O.2   530  GLN530     -0.2715
    100  CB        -9.9180   51.2020  -11.0680 C.3   530  GLN530      0.0408
    101  CG       -10.4180   52.2840  -10.0420 C.3   530  GLN530      0.0908
    102  CD       -11.7310   52.8760  -10.4420 C.2   530  GLN530      0.2608
    103  OE1      -11.7090   53.6790  -11.3120 O.2   530  GLN530     -0.2717
    104  NE2      -12.8890   52.5020   -9.8110 N.am  530  GLN530     -0.0878
    105  N         -6.9640   48.9370  -11.4740 N.am  531  ASP531     -0.1971
    106  CA        -6.3180   47.9730  -12.4400 C.3   531  ASP531      0.1709
    107  C         -6.9790   46.6080  -12.3930 C.2   531  ASP531      0.2293
    108  O         -6.9070   45.8710  -11.3760 O.2   531  ASP531     -0.2864
    109  CB        -4.8360   47.8950  -12.0110 C.3   531  ASP531      0.1436
    110  CG        -3.9490   47.1840  -12.9990 C.2   531  ASP531      0.3671
    111  OD1       -4.3670   46.0930  -13.4930 O.co2 531  ASP531     -0.2456
    112  OD2       -2.7600   47.6360  -13.0840 O.co2 531  ASP531     -0.2456
    113  N         -7.3890   54.6070  -17.4790 N.3   587  GLU587     -0.1231
    114  CA        -6.1840   54.9010  -16.6850 C.3   587  GLU587      0.1699
    115  C         -5.5400   56.1400  -17.2190 C.2   587  GLU587      0.2592
    116  O         -5.5470   56.4140  -18.4150 O.2   587  GLU587     -0.2718
    117  CB        -5.1980   53.7160  -16.6520 C.3   587  GLU587      0.0402
    118  CG        -4.5430   53.4000  -18.0100 C.3   587  GLU587      0.1161
    119  CD        -3.8000   52.0810  -18.0400 C.2   587  GLU587      0.3649
    120  OE1       -4.4180   51.0010  -17.8150 O.co2 587  GLU587     -0.2457
    121  OE2       -2.5980   52.1270  -18.3320 O.co2 587  GLU587     -0.2457
    122  N         -4.9230   56.8650  -16.3270 N.am  588  GLU588     -0.1966
    123  CA        -4.0900   58.0220  -16.6340 C.3   588  GLU588      0.1733
    124  C         -2.6590   57.5960  -16.7240 C.2   588  GLU588      0.2616
    125  O         -2.1960   56.9240  -15.8370 O.2   588  GLU588     -0.2715
    126  CB        -4.1240   58.9990  -15.4640 C.3   588  GLU588      0.0429
    127  CG        -5.2700   59.9470  -15.4790 C.3   588  GLU588      0.1163
    128  CD        -4.9670   61.2910  -14.7620 C.2   588  GLU588      0.3649
    129  OE1       -4.1130   62.1230  -15.1890 O.co2 588  GLU588     -0.2457
    130  OE2       -5.6560   61.5180  -13.7850 O.co2 588  GLU588     -0.2457
    131  N         -1.9180   58.1370  -17.6690 N.am  589  ARG589     -0.1963
    132  CA        -0.5390   57.8080  -17.8700 C.3   589  ARG589      0.1729
    133  C          0.3330   59.0420  -17.8870 C.2   589  ARG589      0.2616
    134  O          0.7290   59.5550  -18.9310 O.2   589  ARG589     -0.2715
    135  CB        -0.3800   57.0180  -19.1950 C.3   589  ARG589      0.0348
    136  CG        -1.1200   55.6900  -19.1810 C.3   589  ARG589      0.0492
    137  CD        -0.6060   54.7540  -18.0870 C.3   589  ARG589      0.2205
    138  NE         0.8050   54.3970  -18.2360 N.pl3 589  ARG589     -0.0865
    139  CZ         1.2490   53.2460  -18.7820 C.cat 589  ARG589      0.5346
    140  NH1        0.4370   52.2960  -19.1930 N.pl3 589  ARG589      0.1354
    141  NH2        2.5540   53.0260  -18.8440 N.pl3 589  ARG589      0.1354
    142  N          0.7140   59.4400  -16.6950 N.am  590  GLU590     -0.1963
    143  CA         1.6200   60.5710  -16.4730 C.3   590  GLU590      0.1733
    144  C          3.0080   60.3290  -16.9320 C.2   590  GLU590      0.2616
    145  O          3.7680   61.2860  -17.0770 O.2   590  GLU590     -0.2715
    146  CB         1.6960   60.9260  -14.9850 C.3   590  GLU590      0.0429
    147  CG         0.5030   61.7600  -14.5130 C.3   590  GLU590      0.1163
    148  CD         0.4460   61.8840  -12.9920 C.2   590  GLU590      0.3649
    149  OE1        1.4640   61.5960  -12.3140 O.co2 590  GLU590     -0.2457
    150  OE2       -0.6400   62.1990  -12.4870 O.co2 590  GLU590     -0.2457
    151  N          3.3420   59.0530  -17.1160 N.am  591  ASP591     -0.1971
    152  CA         4.6140   58.6760  -17.7320 C.3   591  ASP591      0.1709
    153  C          4.7730   58.9420  -19.2150 C.2   591  ASP591      0.2293
    154  O          5.8590   58.8680  -19.7310 O.2   591  ASP591     -0.2864
    155  CB         4.9760   57.2110  -17.3760 C.3   591  ASP591      0.1436
    156  CG         3.9260   56.2130  -17.7810 C.2   591  ASP591      0.3671
    157  OD1        2.6860   56.5240  -17.9240 O.co2 591  ASP591     -0.2456
    158  OD2        4.3470   55.0860  -18.0430 O.co2 591  ASP591     -0.2456
    159  N         -5.6050   44.5820  -22.1080 N.3   679  ARG679     -0.1245
    160  CA        -4.3910   43.7530  -22.0490 C.3   679  ARG679      0.1563
    161  C         -4.7130   42.3090  -21.9830 C.2   679  ARG679      0.2260
    162  O         -5.5860   41.8980  -21.1780 O.2   679  ARG679     -0.2867
    163  CB        -3.5350   44.1020  -20.8270 C.3   679  ARG679      0.0307
    164  CG        -3.0340   45.5480  -20.8020 C.3   679  ARG679      0.0489
    165  CD        -2.4300   45.8910  -19.4590 C.3   679  ARG679      0.2205
    166  NE        -1.7920   47.2000  -19.4160 N.pl3 679  ARG679     -0.0865
    167  CZ        -2.3830   48.3230  -19.0470 C.cat 679  ARG679      0.5346
    168  NH1       -3.6410   48.3240  -18.6410 N.pl3 679  ARG679      0.1354
    169  NH2       -1.6820   49.4360  -19.0060 N.pl3 679  ARG679      0.1354
    170  N         -3.0030   39.5820  -20.6860 N.3   681  TRP681     -0.1227
    171  CA        -2.8150   38.9590  -19.3590 C.3   681  TRP681      0.1737
    172  C         -3.8860   39.4270  -18.3830 C.2   681  TRP681      0.2596
    173  O         -4.4310   38.6380  -17.5850 O.2   681  TRP681     -0.2718
    174  CB        -1.3940   39.2010  -18.7870 C.3   681  TRP681      0.0564
    175  CG        -1.1160   40.5590  -18.2530 C.ar  681  TRP681      0.0003
    176  CD1       -0.4630   41.5650  -18.8690 C.ar  681  TRP681      0.0946
    177  CD2       -1.4700   41.0630  -16.9390 C.ar  681  TRP681      0.0152
    178  NE1       -0.4090   42.6810  -18.0580 N.ar  681  TRP681     -0.2442
    179  CE2       -0.9800   42.3760  -16.8510 C.ar  681  TRP681      0.0810
    180  CE3       -2.0700   40.4990  -15.8180 C.ar  681  TRP681      0.0012
    181  CZ2       -1.1090   43.1360  -15.6610 C.ar  681  TRP681      0.0191
    182  CZ3       -2.2760   41.2570  -14.6910 C.ar  681  TRP681      0.0001
    183  CH2       -1.7600   42.5620  -14.5890 C.ar  681  TRP681      0.0015
    184  N         -4.1950   40.7040  -18.4520 N.am  682  SER682     -0.1952
    185  CA        -5.1190   41.2410  -17.5110 C.3   682  SER682      0.1924
    186  C         -6.4990   40.5610  -17.6630 C.2   682  SER682      0.2314
    187  O         -7.1760   40.2540  -16.6570 O.2   682  SER682     -0.2863
    188  CB        -5.2620   42.7350  -17.7030 C.3   682  SER682      0.2116
    189  OG        -4.0120   43.4000  -17.5470 O.3   682  SER682     -0.2180
@<TRIPOS>BOND
     1     1     2    1
     2     2     5    1
     3     2     3    1
     4     5     6    1
     5     3     4    2
     6    29    26    1
     7    29    30    1
     8    27    26    1
     9    27    28    2
    10    26    25    1
    11     6     8   ar
    12     6     7   ar
    13     8    10   ar
    14    30    31    1
    15     7     9   ar
    16    25    31    1
    17    25    22   am
    18    23    22    2
    19    10     9   ar
    20   159   160    1
    21   160   161    1
    22   160   163    1
    23   161   162    2
    24    22    21    1
    25    11    12    1
    26    32    33    1
    27   163   164    1
    28   164   165    1
    29    34    35    2
    30    34    33    1
    31   170   171    1
    32    20    21    1
    33    20    13   am
    34    21    24    1
    35    16    17    1
    36    16    15    1
    37    33    36    1
    38    18    17   ar
    39    12    13    1
    40    12    15    1
    41    17    19   ar
    42   154   153    2
    43    13    14    2
    44    36    37    1
    45   165   166    1
    46   166   167    2
    47   171   174    1
    48   171   172    1
    49    40    38   ar
    50   153   152    1
    51   135   136    1
    52   135   132    1
    53   140   139    1
    54   136   137    1
    55   167   169    1
    56   167   168    1
    57   134   133    2
    58   176   175   ar
    59   176   178   ar
    60    37    38    1
    61   141   139    1
    62   174   175    1
    63   139   138    2
    64    38    39   ar
    65   184   172   am
    66   184   185    1
    67   116   115    2
    68   172   173    2
    69   121   119   ar
    70   175   177   ar
    71   138   137    1
    72   178   179   ar
    73   158   156   ar
    74   119   118    1
    75   119   120   ar
    76   118   117    1
    77   157   156   ar
    78   133   132    1
    79   133   142   am
    80   132   131    1
    81   156   155    1
    82   152   155    1
    83   152   151    1
    84   188   189    1
    85   188   185    1
    86   131   124   am
    87   186   185    1
    88   186   187    2
    89   113   114    1
    90   115   114    1
    91   115   122   am
    92   151   144   am
    93   145   144    2
    94   177   179   ar
    95   177   180   ar
    96   144   143    1
    97   179   181   ar
    98   124   123    1
    99   124   125    2
   100   142   143    1
   101   114   117    1
   102   123   122    1
   103   123   126    1
   104   143   146    1
   105   180   182   ar
   106   181   183   ar
   107   127   126    1
   108   127   128    1
   109   129   128   ar
   110   146   147    1
   111   128   130   ar
   112   182   183   ar
   113    76    74   ar
   114    76    75   ar
   115   147   148    1
   116    74    72   ar
   117    75    73   ar
   118   111   110   ar
   119   112   110   ar
   120    72    71   ar
   121    72    70   ar
   122   110   109    1
   123   148   150   ar
   124   148   149   ar
   125    54    52   ar
   126    54    53   ar
   127    99    98    2
   128    73    70   ar
   129    71    69   ar
   130    52    50   ar
   131   106   107    1
   132   106   109    1
   133   106   105    1
   134   107   108    2
   135    53    51   ar
   136    70    68   ar
   137    50    48   ar
   138    50    49   ar
   139    98   105   am
   140    98    97    1
   141    51    48   ar
   142    48    46   ar
   143   103   102    2
   144    62    61    1
   145    69    68   ar
   146    49    47   ar
   147   100    97    1
   148   100   101    1
   149    68    67    1
   150    97    96    1
   151    47    46   ar
   152    46    45    1
   153   102   101    1
   154   102   104   am
   155    95    93    1
   156    96    91   am
   157    61    60    1
   158    45    42    1
   159    67    64    1
   160    93    94    1
   161    93    90    1
   162    60    59    1
   163    91    90    1
   164    91    92    2
   165    64    63    1
   166    64    65    1
   167    90    89    1
   168    42    41    1
   169    42    43    1
   170    55    56    1
   171    87    86    2
   172    66    65    2
   173    88    86   am
   174    56    59    1
   175    56    57    1
   176    80    79    2
   177    43    44    2
   178    86    85    1
   179    78    79    1
   180    78    77    1
   181    79    81   am
   182    57    58    2
   183    85    82    1
   184    81    82    1
   185    82    83    1
   186    83    84    2
