@<TRIPOS>MOLECULE
tmp/5vmgC02.pdb
 108 102 0 0 0
SMALL
GASTEIGER

@<TRIPOS>ATOM
      1  N        183.1390  -44.7750  241.1280 N.3    91  TYR91      -0.1241
      2  CA       184.0100  -44.9230  239.9840 C.3    91  TYR91       0.1605
      3  C        185.1360  -43.8880  240.1090 C.2    91  TYR91       0.2264
      4  O        184.8770  -42.6850  240.1070 O.2    91  TYR91      -0.2867
      5  CB       183.2290  -44.7560  238.6830 C.3    91  TYR91       0.0534
      6  CG       183.8310  -45.5160  237.5330 C.ar   91  TYR91      -0.0201
      7  CD1      185.0420  -45.1280  236.9870 C.ar   91  TYR91      -0.0009
      8  CD2      183.1940  -46.6250  236.9980 C.ar   91  TYR91      -0.0009
      9  CE1      185.6030  -45.8130  235.9370 C.ar   91  TYR91       0.0417
     10  CE2      183.7460  -47.3240  235.9410 C.ar   91  TYR91       0.0417
     11  CZ       184.9520  -46.9130  235.4140 C.ar   91  TYR91       0.1957
     12  OH       185.5130  -47.6080  234.3660 O.3    91  TYR91      -0.2866
     13  N        175.1640  -49.9240  230.6970 N.3   130  GLY130     -0.1210
     14  CA       176.4420  -50.1300  231.3620 C.3   130  GLY130      0.1956
     15  C        176.4330  -50.0800  232.8850 C.2   130  GLY130      0.2612
     16  O        175.8320  -49.1900  233.4890 O.2   130  GLY130     -0.2717
     17  N        177.0860  -51.0660  233.5000 N.am  131  VAL131     -0.1965
     18  CA       177.2730  -51.1070  234.9450 C.3   131  VAL131      0.1727
     19  C        178.7140  -51.4730  235.2600 C.2   131  VAL131      0.2617
     20  O        179.5130  -51.7120  234.3500 O.2   131  VAL131     -0.2715
     21  CB       176.3290  -52.1220  235.6280 C.3   131  VAL131      0.0290
     22  CG1      174.8820  -51.6880  235.4800 C.3   131  VAL131      0.0023
     23  CG2      176.5390  -53.5240  235.0640 C.3   131  VAL131      0.0023
     24  N        179.0410  -51.5080  236.5500 N.am  132  THR132     -0.1937
     25  CA       180.3820  -51.8630  236.9930 C.3   132  THR132      0.2028
     26  C        180.3860  -52.4370  238.4020 C.2   132  THR132      0.2642
     27  O        179.5310  -52.1120  239.2250 O.2   132  THR132     -0.2714
     28  CB       181.3370  -50.6450  236.9530 C.3   132  THR132      0.1808
     29  OG1      182.5570  -50.9680  237.6270 O.3   132  THR132     -0.2208
     30  CG2      180.7120  -49.4400  237.6210 C.3   132  THR132      0.0379
     31  N        181.3650  -53.2850  238.6810 N.am  133  ALA133     -0.1963
     32  CA       181.5350  -53.8290  240.0180 C.3   133  ALA133      0.1728
     33  C        181.9590  -52.7410  240.9970 C.2   133  ALA133      0.2616
     34  O        181.7920  -52.8910  242.2100 O.2   133  ALA133     -0.2715
     35  CB       182.5550  -54.9410  240.0010 C.3   133  ALA133      0.0334
     36  N        182.5140  -51.6520  240.4650 N.am  134  ALA134     -0.1977
     37  CA       182.9600  -50.5320  241.2880 C.3   134  ALA134      0.1597
     38  C        181.7990  -49.8230  241.9750 C.2   134  ALA134      0.2287
     39  O        181.9590  -49.3170  243.0850 O.2   134  ALA134     -0.2864
     40  CB       183.7440  -49.5410  240.4480 C.3   134  ALA134      0.0319
     41  N        176.5390  -55.6550  240.3310 N.3   141  SER141     -0.1217
     42  CA       177.1050  -54.5130  239.6290 C.3   141  SER141      0.1889
     43  C        176.0060  -53.5520  239.2070 C.2   141  SER141      0.2288
     44  O        174.9570  -53.9690  238.7110 O.2   141  SER141     -0.2866
     45  CB       177.9000  -54.9680  238.4070 C.3   141  SER141      0.2089
     46  OG       179.0090  -55.7520  238.8120 O.3   141  SER141     -0.2183
     47  N        175.4590  -44.4240  231.4410 N.3   149  TRP149     -0.1241
     48  CA       176.6380  -44.8420  230.6850 C.3   149  TRP149      0.1605
     49  C        176.2470  -45.2360  229.2600 C.2   149  TRP149      0.2264
     50  O        175.5690  -46.2390  229.0500 O.2   149  TRP149     -0.2867
     51  CB       177.3370  -46.0090  231.4040 C.3   149  TRP149      0.0550
     52  CG       178.7660  -46.2610  230.9740 C.ar  149  TRP149      0.0003
     53  CD1      179.3810  -45.8000  229.8430 C.ar  149  TRP149      0.0946
     54  CD2      179.7590  -47.0140  231.6870 C.ar  149  TRP149      0.0152
     55  NE1      180.6880  -46.2250  229.8050 N.ar  149  TRP149     -0.2442
     56  CE2      180.9450  -46.9720  230.9240 C.ar  149  TRP149      0.0810
     57  CE3      179.7600  -47.7220  232.8900 C.ar  149  TRP149      0.0012
     58  CZ2      182.1170  -47.6100  231.3270 C.ar  149  TRP149      0.0191
     59  CZ3      180.9280  -48.3540  233.2890 C.ar  149  TRP149      0.0001
     60  CH2      182.0880  -48.2920  232.5110 C.ar  149  TRP149      0.0015
     61  N        177.2260  -46.6390  225.6810 N.3   151  THR151     -0.1218
     62  CA       178.1930  -47.4170  224.9130 C.3   151  THR151      0.1862
     63  C        177.6680  -47.7120  223.5030 C.2   151  THR151      0.2287
     64  O        176.5470  -47.3340  223.1520 O.2   151  THR151     -0.2866
     65  CB       178.5300  -48.7320  225.6250 C.3   151  THR151      0.1770
     66  OG1      177.3260  -49.4550  225.9030 O.3   151  THR151     -0.2211
     67  CG2      179.2530  -48.4450  226.9280 C.3   151  THR151      0.0375
     68  N        184.7160  -40.7230  230.5970 N.3   179  HIS179     -0.1241
     69  CA       185.3950  -41.9710  230.9210 C.3   179  HIS179      0.1621
     70  C        186.7220  -42.1070  230.1740 C.2   179  HIS179      0.2264
     71  O        186.8310  -41.7030  229.0210 O.2   179  HIS179     -0.2867
     72  CB       184.4890  -43.1530  230.5990 C.3   179  HIS179      0.0745
     73  CG       185.0680  -44.4730  230.9940 C.ar  179  HIS179      0.0817
     74  ND1      185.4870  -45.4070  230.0720 N.ar  179  HIS179     -0.2268
     75  CD2      185.2940  -45.0180  232.2120 C.ar  179  HIS179      0.1154
     76  CE1      185.9500  -46.4690  230.7060 C.ar  179  HIS179      0.1986
     77  NE2      185.8440  -46.2580  232.0050 N.ar  179  HIS179     -0.2212
     78  N        190.2170  -51.2970  224.9120 N.3   186  GLU186     -0.1245
     79  CA       189.0030  -51.0500  225.6750 C.3   186  GLU186      0.1567
     80  C        188.1830  -49.9300  225.0410 C.2   186  GLU186      0.2260
     81  O        186.9510  -49.9890  225.0110 O.2   186  GLU186     -0.2867
     82  CB       189.3440  -50.6970  227.1190 C.3   186  GLU186      0.0388
     83  CG       188.1280  -50.5760  228.0100 C.3   186  GLU186      0.1160
     84  CD       188.4980  -50.2910  229.4430 C.2   186  GLU186      0.3649
     85  OE1      188.1290  -49.2080  229.9460 O.co2 186  GLU186     -0.2457
     86  OE2      189.1620  -51.1460  230.0690 O.co2 186  GLU186     -0.2457
     87  N        184.2800  -50.5400  223.9720 N.3   190  LEU190     -0.1245
     88  CA       183.1540  -49.7700  224.4880 C.3   190  LEU190      0.1561
     89  C        182.5810  -48.7750  223.4760 C.2   190  LEU190      0.2260
     90  O        181.3980  -48.8390  223.1430 O.2   190  LEU190     -0.2867
     91  CB       183.5650  -49.0280  225.7620 C.3   190  LEU190      0.0270
     92  CG       183.9770  -49.9000  226.9510 C.3   190  LEU190      0.0019
     93  CD1      184.3360  -49.0230  228.1390 C.3   190  LEU190      0.0001
     94  CD2      182.8810  -50.8760  227.3340 C.3   190  LEU190      0.0001
     95  N        189.9760  -50.8170  239.1750 N.3   222  LEU222     -0.1245
     96  CA       189.9210  -50.1660  237.8710 C.3   222  LEU222      0.1561
     97  C        191.1420  -49.2960  237.5540 C.2   222  LEU222      0.2260
     98  O        191.5200  -48.4230  238.3340 O.2   222  LEU222     -0.2867
     99  CB       188.6480  -49.3190  237.8000 C.3   222  LEU222      0.0270
    100  CG       187.3280  -50.1000  237.8940 C.3   222  LEU222      0.0019
    101  CD1      186.1380  -49.1560  237.8850 C.3   222  LEU222      0.0001
    102  CD2      187.2000  -51.1020  236.7540 C.3   222  LEU222      0.0001
    103  N        190.9790  -47.6770  234.7230 N.3   224  SER224     -0.1217
    104  CA       190.2310  -46.5930  234.1010 C.3   224  SER224      0.1889
    105  C        189.9480  -45.4660  235.1080 C.2   224  SER224      0.2288
    106  O        190.0960  -45.6500  236.3200 O.2   224  SER224     -0.2866
    107  CB       188.9260  -47.1340  233.5220 C.3   224  SER224      0.2089
    108  OG       188.1970  -47.8320  234.5190 O.3   224  SER224     -0.2183
@<TRIPOS>BOND
     1    90    89    2
     2    64    63    2
     3    89    88    1
     4    63    62    1
     5    87    88    1
     6    88    91    1
     7    78    79    1
     8    62    65    1
     9    62    61    1
    10    81    80    2
    11    80    79    1
    12    65    66    1
    13    65    67    1
    14    79    82    1
    15    91    92    1
    16    92    94    1
    17    92    93    1
    18    82    83    1
    19    83    84    1
    20    71    70    2
    21    50    49    2
    22    49    48    1
    23    84    85   ar
    24    84    86   ar
    25    55    53   ar
    26    55    56   ar
    27    53    52   ar
    28    74    76   ar
    29    74    73   ar
    30    70    69    1
    31    68    69    1
    32    72    69    1
    33    72    73    1
    34    48    51    1
    35    48    47    1
    36    13    14    1
    37    76    77   ar
    38    56    58   ar
    39    56    54   ar
    40    52    51    1
    41    52    54   ar
    42    73    75   ar
    43    58    60   ar
    44    14    15    1
    45    54    57   ar
    46    77    75   ar
    47    60    59   ar
    48    15    16    2
    49    15    17   am
    50    57    59   ar
    51    17    18    1
    52   107   104    1
    53   107   108    1
    54   104   103    1
    55   104   105    1
    56    20    19    2
    57    12    11    1
    58    18    19    1
    59    18    21    1
    60    23    21    1
    61   105   106    2
    62    19    24   am
    63    11     9   ar
    64    11    10   ar
    65    22    21    1
    66     9     7   ar
    67    10     8   ar
    68    24    25    1
    69   102   100    1
    70    28    25    1
    71    28    30    1
    72    28    29    1
    73     7     6   ar
    74    25    26    1
    75     8     6   ar
    76     6     5    1
    77    97    96    1
    78    97    98    2
    79    99    96    1
    80    99   100    1
    81    96    95    1
    82   101   100    1
    83    26    31   am
    84    26    27    2
    85    45    46    1
    86    45    42    1
    87    31    32    1
    88     5     2    1
    89    44    43    2
    90    43    42    1
    91    42    41    1
    92     2     3    1
    93     2     1    1
    94    35    32    1
    95    32    33    1
    96     4     3    2
    97    40    37    1
    98    36    33   am
    99    36    37    1
   100    33    34    2
   101    37    38    1
   102    38    39    2
