@<TRIPOS>MOLECULE
tmp/5vmpD00.pdb
 204 194 0 0 0
SMALL
GASTEIGER

@<TRIPOS>ATOM
      1  N         -4.6250   88.2900   19.9070 N.3    67  ILE67      -0.1245
      2  CA        -5.9870   88.2240   19.4310 C.3    67  ILE67       0.1561
      3  C         -5.9380   87.6930   18.0030 C.2    67  ILE67       0.2260
      4  O         -5.1690   88.1980   17.1630 O.2    67  ILE67      -0.2867
      5  CB        -6.6970   89.5870   19.5650 C.3    67  ILE67       0.0252
      6  CG1       -5.8390   90.7500   19.0430 C.3    67  ILE67       0.0019
      7  CG2       -7.0660   89.8700   21.0200 C.3    67  ILE67       0.0019
      8  CD1       -6.6010   92.0740   18.9410 C.3    67  ILE67       0.0001
      9  N         -7.7740   87.5220   14.6450 N.3    69  GLN69      -0.1245
     10  CA        -8.6470   88.5630   14.1340 C.3    69  GLN69       0.1566
     11  C         -9.5740   88.0440   13.0490 C.2    69  GLN69       0.2260
     12  O         -9.2140   87.9600   11.8930 O.2    69  GLN69      -0.2867
     13  CB        -7.8040   89.7060   13.6010 C.3    69  GLN69       0.0367
     14  CG        -7.1510   90.5080   14.7060 C.3    69  GLN69       0.0905
     15  CD        -6.8450   91.9250   14.2960 C.2    69  GLN69       0.2608
     16  OE1       -6.0840   92.1430   13.3480 O.2    69  GLN69      -0.2717
     17  NE2       -7.4160   92.8980   15.0200 N.am   69  GLN69      -0.0878
     18  N        -15.0840   92.9630   12.6470 N.3    80  GLN80      -0.1245
     19  CA       -13.9090   92.2640   13.1110 C.3    80  GLN80       0.1566
     20  C        -14.1520   91.7620   14.5220 C.2    80  GLN80       0.2260
     21  O        -14.4290   92.5570   15.4030 O.2    80  GLN80      -0.2867
     22  CB       -12.7400   93.2080   13.1040 C.3    80  GLN80       0.0367
     23  CG       -11.4730   92.6180   13.6920 C.3    80  GLN80       0.0905
     24  CD       -10.2700   93.5290   13.5160 C.2    80  GLN80       0.2608
     25  OE1       -9.4530   93.3240   12.6280 O.2    80  GLN80      -0.2717
     26  NE2      -10.1500   94.5140   14.3780 N.am   80  GLN80      -0.0878
     27  N        -12.3800   89.6250   17.6920 N.3    82  ASN82      -0.1240
     28  CA       -11.0590   89.3050   18.1910 C.3    82  ASN82       0.1653
     29  C        -11.2090   88.0910   19.1080 C.2    82  ASN82       0.2266
     30  O        -12.0830   88.0720   19.9580 O.2    82  ASN82      -0.2867
     31  CB       -10.4800   90.5600   18.8500 C.3    82  ASN82       0.1155
     32  CG       -10.2980   91.7050   17.8420 C.2    82  ASN82       0.2627
     33  OD1       -9.5460   91.6070   16.8590 O.2    82  ASN82      -0.2716
     34  ND2      -10.9850   92.8000   18.0900 N.am   82  ASN82      -0.0877
     35  N         -2.6640   89.1230   16.1500 N.3   128  TYR128     -0.1241
     36  CA        -2.1880   90.4700   16.4790 C.3   128  TYR128      0.1605
     37  C         -1.7780   90.4590   17.9560 C.2   128  TYR128      0.2264
     38  O         -2.6070   90.1710   18.8250 O.2   128  TYR128     -0.2867
     39  CB        -3.3020   91.5410   16.2390 C.3   128  TYR128      0.0534
     40  CG        -2.8640   93.0100   16.0160 C.ar  128  TYR128     -0.0201
     41  CD1       -1.5320   93.4150   16.1460 C.ar  128  TYR128     -0.0009
     42  CD2       -3.7920   93.9930   15.6970 C.ar  128  TYR128     -0.0009
     43  CE1       -1.1440   94.7230   15.9210 C.ar  128  TYR128      0.0417
     44  CE2       -3.4030   95.3080   15.4730 C.ar  128  TYR128      0.0417
     45  CZ        -2.0810   95.6740   15.5990 C.ar  128  TYR128      0.1957
     46  OH        -1.6420   96.9830   15.3680 O.3   128  TYR128     -0.2866
     47  N         -1.7240   92.5580   20.2760 N.3   130  ALA130     -0.1231
     48  CA        -2.2240   93.9010   20.5060 C.3   130  ALA130      0.1694
     49  C         -2.3600   94.1950   22.0080 C.2   130  ALA130      0.2592
     50  O         -2.5560   93.2750   22.7860 O.2   130  ALA130     -0.2718
     51  CB        -3.5690   94.0600   19.8290 C.3   130  ALA130      0.0304
     52  N         -2.2150   95.4730   22.3740 N.am  131  ASP131     -0.1974
     53  CA        -2.5630   96.0230   23.6990 C.3   131  ASP131      0.1709
     54  C         -1.7460   95.4310   24.8120 C.2   131  ASP131      0.2293
     55  O         -2.2720   95.0880   25.8410 O.2   131  ASP131     -0.2864
     56  CB        -4.0720   95.9190   23.9990 C.3   131  ASP131      0.1436
     57  CG        -4.8990   96.7760   23.0600 C.2   131  ASP131      0.3671
     58  OD1       -4.5320   97.9470   22.8150 O.co2 131  ASP131     -0.2456
     59  OD2       -5.9100   96.2770   22.5420 O.co2 131  ASP131     -0.2456
     60  N          2.0720   97.0570   20.1860 N.3   168  TYR168     -0.1241
     61  CA         1.3050   96.3770   19.1820 C.3   168  TYR168      0.1605
     62  C          2.2890   95.6470   18.2460 C.2   168  TYR168      0.2264
     63  O          2.9690   96.2640   17.4050 O.2   168  TYR168     -0.2867
     64  CB         0.4220   97.3900   18.4120 C.3   168  TYR168      0.0534
     65  CG        -0.6490   98.0130   19.2700 C.ar  168  TYR168     -0.0201
     66  CD1       -1.8930   97.4200   19.4030 C.ar  168  TYR168     -0.0009
     67  CD2       -0.4130   99.1940   19.9570 C.ar  168  TYR168     -0.0009
     68  CE1       -2.8770   97.9850   20.2020 C.ar  168  TYR168      0.0417
     69  CE2       -1.3870   99.7630   20.7540 C.ar  168  TYR168      0.0417
     70  CZ        -2.6090   99.1480   20.8790 C.ar  168  TYR168      0.1957
     71  OH        -3.5600   99.7130   21.6940 O.3   168  TYR168     -0.2866
     72  N         -5.5680   94.2670   11.7080 N.3   175  SER175     -0.1202
     73  CA        -6.2560   95.5610   11.4720 C.3   175  SER175      0.2020
     74  C         -6.7090   96.2480   12.7260 C.2   175  SER175      0.2619
     75  O         -7.0360   95.5760   13.7370 O.2   175  SER175     -0.2717
     76  CB        -7.5100   95.3540   10.6020 C.3   175  SER175      0.2103
     77  OG        -7.2660   94.3900    9.6020 O.3   175  SER175     -0.2182
     78  N         -6.8350   97.5720   12.6070 N.am  176  PHE176     -0.1961
     79  CA        -7.6380   98.3730   13.5580 C.3   176  PHE176      0.1771
     80  C         -8.8010   99.0060   12.8190 C.2   176  PHE176      0.2619
     81  O         -8.6230   99.6420   11.7630 O.2   176  PHE176     -0.2715
     82  CB        -6.8390   99.4370   14.3210 C.3   176  PHE176      0.0574
     83  CG        -5.9660  100.2970   13.4680 C.ar  176  PHE176     -0.0200
     84  CD1       -4.8170   99.7880   12.8990 C.ar  176  PHE176     -0.0042
     85  CD2       -6.2700  101.6310   13.2660 C.ar  176  PHE176     -0.0042
     86  CE1       -3.9920  100.5860   12.1070 C.ar  176  PHE176     -0.0003
     87  CE2       -5.4530  102.4470   12.4970 C.ar  176  PHE176     -0.0003
     88  CZ        -4.3050  101.9210   11.9180 C.ar  176  PHE176     -0.0000
     89  N         -9.9860   98.8130   13.3910 N.am  177  ALA177     -0.1977
     90  CA       -11.2400   99.2770   12.8350 C.3   177  ALA177      0.1597
     91  C        -11.3790  100.7740   12.9610 C.2   177  ALA177      0.2287
     92  O        -10.5960  101.4090   13.6670 O.2   177  ALA177     -0.2864
     93  CB       -12.3730   98.6100   13.5910 C.3   177  ALA177      0.0319
     94  N        -12.4080  104.2270   14.2900 N.3   179  HIS179     -0.1241
     95  CA       -12.7050  104.8250   15.5900 C.3   179  HIS179      0.1621
     96  C        -12.0800  106.1680   15.7400 C.2   179  HIS179      0.2264
     97  O        -11.1370  106.4870   15.0140 O.2   179  HIS179     -0.2867
     98  CB       -12.1940  103.9500   16.7580 C.3   179  HIS179      0.0745
     99  CG       -10.7050  103.7830   16.7940 C.ar  179  HIS179      0.0817
    100  ND1      -10.0180  103.1080   15.8120 N.ar  179  HIS179     -0.2268
    101  CD2       -9.7730  104.1950   17.6930 C.ar  179  HIS179      0.1154
    102  CE1       -8.7290  103.1180   16.1040 C.ar  179  HIS179      0.1986
    103  NE2       -8.5540  103.7740   17.2330 N.ar  179  HIS179     -0.2212
    104  N        -10.4840  108.1110   19.3300 N.3   181  GLU181     -0.1245
    105  CA       -10.0020  107.6280   20.6400 C.3   181  GLU181      0.1567
    106  C        -11.0890  107.7150   21.7240 C.2   181  GLU181      0.2260
    107  O        -12.0710  108.4450   21.5790 O.2   181  GLU181     -0.2867
    108  CB        -8.7450  108.3650   21.0620 C.3   181  GLU181      0.0388
    109  CG        -7.5930  108.2800   20.0430 C.3   181  GLU181      0.1160
    110  CD        -7.1660  106.8510   19.7240 C.2   181  GLU181      0.3649
    111  OE1       -6.9530  106.0980   20.6910 O.co2 181  GLU181     -0.2457
    112  OE2       -7.0450  106.4740   18.5350 O.co2 181  GLU181     -0.2457
    113  N          1.5260  107.3120   18.1740 N.3   189  ASN189     -0.1240
    114  CA         1.8160  105.9300   17.7460 C.3   189  ASN189      0.1653
    115  C          3.1770  106.0020   17.0790 C.2   189  ASN189      0.2266
    116  O          3.3170  106.6650   16.0440 O.2   189  ASN189     -0.2867
    117  CB         0.7540  105.4080   16.7350 C.3   189  ASN189      0.1155
    118  CG         1.0930  104.0140   16.1260 C.2   189  ASN189      0.2627
    119  OD1        2.0370  103.8530   15.3170 O.2   189  ASN189     -0.2716
    120  ND2        0.2650  103.0250   16.4490 N.am  189  ASN189     -0.0877
    121  N          2.9070  100.3170    8.6280 N.3   197  LYS197     -0.1245
    122  CA         1.5060  100.3710    9.0330 C.3   197  LYS197      0.1561
    123  C          0.7960  101.3900    8.1510 C.2   197  LYS197      0.2260
    124  O          1.2450  102.5340    8.0830 O.2   197  LYS197     -0.2867
    125  CB         1.3990  100.8260   10.4890 C.3   197  LYS197      0.0271
    126  CG        -0.0160  100.7810   11.0240 C.3   197  LYS197      0.0035
    127  CD        -0.1720  101.3800   12.4290 C.3   197  LYS197      0.0206
    128  CE         0.6550  100.7470   13.5300 C.3   197  LYS197      0.1093
    129  NZ         0.2950   99.3450   13.8410 N.3   197  LYS197     -0.1314
    130  N         -2.6640  103.6160    7.0440 N.3   199  TRP199     -0.1241
    131  CA        -3.7300  104.3080    7.7520 C.3   199  TRP199      0.1605
    132  C         -4.6760  104.9580    6.7860 C.2   199  TRP199      0.2264
    133  O         -4.2550  105.3770    5.6910 O.2   199  TRP199     -0.2867
    134  CB        -3.1670  105.4200    8.6320 C.3   199  TRP199      0.0550
    135  CG        -2.2230  105.0230    9.7050 C.ar  199  TRP199      0.0003
    136  CD1       -0.9860  104.4940    9.5540 C.ar  199  TRP199      0.0946
    137  CD2       -2.4090  105.2150   11.1140 C.ar  199  TRP199      0.0152
    138  NE1       -0.3890  104.3250   10.7840 N.ar  199  TRP199     -0.2442
    139  CE2       -1.2570  104.7540   11.7540 C.ar  199  TRP199      0.0810
    140  CE3       -3.4320  105.7600   11.8840 C.ar  199  TRP199      0.0012
    141  CZ2       -1.1050  104.8080   13.1440 C.ar  199  TRP199      0.0191
    142  CZ3       -3.2910  105.7940   13.2510 C.ar  199  TRP199      0.0001
    143  CH2       -2.1420  105.3230   13.8760 C.ar  199  TRP199      0.0015
    144  N        -17.0660  100.4180   19.8590 N.3   231  HIS231     -0.1226
    145  CA       -16.7600   99.0140   20.0370 C.3   231  HIS231      0.1752
    146  C        -15.5310   98.6130   19.2210 C.2   231  HIS231      0.2596
    147  O        -14.9340   97.5940   19.5010 O.2   231  HIS231     -0.2718
    148  CB       -17.9300   98.1420   19.6620 C.3   231  HIS231      0.0759
    149  CG       -19.2160   98.5100   20.3470 C.ar  231  HIS231      0.0818
    150  ND1      -20.4530   98.1090   19.8710 N.ar  231  HIS231     -0.2268
    151  CD2      -19.4620   99.2720   21.4450 C.ar  231  HIS231      0.1154
    152  CE1      -21.3970   98.5970   20.6530 C.ar  231  HIS231      0.1986
    153  NE2      -20.8260   99.3040   21.6140 N.ar  231  HIS231     -0.2212
    154  N        -15.1650   99.4070   18.2230 N.am  232  LYS232     -0.1966
    155  CA       -13.9070   99.2540   17.4790 C.3   232  LYS232      0.1728
    156  C        -13.8630   97.9660   16.6980 C.2   232  LYS232      0.2616
    157  O        -12.8330   97.2700   16.6690 O.2   232  LYS232     -0.2715
    158  CB       -12.6760   99.3740   18.3870 C.3   232  LYS232      0.0311
    159  CG       -12.6050  100.6550   19.1870 C.3   232  LYS232      0.0038
    160  CD       -11.2670  100.7470   19.8890 C.3   232  LYS232      0.0206
    161  CE       -10.8600  102.1590   20.2240 C.3   232  LYS232      0.1093
    162  NZ       -11.3050  102.4840   21.5970 N.3   232  LYS232     -0.1314
    163  N        -14.9980   97.6330   16.0950 N.am  233  MET233     -0.1977
    164  CA       -15.1350   96.3970   15.3140 C.3   233  MET233      0.1605
    165  C        -15.5580   96.6530   13.8530 C.2   233  MET233      0.2287
    166  O        -15.6540   95.7130   13.0890 O.2   233  MET233     -0.2864
    167  CB       -16.1500   95.4470   15.9870 C.3   233  MET233      0.0413
    168  CG       -15.7300   94.7910   17.2990 C.3   233  MET233      0.0598
    169  SD       -17.1760   94.2300   18.2510 S.3   233  MET233     -0.1393
    170  CE       -17.7040   92.7640   17.3860 C.3   233  MET233      0.0692
    171  N         -2.9330  111.1940   16.1660 N.3   261  THR261     -0.1218
    172  CA        -4.3670  111.3320   15.8520 C.3   261  THR261      0.1862
    173  C         -4.8910  112.4400   16.7500 C.2   261  THR261      0.2287
    174  O         -4.4610  112.5540   17.9060 O.2   261  THR261     -0.2866
    175  CB        -5.1810  110.0290   15.9790 C.3   261  THR261      0.1770
    176  OG1       -5.6210  109.8590   17.3050 O.3   261  THR261     -0.2211
    177  CG2       -4.3860  108.7650   15.5300 C.3   261  THR261      0.0375
    178  N        -10.0480  107.0130   12.3040 N.3   267  HIS267     -0.1241
    179  CA        -8.9490  106.3950   11.6050 C.3   267  HIS267      0.1621
    180  C         -9.0740  104.9060   11.6770 C.2   267  HIS267      0.2264
    181  O         -9.7950  104.3810   12.5210 O.2   267  HIS267     -0.2867
    182  CB        -7.5960  106.8520   12.1550 C.3   267  HIS267      0.0745
    183  CG        -7.4430  106.6500   13.6260 C.ar  267  HIS267      0.0817
    184  ND1       -7.9220  107.5570   14.5440 N.ar  267  HIS267     -0.2268
    185  CD2       -6.8860  105.6420   14.3410 C.ar  267  HIS267      0.1154
    186  CE1       -7.6700  107.1160   15.7570 C.ar  267  HIS267      0.1986
    187  NE2       -7.0460  105.9530   15.6650 N.ar  267  HIS267     -0.2212
    188  N          2.0060  103.1060   21.5690 N.3   279  SER279     -0.1217
    189  CA         1.0640  104.2380   21.6770 C.3   279  SER279      0.1889
    190  C          0.5060  104.4790   23.0750 C.2   279  SER279      0.2288
    191  O          0.6250  103.6400   23.9930 O.2   279  SER279     -0.2866
    192  CB        -0.1030  104.0760   20.7030 C.3   279  SER279      0.2089
    193  OG        -0.8810  103.0250   21.1790 O.3   279  SER279     -0.2183
    194  N        -22.5110   98.9300   27.2210 N.3   300  ARG300     -0.1245
    195  CA       -21.6610   98.1900   28.1440 C.3   300  ARG300      0.1563
    196  C        -21.5090   99.0690   29.3630 C.2   300  ARG300      0.2260
    197  O        -21.7620   98.6400   30.4650 O.2   300  ARG300     -0.2867
    198  CB       -20.2860   97.9110   27.5010 C.3   300  ARG300      0.0307
    199  CG       -20.3660   96.9750   26.2980 C.3   300  ARG300      0.0489
    200  CD       -19.1230   96.9510   25.4180 C.3   300  ARG300      0.2205
    201  NE       -19.2540   95.9260   24.3630 N.pl3 300  ARG300     -0.0865
    202  CZ       -18.3720   95.6890   23.3790 C.cat 300  ARG300      0.5346
    203  NH1      -17.2500   96.4080   23.2670 N.pl3 300  ARG300      0.1354
    204  NH2      -18.6130   94.7220   22.4850 N.pl3 300  ARG300      0.1354
@<TRIPOS>BOND
     1   133   132    2
     2   132   131    1
     3   130   131    1
     4   131   134    1
     5   124   123    2
     6   123   122    1
     7   121   122    1
     8   134   135    1
     9   122   125    1
    10   136   135   ar
    11   136   138   ar
    12    77    76    1
    13   135   137   ar
    14   125   126    1
    15    76    73    1
    16   138   139   ar
    17   126   127    1
    18   137   139   ar
    19   137   140   ar
    20    73    72    1
    21    73    74    1
    22   179   180    1
    23   179   182    1
    24   179   178    1
    25   180   181    2
    26   139   141   ar
    27    81    80    2
    28   140   142   ar
    29    12    11    2
    30    88    86   ar
    31    88    87   ar
    32    86    84   ar
    33   182   183    1
    34   127   128    1
    35    87    85   ar
    36    78    74   am
    37    78    79    1
    38    25    24    2
    39    18    19    1
    40    74    75    2
    41    80    89   am
    42    80    79    1
    43    90    91    1
    44    90    89    1
    45    90    93    1
    46    84    83   ar
    47    91    92    2
    48    11    10    1
    49   166   165    2
    50    22    19    1
    51    22    23    1
    52    19    20    1
    53   141   143   ar
    54   142   143   ar
    55    85    83   ar
    56    16    15    2
    57    83    82    1
    58    24    23    1
    59    24    26   am
    60   128   129    1
    61    79    82    1
    62    13    10    1
    63    13    14    1
    64   183   185   ar
    65   183   184   ar
    66   165   164    1
    67    10     9    1
    68    94    95    1
    69    15    14    1
    70    15    17   am
    71   185   187   ar
    72    20    21    2
    73   184   186   ar
    74    97    96    2
    75   164   167    1
    76   164   163    1
    77   119   118    2
    78    46    45    1
    79    44    45   ar
    80    44    42   ar
    81   177   175    1
    82    95    96    1
    83    95    98    1
    84    45    43   ar
    85   187   186   ar
    86    42    40   ar
    87   100   102   ar
    88   100    99   ar
    89   172   175    1
    90   172   171    1
    91   172   173    1
    92    43    41   ar
    93   175   176    1
    94   167   168    1
    95    40    41   ar
    96    40    39    1
    97   116   115    2
    98   163   156   am
    99   102   103   ar
   100   118   120   am
   101   118   117    1
   102    35    36    1
   103    39    36    1
   104    36    37    1
   105   157   156    2
   106   156   155    1
   107   117   114    1
   108   173   174    2
   109    98    99    1
   110    99   101   ar
   111    33    32    2
   112   115   114    1
   113     4     3    2
   114   103   101   ar
   115   168   169    1
   116   170   169    1
   117    63    62    2
   118   155   154    1
   119   155   158    1
   120    27    28    1
   121   114   113    1
   122    32    34   am
   123    32    31    1
   124    37    38    2
   125     3     2    1
   126    28    31    1
   127    28    29    1
   128   154   146   am
   129    62    61    1
   130   158   159    1
   131    64    61    1
   132    64    65    1
   133   112   110   ar
   134     8     6    1
   135     6     5    1
   136    29    30    2
   137    61    60    1
   138   159   160    1
   139   146   147    2
   140   146   145    1
   141    65    66   ar
   142    65    67   ar
   143   104   105    1
   144    66    68   ar
   145     2     5    1
   146     2     1    1
   147     5     7    1
   148   148   145    1
   149   148   149    1
   150   110   109    1
   151   110   111   ar
   152    51    48    1
   153   144   145    1
   154   150   149   ar
   155   150   152   ar
   156   160   161    1
   157    67    69   ar
   158   109   108    1
   159    68    70   ar
   160   161   162    1
   161    47    48    1
   162   149   151   ar
   163    48    49    1
   164   105   108    1
   165   105   106    1
   166   152   153   ar
   167   192   193    1
   168   192   189    1
   169    69    70   ar
   170    70    71    1
   171   151   153   ar
   172   188   189    1
   173   107   106    2
   174   189   190    1
   175    49    52   am
   176    49    50    2
   177    52    53    1
   178   204   202    1
   179    59    57   ar
   180    58    57   ar
   181    57    56    1
   182   190   191    2
   183   203   202    1
   184   202   201    2
   185    53    56    1
   186    53    54    1
   187   201   200    1
   188    54    55    2
   189   200   199    1
   190   199   198    1
   191   194   195    1
   192   198   195    1
   193   195   196    1
   194   196   197    2
