@<TRIPOS>MOLECULE
tmp/5vn1C01.pdb
 129 123 0 0 0
SMALL
GASTEIGER

@<TRIPOS>ATOM
      1  N         38.7520   -4.9960   47.9340 N.3    46  CYS46      -0.1235
      2  CA        38.6700   -3.5160   48.0580 C.3    46  CYS46       0.1677
      3  C         39.5830   -3.0560   49.1840 C.2    46  CYS46       0.2270
      4  O         39.8020   -3.8380   50.1420 O.2    46  CYS46      -0.2867
      5  CB        37.2200   -3.1540   48.3770 C.3    46  CYS46       0.0956
      6  SG        36.8630   -1.4200   48.8440 S.3    46  CYS46      -0.0801
      7  N         38.9630   -1.2000   51.5570 N.3    48  SER48      -0.1217
      8  CA        38.2230   -1.3020   52.8240 C.3    48  SER48       0.1889
      9  C         38.3400   -2.6500   53.5180 C.2    48  SER48       0.2288
     10  O         38.3650   -2.7030   54.7510 O.2    48  SER48      -0.2866
     11  CB        36.7770   -0.9560   52.6690 C.3    48  SER48       0.2089
     12  OG        36.6110    0.3690   52.2010 O.3    48  SER48      -0.2183
     13  N         39.9440    0.3260   59.9110 N.3    57  LEU57      -0.1231
     14  CA        38.4980    0.2630   59.8840 C.3    57  LEU57       0.1693
     15  C         38.0890   -0.7690   60.9280 C.2    57  LEU57       0.2592
     16  O         38.3530   -1.9320   60.7890 O.2    57  LEU57      -0.2718
     17  CB        37.9300   -0.0990   58.4830 C.3    57  LEU57       0.0284
     18  CG        36.3920   -0.2500   58.3640 C.3    57  LEU57       0.0019
     19  CD1       35.7590    1.1040   58.6430 C.3    57  LEU57       0.0001
     20  CD2       35.9850   -0.7350   56.9890 C.3    57  LEU57       0.0001
     21  N         37.4440   -0.3310   61.9690 N.am   58  VAL58      -0.1966
     22  CA        37.0970   -1.1900   63.0990 C.3    58  VAL58       0.1727
     23  C         35.7950   -1.9580   62.8870 C.2    58  VAL58       0.2616
     24  O         34.7920   -1.3800   62.5650 O.2    58  VAL58      -0.2715
     25  CB        36.9890   -0.3290   64.3730 C.3    58  VAL58       0.0290
     26  CG1       36.4450   -1.1640   65.5250 C.3    58  VAL58       0.0023
     27  CG2       38.3970    0.1920   64.7270 C.3    58  VAL58       0.0023
     28  N         35.8220   -3.2700   63.1000 N.am   59  THR59      -0.1951
     29  CA        34.6410   -4.1300   63.1080 C.3    59  THR59       0.1897
     30  C         34.9480   -5.3020   64.0550 C.2    59  THR59       0.2313
     31  O         36.0990   -5.6510   64.2030 O.2    59  THR59      -0.2863
     32  CB        34.2660   -4.6260   61.6650 C.3    59  THR59       0.1794
     33  OG1       32.8800   -5.0400   61.6020 O.3    59  THR59      -0.2208
     34  CG2       35.1870   -5.6120   61.1510 C.3    59  THR59       0.0378
     35  N         32.9370   -7.6310   50.8720 N.3    67  HIS67      -0.1241
     36  CA        31.6850   -6.8970   50.6650 C.3    67  HIS67       0.1621
     37  C         31.4000   -6.5660   49.2320 C.2    67  HIS67       0.2264
     38  O         30.3620   -5.8990   48.9840 O.2    67  HIS67      -0.2867
     39  CB        31.6830   -5.5740   51.5070 C.3    67  HIS67       0.0745
     40  CG        32.7820   -4.6640   51.1130 C.ar   67  HIS67       0.0817
     41  ND1       34.1230   -4.8550   51.4560 N.ar   67  HIS67      -0.2268
     42  CD2       32.7470   -3.5770   50.3200 C.ar   67  HIS67       0.1154
     43  CE1       34.8350   -3.9170   50.8500 C.ar   67  HIS67       0.1986
     44  NE2       34.0330   -3.1180   50.1740 N.ar   67  HIS67      -0.2212
     45  N         26.3330   -3.6540   50.8550 N.3    93  PHE93      -0.1241
     46  CA        26.9500   -3.3240   52.1680 C.3    93  PHE93       0.1605
     47  C         26.2850   -2.1730   52.8760 C.2    93  PHE93       0.2264
     48  O         26.4220   -2.0050   54.0870 O.2    93  PHE93      -0.2867
     49  CB        28.4770   -3.1340   52.0220 C.3    93  PHE93       0.0534
     50  CG        28.9090   -1.8460   51.4020 C.ar   93  PHE93      -0.0203
     51  CD1       28.9390   -0.7050   52.1550 C.ar   93  PHE93      -0.0042
     52  CD2       29.3070   -1.8050   50.0430 C.ar   93  PHE93      -0.0042
     53  CE1       29.3730    0.4770   51.6070 C.ar   93  PHE93      -0.0003
     54  CE2       29.7230   -0.6250   49.4930 C.ar   93  PHE93      -0.0003
     55  CZ        29.7490    0.5290   50.2910 C.ar   93  PHE93      -0.0000
     56  N         25.1930   -1.3660   59.2370 N.3   115  ASP115     -0.1225
     57  CA        26.1440   -1.8390   60.2410 C.3   115  ASP115      0.1805
     58  C         27.4870   -1.1530   60.1990 C.2   115  ASP115      0.2597
     59  O         28.4800   -1.7320   60.6260 O.2   115  ASP115     -0.2718
     60  CB        26.3680   -3.3690   60.1480 C.3   115  ASP115      0.1424
     61  CG        26.9860   -3.9630   61.4150 C.2   115  ASP115      0.3668
     62  OD1       26.5790   -3.5610   62.5530 O.co2 115  ASP115     -0.2456
     63  OD2       27.8900   -4.8350   61.3060 O.co2 115  ASP115     -0.2456
     64  N         27.5130    0.0640   59.6950 N.am  116  LEU116     -0.1979
     65  CA        28.7550    0.8140   59.5270 C.3   116  LEU116      0.1596
     66  C         28.9910    1.7720   60.6610 C.2   116  LEU116      0.2287
     67  O         30.1250    1.8680   61.1380 O.2   116  LEU116     -0.2864
     68  CB        28.6830    1.6080   58.2510 C.3   116  LEU116      0.0297
     69  CG        29.0020    0.9670   56.9310 C.3   116  LEU116      0.0022
     70  CD1       27.7850    0.1910   56.4680 C.3   116  LEU116      0.0001
     71  CD2       29.5620    1.9730   55.9260 C.3   116  LEU116      0.0001
     72  N         29.4970   -0.6880   64.4000 N.2   119  PRO119     -0.2584
     73  CA        29.4490   -2.0460   63.8790 C.3   119  PRO119      0.1895
     74  C         29.3050   -3.1080   64.9220 C.2   119  PRO119      0.2359
     75  O         30.0440   -3.1030   65.9390 O.2   119  PRO119     -0.2858
     76  CB        30.7520   -2.1930   63.1150 C.2   119  PRO119      0.0071
     77  CG        31.5560   -0.9950   63.3640 C.2   119  PRO119      0.0180
     78  CD        30.7410    0.0210   64.0490 C.2   119  PRO119      0.0937
     79  N         30.3040   -9.0620   58.3060 N.3   140  PHE140     -0.1227
     80  CA        30.8920   -7.7850   57.9550 C.3   140  PHE140      0.1736
     81  C         29.9360   -7.0020   57.0850 C.2   140  PHE140      0.2595
     82  O         29.6340   -7.4830   55.9820 O.2   140  PHE140     -0.2718
     83  CB        32.1890   -8.0040   57.2210 C.3   140  PHE140      0.0547
     84  CG        32.8950   -6.7490   56.8480 C.ar  140  PHE140     -0.0202
     85  CD1       33.2510   -5.8070   57.8120 C.ar  140  PHE140     -0.0042
     86  CD2       33.2290   -6.4690   55.5300 C.ar  140  PHE140     -0.0042
     87  CE1       33.8600   -4.6260   57.4700 C.ar  140  PHE140     -0.0003
     88  CE2       33.8700   -5.2890   55.1900 C.ar  140  PHE140     -0.0003
     89  CZ        34.1490   -4.3540   56.1680 C.ar  140  PHE140     -0.0000
     90  N         29.4480   -5.8780   57.5850 N.am  141  LEU141     -0.1980
     91  CA        28.5400   -4.9890   56.8460 C.3   141  LEU141      0.1596
     92  C         27.3280   -5.7270   56.3180 C.2   141  LEU141      0.2287
     93  O         26.7670   -5.3150   55.3050 O.2   141  LEU141     -0.2864
     94  CB        29.2760   -4.2860   55.7120 C.3   141  LEU141      0.0297
     95  CG        30.5410   -3.5110   56.0320 C.3   141  LEU141      0.0022
     96  CD1       31.1870   -2.8700   54.8070 C.3   141  LEU141      0.0001
     97  CD2       30.1910   -2.4860   57.0920 C.3   141  LEU141      0.0001
     98  N         30.6860   -2.3700   45.0310 N.3   174  CYS174     -0.1235
     99  CA        31.3680   -1.3770   45.8170 C.3   174  CYS174      0.1677
    100  C         32.1440   -0.3620   45.0180 C.2   174  CYS174      0.2270
    101  O         31.7130    0.7720   44.8790 O.2   174  CYS174     -0.2867
    102  CB        32.2760   -2.0070   46.8820 C.3   174  CYS174      0.0956
    103  SG        32.9890   -0.6210   47.8880 S.3   174  CYS174     -0.0801
    104  N         38.1970    6.4230   53.3910 N.3   294  VAL294     -0.1245
    105  CA        37.9020    6.1380   54.8020 C.3   294  VAL294      0.1561
    106  C         39.2190    6.2610   55.5760 C.2   294  VAL294      0.2260
    107  O         40.1260    5.5340   55.3310 O.2   294  VAL294     -0.2867
    108  CB        37.3490    4.6900   54.9340 C.3   294  VAL294      0.0252
    109  CG1       37.1220    4.2860   56.3540 C.3   294  VAL294      0.0019
    110  CG2       36.0510    4.6030   54.1660 C.3   294  VAL294      0.0019
    111  N         28.7380    7.6340   51.3370 N.3   318  ILE318     -0.1231
    112  CA        28.9230    6.2100   51.2370 C.3   318  ILE318      0.1692
    113  C         28.3430    5.6620   49.9480 C.2   318  ILE318      0.2592
    114  O         27.2400    6.1090   49.5590 O.2   318  ILE318     -0.2718
    115  CB        28.2480    5.4990   52.4530 C.3   318  ILE318      0.0266
    116  CG1       28.8050    6.0230   53.8170 C.3   318  ILE318      0.0019
    117  CG2       28.3920    3.9720   52.3540 C.3   318  ILE318      0.0020
    118  CD1       30.3150    5.8920   54.0160 C.3   318  ILE318      0.0001
    119  N         29.0190    4.7790   49.2550 N.am  319  PHE319     -0.1976
    120  CA        28.4500    4.0990   48.0870 C.3   319  PHE319      0.1639
    121  C         27.9960    5.0930   47.0190 C.2   319  PHE319      0.2290
    122  O         26.9950    4.8770   46.3210 O.2   319  PHE319     -0.2864
    123  CB        27.3620    3.0920   48.4620 C.3   319  PHE319      0.0560
    124  CG        27.0650    2.0770   47.4080 C.ar  319  PHE319     -0.0200
    125  CD1       28.0200    1.2680   46.8770 C.ar  319  PHE319     -0.0042
    126  CD2       25.7470    1.9110   46.9520 C.ar  319  PHE319     -0.0042
    127  CE1       27.7400    0.3430   45.9420 C.ar  319  PHE319     -0.0003
    128  CE2       25.4670    0.9700   46.0150 C.ar  319  PHE319     -0.0003
    129  CZ        26.4510    0.1580   45.5000 C.ar  319  PHE319     -0.0000
@<TRIPOS>BOND
     1   101   100    2
     2   100    99    1
     3    98    99    1
     4   129   127   ar
     5   129   128   ar
     6    99   102    1
     7   127   125   ar
     8   128   126   ar
     9   122   121    2
    10   125   124   ar
    11   102   103    1
    12   126   124   ar
    13   121   120    1
    14   124   123    1
    15     1     2    1
    16     2     5    1
    17     2     3    1
    18   120   123    1
    19   120   119    1
    20     5     6    1
    21    38    37    2
    22     3     4    2
    23    37    36    1
    24   119   113   am
    25    54    52   ar
    26    54    55   ar
    27   114   113    2
    28   113   112    1
    29    52    50   ar
    30    44    42   ar
    31    44    43   ar
    32    55    53   ar
    33    42    40   ar
    34    36    35    1
    35    36    39    1
    36    43    41   ar
    37    45    46    1
    38    40    41   ar
    39    40    39    1
    40   112   111    1
    41   112   115    1
    42    50    49    1
    43    50    51   ar
    44     7     8    1
    45    53    51   ar
    46    49    46    1
    47    46    47    1
    48    12    11    1
    49   117   115    1
    50   115   116    1
    51    11     8    1
    52     8     9    1
    53    47    48    2
    54   104   105    1
    55     9    10    2
    56   116   118    1
    57   110   108    1
    58   105   108    1
    59   105   106    1
    60    96    95    1
    61   108   109    1
    62    88    86   ar
    63    88    89   ar
    64    93    92    2
    65   107   106    2
    66    86    84   ar
    67    94    95    1
    68    94    91    1
    69    71    69    1
    70    82    81    2
    71    95    97    1
    72    89    87   ar
    73    92    91    1
    74    70    69    1
    75    91    90    1
    76    84    83    1
    77    84    85   ar
    78    69    68    1
    79    20    18    1
    80    81    90   am
    81    81    80    1
    82    83    80    1
    83    87    85   ar
    84    80    79    1
    85    68    65    1
    86    18    17    1
    87    18    19    1
    88    17    14    1
    89    56    57    1
    90    65    64    1
    91    65    66    1
    92    64    58   am
    93    14    13    1
    94    14    15    1
    95    60    57    1
    96    60    61    1
    97    58    57    1
    98    58    59    2
    99    66    67    2
   100    16    15    2
   101    15    21   am
   102    34    32    1
   103    63    61   ar
   104    61    62   ar
   105    33    32    1
   106    32    29    1
   107    21    22    1
   108    24    23    2
   109    23    22    1
   110    23    28   am
   111    22    25    1
   112    28    29    1
   113    29    30    1
   114    76    77    2
   115    76    73    1
   116    77    78    1
   117    73    72    1
   118    73    74    1
   119    78    72    2
   120    30    31    2
   121    25    27    1
   122    25    26    1
   123    74    75    2
