@<TRIPOS>MOLECULE
tmp/5vn2C00.pdb
 212 202 0 0 0
SMALL
GASTEIGER

@<TRIPOS>ATOM
      1  N          4.1210  -12.8400   57.0010 N.3    15  GLY15      -0.1225
      2  CA         4.2910  -11.3980   57.0390 C.3    15  GLY15       0.1811
      3  C          3.0690  -10.6280   56.5890 C.2    15  GLY15       0.2280
      4  O          3.2030   -9.5340   56.0320 O.2    15  GLY15      -0.2866
      5  N          0.7190   -8.9310   58.1730 N.3    17  ARG17      -0.1231
      6  CA         0.1520   -7.8870   59.0210 C.3    17  ARG17       0.1694
      7  C          0.0530   -6.5440   58.3060 C.2    17  ARG17       0.2592
      8  O         -0.7970   -5.7220   58.6600 O.2    17  ARG17      -0.2718
      9  CB         0.9990   -7.7450   60.2930 C.3    17  ARG17       0.0321
     10  CG         0.6380   -6.5830   61.2020 C.3    17  ARG17       0.0489
     11  CD         1.5590   -6.5230   62.4160 C.3    17  ARG17       0.2205
     12  NE         2.9600   -6.3280   62.0430 N.pl3  17  ARG17      -0.0865
     13  CZ         3.5680   -5.1440   62.0120 C.cat  17  ARG17       0.5346
     14  NH1        2.8990   -4.0420   62.3310 N.pl3  17  ARG17       0.1354
     15  NH2        4.8450   -5.0590   61.6620 N.pl3  17  ARG17       0.1354
     16  N          0.9020   -6.2930   57.3140 N.am   18  ARG18      -0.1966
     17  CA         0.9420   -4.9800   56.6860 C.3    18  ARG18       0.1729
     18  C          1.5420   -5.1170   55.2930 C.2    18  ARG18       0.2617
     19  O          1.9100   -6.2100   54.8590 O.2    18  ARG18      -0.2715
     20  CB         1.7470   -3.9970   57.5380 C.3    18  ARG18       0.0348
     21  CG         3.2070   -4.3870   57.6700 C.3    18  ARG18       0.0492
     22  CD         4.0040   -3.4120   58.5230 C.3    18  ARG18       0.2205
     23  NE         5.4260   -3.7000   58.3820 N.pl3  18  ARG18      -0.0865
     24  CZ         6.3730   -3.2900   59.2200 C.cat  18  ARG18       0.5346
     25  NH1        6.0550   -2.5630   60.2850 N.pl3  18  ARG18       0.1354
     26  NH2        7.6430   -3.6190   58.9930 N.pl3  18  ARG18       0.1354
     27  N          1.6300   -3.9860   54.5950 N.am   19  GLY19      -0.1940
     28  CA         2.3780   -3.9210   53.3500 C.3    19  GLY19       0.2014
     29  C          1.8680   -4.8960   52.3130 C.2    19  GLY19       0.2639
     30  O          0.6620   -5.1420   52.1910 O.2    19  GLY19      -0.2714
     31  N          2.8060   -5.4760   51.5580 N.am   20  ILE20      -0.1963
     32  CA         2.4370   -6.3510   50.4500 C.3    20  ILE20       0.1727
     33  C          1.6760   -7.5700   50.9580 C.2    20  ILE20       0.2616
     34  O          0.6970   -8.0050   50.3430 O.2    20  ILE20      -0.2715
     35  CB         3.6910   -6.7580   49.6460 C.3    20  ILE20       0.0290
     36  CG1        4.2610   -5.5570   48.8840 C.3    20  ILE20       0.0022
     37  CG2        3.3730   -7.9050   48.6810 C.3    20  ILE20       0.0023
     38  CD1        5.6030   -5.8320   48.1900 C.3    20  ILE20       0.0001
     39  N          2.1060   -8.1390   52.0860 N.am   21  GLY21      -0.1955
     40  CA         1.4330   -9.3190   52.6030 C.3    21  GLY21       0.1869
     41  C         -0.0320   -9.0680   52.9180 C.2    21  GLY21       0.2309
     42  O         -0.8850   -9.9270   52.6820 O.2    21  GLY21      -0.2863
     43  N          0.5530  -15.0380   59.3750 N.3    38  THR38      -0.1203
     44  CA         1.6490  -15.0520   60.3360 C.3    38  THR38       0.1994
     45  C          2.4010  -13.7310   60.2930 C.2    38  THR38       0.2618
     46  O          2.4550  -13.0550   59.2600 O.2    38  THR38      -0.2717
     47  CB         2.6450  -16.1930   60.0900 C.3    38  THR38       0.1784
     48  OG1        3.5390  -15.8210   59.0380 O.3    38  THR38      -0.2211
     49  CG2        1.9160  -17.4810   59.7330 C.3    38  THR38       0.0376
     50  N          2.9910  -13.3860   61.4300 N.am   39  ASP39      -0.1959
     51  CA         3.8300  -12.2050   61.5610 C.3    39  ASP39       0.1840
     52  C          4.4620  -12.2530   62.9460 C.2    39  ASP39       0.2621
     53  O          4.0750  -13.0590   63.7950 O.2    39  ASP39      -0.2715
     54  CB         3.0450  -10.9040   61.3690 C.3    39  ASP39       0.1450
     55  CG         3.8640   -9.8320   60.6650 C.2    39  ASP39       0.3671
     56  OD1        3.5120   -9.4740   59.5190 O.co2  39  ASP39      -0.2456
     57  OD2        4.8700   -9.3630   61.2440 O.co2  39  ASP39      -0.2456
     58  N          5.4480  -11.3750   63.1610 N.am   40  ARG40      -0.1977
     59  CA         6.1350  -11.3330   64.4480 C.3    40  ARG40       0.1597
     60  C          5.2200  -10.8030   65.5480 C.2    40  ARG40       0.2287
     61  O          5.3030  -11.2530   66.6980 O.2    40  ARG40      -0.2864
     62  CB         7.4070  -10.4850   64.3310 C.3    40  ARG40       0.0334
     63  CG         8.5380  -11.2550   63.6430 C.3    40  ARG40       0.0492
     64  CD         9.6360  -10.3760   63.1900 C.3    40  ARG40       0.2205
     65  NE        10.7470  -11.0560   62.5530 N.pl3  40  ARG40      -0.0865
     66  CZ        10.8110  -11.4490   61.2860 C.cat  40  ARG40       0.5346
     67  NH1        9.7690  -11.3770   60.4600 N.pl3  40  ARG40       0.1354
     68  NH2       11.9640  -11.9240   60.8010 N.pl3  40  ARG40       0.1354
     69  N          4.8330  -15.8930   64.6420 N.3    62  SER62      -0.1202
     70  CA         5.9250  -16.6860   64.1070 C.3    62  SER62       0.2020
     71  C          7.0870  -15.7700   63.7500 C.2    62  SER62       0.2619
     72  O          6.8940  -14.7010   63.1690 O.2    62  SER62      -0.2717
     73  CB         5.4550  -17.4760   62.8710 C.3    62  SER62       0.2103
     74  OG         6.5350  -18.0160   62.1280 O.3    62  SER62      -0.2182
     75  N          8.2870  -16.1870   64.1080 N.am   63  ASP63      -0.1959
     76  CA         9.5020  -15.5750   63.5920 C.3    63  ASP63       0.1840
     77  C          9.9800  -16.4790   62.4690 C.2    63  ASP63       0.2621
     78  O         10.3990  -17.6130   62.7180 O.2    63  ASP63      -0.2715
     79  CB        10.5490  -15.4190   64.6940 C.3    63  ASP63       0.1450
     80  CG        11.8770  -14.9050   64.1740 C.2    63  ASP63       0.3671
     81  OD1       12.0010  -14.5670   62.9670 O.co2  63  ASP63      -0.2456
     82  OD2       12.8120  -14.8600   64.9940 O.co2  63  ASP63      -0.2456
     83  N          9.8780  -15.9840   61.2280 N.am   64  LEU64      -0.1977
     84  CA        10.2920  -16.7580   60.0610 C.3    64  LEU64       0.1596
     85  C         11.7140  -17.3080   60.1970 C.2    64  LEU64       0.2287
     86  O         12.0110  -18.3970   59.6950 O.2    64  LEU64      -0.2864
     87  CB        10.1870  -15.8930   58.8020 C.3    64  LEU64       0.0297
     88  CG        10.4260  -16.6570   57.4970 C.3    64  LEU64       0.0022
     89  CD1        9.4010  -17.7700   57.3730 C.3    64  LEU64       0.0001
     90  CD2       10.3730  -15.7310   56.2830 C.3    64  LEU64       0.0001
     91  N          5.7840  -14.3400   51.8610 N.3    90  ASN90      -0.1225
     92  CA         5.8900  -12.9020   51.7030 C.3    90  ASN90       0.1785
     93  C          6.8300  -12.2440   52.6980 C.2    90  ASN90       0.2597
     94  O          7.4450  -11.2340   52.3640 O.2    90  ASN90      -0.2718
     95  CB         4.5010  -12.2590   51.8210 C.3    90  ASN90       0.1169
     96  CG         4.5610  -10.7560   51.9740 C.2    90  ASN90       0.2627
     97  OD1        4.7110  -10.0260   50.9960 O.2    90  ASN90      -0.2716
     98  ND2        4.4310  -10.2810   53.2160 N.am   90  ASN90      -0.0877
     99  N          6.9530  -12.7800   53.9050 N.am   91  ALA91      -0.1966
    100  CA         7.6970  -12.0830   54.9440 C.3    91  ALA91       0.1728
    101  C          9.1530  -11.9020   54.5220 C.2    91  ALA91       0.2617
    102  O          9.7610  -12.7870   53.9190 O.2    91  ALA91      -0.2715
    103  CB         7.6060  -12.8450   56.2690 C.3    91  ALA91       0.0334
    104  N          9.6990  -10.7340   54.8170 N.am   92  GLY92      -0.1940
    105  CA        11.0800  -10.4550   54.4690 C.3    92  GLY92       0.2014
    106  C         11.4760   -9.1000   55.0050 C.2    92  GLY92       0.2638
    107  O         10.6450   -8.3290   55.4920 O.2    92  GLY92      -0.2714
    108  N         12.7670   -8.8140   54.9020 N.am   93  MET93      -0.1976
    109  CA        13.2870   -7.5480   55.3920 C.3    93  MET93       0.1605
    110  C         14.3190   -7.0130   54.4130 C.2    93  MET93       0.2287
    111  O         14.9510   -7.7750   53.6730 O.2    93  MET93      -0.2864
    112  CB        13.9120   -7.7010   56.7880 C.3    93  MET93       0.0413
    113  CG        14.9980   -8.7600   56.8380 C.3    93  MET93       0.0598
    114  SD        15.6440   -8.9810   58.4960 S.3    93  MET93      -0.1393
    115  CE        16.1120   -7.2880   58.8690 C.3    93  MET93       0.0692
    116  N         16.4010  -14.6290   57.6680 N.3   115  VAL115     -0.1245
    117  CA        14.9810  -14.3540   57.4640 C.3   115  VAL115      0.1561
    118  C         14.5740  -14.6470   56.0220 C.2   115  VAL115      0.2260
    119  O         13.7820  -15.5600   55.7520 O.2   115  VAL115     -0.2867
    120  CB        14.6550  -12.9010   57.8550 C.3   115  VAL115      0.0252
    121  CG1       13.2050  -12.5700   57.4680 C.3   115  VAL115      0.0019
    122  CG2       14.8790  -12.6930   59.3320 C.3   115  VAL115      0.0019
    123  N          7.3520  -14.3710   47.2450 N.3   146  ILE146     -0.1231
    124  CA         7.5990  -12.9700   46.9480 C.3   146  ILE146      0.1692
    125  C          9.1050  -12.7700   47.0700 C.2   146  ILE146      0.2593
    126  O          9.6520  -12.7320   48.1750 O.2   146  ILE146     -0.2718
    127  CB         6.8270  -12.0420   47.8890 C.3   146  ILE146      0.0266
    128  CG1        5.3200  -12.3900   47.9350 C.3   146  ILE146      0.0019
    129  CG2        7.0720  -10.5940   47.5110 C.3   146  ILE146      0.0020
    130  CD1        4.6180  -12.4340   46.5710 C.3   146  ILE146      0.0001
    131  N          9.7860  -12.6700   45.9320 N.am  147  SER147     -0.1938
    132  CA        11.2130  -12.3710   45.9770 C.3   147  SER147      0.2055
    133  C         11.4130  -10.8670   45.8260 C.2   147  SER147      0.2643
    134  O         11.1130  -10.1080   46.7570 O.2   147  SER147     -0.2714
    135  CB        11.9770  -13.1580   44.9060 C.3   147  SER147      0.2130
    136  OG        11.5690  -12.7930   43.5980 O.3   147  SER147     -0.2179
    137  N         11.8790  -10.4270   44.6580 N.am  148  SER148     -0.1949
    138  CA        12.1610   -9.0230   44.3650 C.3   148  SER148      0.1924
    139  C         12.7780   -8.9430   42.9780 C.2   148  SER148      0.2314
    140  O         13.4090   -9.8990   42.5140 O.2   148  SER148     -0.2863
    141  CB        13.1240   -8.3930   45.3800 C.3   148  SER148      0.2116
    142  OG        13.4210   -7.0550   45.0290 O.3   148  SER148     -0.2180
    143  N         21.0300   -8.1370   50.6260 N.3   161  TYR161     -0.1241
    144  CA        19.6280   -8.2570   50.2360 C.3   161  TYR161      0.1605
    145  C         19.4910   -8.9320   48.8750 C.2   161  TYR161      0.2264
    146  O         18.7010   -9.8720   48.7130 O.2   161  TYR161     -0.2867
    147  CB        18.9600   -6.8800   50.2300 C.3   161  TYR161      0.0534
    148  CG        17.4860   -6.8770   49.8740 C.ar  161  TYR161     -0.0201
    149  CD1       16.5160   -7.1380   50.8380 C.ar  161  TYR161     -0.0009
    150  CD2       17.0590   -6.5760   48.5800 C.ar  161  TYR161     -0.0009
    151  CE1       15.1560   -7.1220   50.5190 C.ar  161  TYR161      0.0417
    152  CE2       15.7000   -6.5570   48.2550 C.ar  161  TYR161      0.0417
    153  CZ        14.7540   -6.8280   49.2370 C.ar  161  TYR161      0.1957
    154  OH        13.4020   -6.8040   48.9420 O.3   161  TYR161     -0.2866
    155  N         17.6450  -12.6990   47.8550 N.3   165  LYS165     -0.1245
    156  CA        16.5140  -12.8230   46.9460 C.3   165  LYS165      0.1561
    157  C         16.8610  -13.7100   45.7540 C.2   165  LYS165      0.2260
    158  O         16.0530  -14.5560   45.3610 O.2   165  LYS165     -0.2867
    159  CB        16.0550  -11.4340   46.4940 C.3   165  LYS165      0.0271
    160  CG        15.5100  -10.5690   47.6280 C.3   165  LYS165      0.0035
    161  CD        14.2370  -11.1940   48.2310 C.3   165  LYS165      0.0206
    162  CE        13.4830  -10.2040   49.1170 C.3   165  LYS165      0.1093
    163  NZ        12.1190  -10.6950   49.5410 N.3   165  LYS165     -0.1314
    164  N          8.2990   -8.1330   43.0220 N.3   191  PRO191     -0.2102
    165  CA         7.8300   -6.7480   43.0690 C.3   191  PRO191      0.1504
    166  C          8.9700   -5.7940   42.7680 C.2   191  PRO191      0.2576
    167  O         10.1350   -6.0740   43.0550 O.2   191  PRO191     -0.2718
    168  CB         7.3250   -6.5810   44.5100 C.3   191  PRO191      0.0282
    169  CG         7.1280   -7.9890   45.0240 C.3   191  PRO191      0.0208
    170  CD         8.1910   -8.7960   44.3380 C.3   191  PRO191      0.0893
    171  N          8.6200   -4.6590   42.1750 N.am  192  GLY192     -0.1957
    172  CA         9.5990   -3.6290   41.9080 C.3   192  GLY192      0.1869
    173  C          9.6490   -2.5750   42.9930 C.2   192  GLY192      0.2309
    174  O         10.3120   -2.7630   44.0160 O.2   192  GLY192     -0.2863
    175  N          7.2540   -0.6970   45.4100 N.3   194  ILE194     -0.1245
    176  CA         5.9080   -0.7400   45.9740 C.3   194  ILE194      0.1561
    177  C          5.8550    0.1890   47.1770 C.2   194  ILE194      0.2260
    178  O          6.8140    0.2720   47.9520 O.2   194  ILE194     -0.2867
    179  CB         5.5190   -2.1760   46.3780 C.3   194  ILE194      0.0252
    180  CG1        5.9480   -3.1730   45.2920 C.3   194  ILE194      0.0019
    181  CG2        4.0380   -2.2690   46.6630 C.3   194  ILE194      0.0019
    182  CD1        5.2610   -2.9750   43.9240 C.3   194  ILE194      0.0001
    183  N          5.2380    0.7860   50.5290 N.3   196  THR196     -0.1203
    184  CA         5.0700    0.1750   51.8460 C.3   196  THR196      0.1994
    185  C          6.0700    0.8040   52.8030 C.2   196  THR196      0.2618
    186  O          6.8190    1.7170   52.4450 O.2   196  THR196     -0.2717
    187  CB         5.2880   -1.3460   51.8510 C.3   196  THR196      0.1784
    188  OG1        6.6850   -1.6310   51.6750 O.3   196  THR196     -0.2211
    189  CG2        4.4660   -2.0530   50.7590 C.3   196  THR196      0.0376
    190  N          6.0920    0.2860   54.0330 N.am  197  ASP197     -0.1959
    191  CA         7.0630    0.7530   55.0190 C.3   197  ASP197      0.1840
    192  C          8.4910    0.4270   54.6010 C.2   197  ASP197      0.2622
    193  O          9.4220    1.1510   54.9730 O.2   197  ASP197     -0.2715
    194  CB         6.7630    0.1420   56.3890 C.3   197  ASP197      0.1450
    195  CG         5.4990    0.7060   57.0200 C.2   197  ASP197      0.3671
    196  OD1        4.9410    1.6960   56.4930 O.co2 197  ASP197     -0.2456
    197  OD2        5.0590    0.1530   58.0490 O.co2 197  ASP197     -0.2456
    198  N          8.6900   -0.6440   53.8250 N.am  198  MET198     -0.1963
    199  CA        10.0460   -1.0070   53.4400 C.3   198  MET198      0.1736
    200  C         10.6680    0.0160   52.4940 C.2   198  MET198      0.2617
    201  O         11.9000    0.1000   52.4070 O.2   198  MET198     -0.2715
    202  CB        10.0700   -2.4050   52.8110 C.3   198  MET198      0.0427
    203  CG        11.4870   -2.9130   52.5090 C.3   198  MET198      0.0599
    204  SD        11.5830   -4.6040   51.8940 S.3   198  MET198     -0.1393
    205  CE        10.8360   -5.4860   53.2740 C.3   198  MET198      0.0692
    206  N          9.8510    0.8070   51.8000 N.am  199  THR199     -0.1951
    207  CA        10.3500    1.8390   50.9010 C.3   199  THR199      0.1897
    208  C         10.1140    3.2500   51.4230 C.2   199  THR199      0.2313
    209  O         10.4430    4.2140   50.7230 O.2   199  THR199     -0.2863
    210  CB         9.7130    1.6950   49.5090 C.3   199  THR199      0.1794
    211  OG1        8.2840    1.6930   49.6260 O.3   199  THR199     -0.2208
    212  CG2       10.1770    0.4120   48.8300 C.3   199  THR199      0.0378
@<TRIPOS>BOND
     1   172   171    1
     2   172   173    1
     3   171   166   am
     4   140   139    2
     5   166   167    2
     6   166   165    1
     7   139   138    1
     8   173   174    2
     9   164   165    1
    10   164   170    1
    11   165   168    1
    12   136   135    1
    13   182   180    1
    14   170   169    1
    15   138   137    1
    16   138   141    1
    17   168   169    1
    18   137   133   am
    19   135   132    1
    20   142   141    1
    21   180   179    1
    22   158   157    2
    23   175   176    1
    24   157   156    1
    25   133   132    1
    26   133   134    2
    27   131   132    1
    28   131   125   am
    29   176   179    1
    30   176   177    1
    31   179   181    1
    32   159   156    1
    33   159   160    1
    34   130   128    1
    35   156   155    1
    36   124   125    1
    37   124   123    1
    38   124   127    1
    39   125   126    2
    40   177   178    2
    41   129   127    1
    42   160   161    1
    43   127   128    1
    44    38    36    1
    45   161   162    1
    46   152   150   ar
    47   152   153   ar
    48   150   148   ar
    49    37    35    1
    50   146   145    2
    51   212   210    1
    52   145   144    1
    53    36    35    1
    54   154   153    1
    55   162   163    1
    56   153   151   ar
    57   210   211    1
    58   210   207    1
    59    35    32    1
    60   148   147    1
    61   148   149   ar
    62   147   144    1
    63   144   143    1
    64    34    33    2
    65    32    33    1
    66    32    31    1
    67   151   149   ar
    68   183   184    1
    69   209   208    2
    70   189   187    1
    71   207   208    1
    72   207   206    1
    73    33    39   am
    74    97    96    2
    75    31    29   am
    76   188   187    1
    77    92    95    1
    78    92    91    1
    79    92    93    1
    80   206   200   am
    81    95    96    1
    82   184   187    1
    83   184   185    1
    84   204   203    1
    85   204   205    1
    86    96    98   am
    87    39    40    1
    88    30    29    2
    89    29    28    1
    90    94    93    2
    91   201   200    2
    92   186   185    2
    93   200   199    1
    94   203   202    1
    95    40    41    1
    96    42    41    2
    97    93    99   am
    98   185   190   am
    99   202   199    1
   100    28    27    1
   101   199   198    1
   102   111   110    2
   103   198   192   am
   104    99   100    1
   105   102   101    2
   106   190   191    1
   107   110   109    1
   108   105   104    1
   109   105   106    1
   110   101   104   am
   111   101   100    1
   112    27    18   am
   113   192   193    2
   114   192   191    1
   115    19    18    2
   116   108   106   am
   117   108   109    1
   118   100   103    1
   119   106   107    2
   120   191   194    1
   121    18    17    1
   122   109   112    1
   123   119   118    2
   124   118   117    1
   125     4     3    2
   126    90    88    1
   127   194   195    1
   128   196   195   ar
   129     3     2    1
   130    17    16    1
   131    17    20    1
   132   112   113    1
   133   113   114    1
   134     1     2    1
   135   195   197   ar
   136    16     7   am
   137    89    88    1
   138   117   116    1
   139   117   120    1
   140   121   120    1
   141    88    87    1
   142    20    21    1
   143    21    22    1
   144   120   122    1
   145     5     6    1
   146     7     8    2
   147     7     6    1
   148    23    22    1
   149    23    24    2
   150   114   115    1
   151    87    84    1
   152    26    24    1
   153     6     9    1
   154    48    47    1
   155    24    25    1
   156    46    45    2
   157    43    44    1
   158    56    55   ar
   159    86    85    2
   160    49    47    1
   161    84    85    1
   162    84    83    1
   163    47    44    1
   164    45    44    1
   165    45    50   am
   166     9    10    1
   167    67    66    1
   168    55    57   ar
   169    55    54    1
   170    68    66    1
   171    10    11    1
   172    83    77   am
   173    66    65    2
   174    54    51    1
   175    50    51    1
   176    51    52    1
   177    15    13    1
   178    13    12    2
   179    13    14    1
   180    12    11    1
   181    74    73    1
   182    77    78    2
   183    77    76    1
   184    65    64    1
   185    73    70    1
   186    52    58   am
   187    52    53    2
   188    81    80   ar
   189    58    59    1
   190    72    71    2
   191    64    63    1
   192    76    75    1
   193    76    79    1
   194    63    62    1
   195    71    70    1
   196    71    75   am
   197    70    69    1
   198    80    79    1
   199    80    82   ar
   200    62    59    1
   201    59    60    1
   202    60    61    2
