@<TRIPOS>MOLECULE
tmp/5vn3C07.pdb
 112 109 0 0 0
SMALL
GASTEIGER

@<TRIPOS>ATOM
      1  N        162.5220  143.2590  176.5880 N.3   119  GLU119     -0.1231
      2  CA       161.1930  143.4170  176.0210 C.3   119  GLU119      0.1684
      3  C        161.3130  143.7720  174.5490 C.2   119  GLU119      0.2434
      4  O        162.0710  144.6870  174.2100 O.2   119  GLU119     -0.2733
      5  CB       160.4010  144.5030  176.7440 C.3   119  GLU119      0.0402
      6  CG       159.0400  144.7400  176.1330 C.3   119  GLU119      0.1161
      7  CD       158.2470  145.8080  176.8430 C.2   119  GLU119      0.3649
      8  OE1      158.7500  146.3630  177.8380 O.co2 119  GLU119     -0.2457
      9  OE2      157.1190  146.1000  176.3980 O.co2 119  GLU119     -0.2457
     10  N        160.6020  143.0870  173.6610 N.am  120  PRO120     -0.2729
     11  CA       160.6790  143.4170  172.2380 C.3   120  PRO120      0.1401
     12  C        159.9840  144.7310  171.9280 C.2   120  PRO120      0.2269
     13  O        159.2000  145.2600  172.7160 O.2   120  PRO120     -0.2865
     14  CB       159.9640  142.2460  171.5690 C.3   120  PRO120      0.0296
     15  CG       160.0690  141.1520  172.5340 C.3   120  PRO120      0.0237
     16  CD       159.9600  141.7860  173.8730 C.3   120  PRO120      0.0939
     17  N        157.6960  142.3700  165.5100 N.3   160  ARG160     -0.1245
     18  CA       158.4110  142.2040  166.7620 C.3   160  ARG160      0.1563
     19  C        159.4660  141.1210  166.6070 C.2   160  ARG160      0.2260
     20  O        159.2050  140.0950  165.9770 O.2   160  ARG160     -0.2867
     21  CB       157.4680  141.8700  167.8970 C.3   160  ARG160      0.0307
     22  CG       156.6960  143.0710  168.3630 C.3   160  ARG160      0.0489
     23  CD       155.7850  142.7370  169.5050 C.3   160  ARG160      0.2205
     24  NE       155.1110  143.9270  169.9970 N.pl3 160  ARG160     -0.0865
     25  CZ       153.9630  144.3790  169.5140 C.cat 160  ARG160      0.5346
     26  NH1      153.3640  143.7430  168.5200 N.pl3 160  ARG160      0.1354
     27  NH2      153.4130  145.4700  170.0200 N.pl3 160  ARG160      0.1354
     28  N        160.4680  138.7800  168.4580 N.3   162  VAL162     -0.1245
     29  CA       160.3300  137.6820  169.4130 C.3   162  VAL162      0.1561
     30  C        160.9340  136.3870  168.8810 C.2   162  VAL162      0.2260
     31  O        160.7080  135.9850  167.7350 O.2   162  VAL162     -0.2867
     32  CB       158.8510  137.5240  169.8070 C.3   162  VAL162      0.0252
     33  CG1      157.9640  137.3220  168.5980 C.3   162  VAL162      0.0019
     34  CG2      158.6760  136.3790  170.7720 C.3   162  VAL162      0.0019
     35  N        154.7100  133.7560  169.1380 N.3   169  LEU169     -0.1231
     36  CA       154.1360  134.7100  170.0750 C.3   169  LEU169      0.1693
     37  C        153.7110  135.9890  169.3760 C.2   169  LEU169      0.2592
     38  O        153.3430  135.9360  168.2000 O.2   169  LEU169     -0.2718
     39  CB       155.0970  134.9930  171.2170 C.3   169  LEU169      0.0284
     40  CG       155.3910  133.7320  172.0290 C.3   169  LEU169      0.0019
     41  CD1      156.2130  134.0860  173.2410 C.3   169  LEU169      0.0001
     42  CD2      154.1420  132.9820  172.4300 C.3   169  LEU169      0.0001
     43  N        153.7110  137.1040  170.1250 N.am  170  ASN170     -0.1974
     44  CA       153.2920  138.4540  169.7350 C.3   170  ASN170      0.1688
     45  C        153.4950  138.7900  168.2700 C.2   170  ASN170      0.2292
     46  O        154.5920  138.6160  167.7390 O.2   170  ASN170     -0.2864
     47  CB       154.0960  139.4780  170.5200 C.3   170  ASN170      0.1181
     48  CG       153.7720  139.5040  171.9700 C.2   170  ASN170      0.2629
     49  OD1      152.6190  139.4350  172.3660 O.2   170  ASN170     -0.2716
     50  ND2      154.8020  139.6190  172.7850 N.am  170  ASN170     -0.0877
     51  N        160.6080  130.4950  175.3330 N.3   268  PHE268     -0.1227
     52  CA       160.4990  131.9250  175.1070 C.3   268  PHE268      0.1736
     53  C        161.2860  132.5970  176.2110 C.2   268  PHE268      0.2595
     54  O        161.7620  131.9400  177.1350 O.2   268  PHE268     -0.2718
     55  CB       159.0460  132.3820  175.0510 C.3   268  PHE268      0.0547
     56  CG       158.3250  132.2750  176.3470 C.ar  268  PHE268     -0.0202
     57  CD1      157.7760  131.0780  176.7430 C.ar  268  PHE268     -0.0042
     58  CD2      158.1540  133.3850  177.1470 C.ar  268  PHE268     -0.0042
     59  CE1      157.1000  130.9750  177.9190 C.ar  268  PHE268     -0.0003
     60  CE2      157.4810  133.2880  178.3340 C.ar  268  PHE268     -0.0003
     61  CZ       156.9540  132.0810  178.7230 C.ar  268  PHE268     -0.0000
     62  N        161.4470  133.9110  176.1160 N.am  269  ASN269     -0.1960
     63  CA       162.2530  134.6290  177.0940 C.3   269  ASN269      0.1819
     64  C        161.5070  135.8180  177.6780 C.2   269  ASN269      0.2621
     65  O        160.7380  136.4750  176.9750 O.2   269  ASN269     -0.2715
     66  CB       163.5230  135.1200  176.4260 C.3   269  ASN269      0.1195
     67  CG       164.1710  134.0530  175.5850 C.2   269  ASN269      0.2630
     68  OD1      164.3160  132.9110  175.9960 O.2   269  ASN269     -0.2716
     69  ND2      164.4820  134.4030  174.3540 N.am  269  ASN269     -0.0877
     70  N        161.7540  136.1060  178.9570 N.am  270  CYS270     -0.1968
     71  CA       161.1510  137.2400  179.6670 C.3   270  CYS270      0.1712
     72  C        162.1490  137.7120  180.7170 C.2   270  CYS270      0.2296
     73  O        162.1840  137.1670  181.8200 O.2   270  CYS270     -0.2864
     74  CB       159.8370  136.8850  180.3230 C.3   270  CYS270      0.0983
     75  SG       158.4280  136.5870  179.2870 S.3   270  CYS270     -0.0798
     76  N        156.5010  138.0520  185.0180 N.3   328  ARG328     -0.1231
     77  CA       155.2270  137.9020  184.3250 C.3   328  ARG328      0.1694
     78  C        155.3800  138.1010  182.8240 C.2   328  ARG328      0.2592
     79  O        156.1280  138.9790  182.3890 O.2   328  ARG328     -0.2718
     80  CB       154.2170  138.9060  184.8850 C.3   328  ARG328      0.0321
     81  CG       152.8140  138.7440  184.3630 C.3   328  ARG328      0.0489
     82  CD       151.8620  139.7050  185.0160 C.3   328  ARG328      0.2205
     83  NE       150.5120  139.5200  184.5040 N.pl3 328  ARG328     -0.0865
     84  CZ       149.4670  140.2410  184.8880 C.cat 328  ARG328      0.5346
     85  NH1      149.6190  141.2050  185.7870 N.pl3 328  ARG328      0.1354
     86  NH2      148.2700  140.0040  184.3690 N.pl3 328  ARG328      0.1354
     87  N        154.6630  137.2920  182.0320 N.am  329  CYS329     -0.1956
     88  CA       154.6950  137.3650  180.5660 C.3   329  CYS329      0.1843
     89  C        153.2650  137.3800  180.0260 C.2   329  CYS329      0.2626
     90  O        152.7080  136.3250  179.7140 O.2   329  CYS329     -0.2714
     91  CB       155.4630  136.1900  179.9820 C.3   329  CYS329      0.0997
     92  SG       157.0990  135.9480  180.6720 S.3   329  CYS329     -0.0797
     93  N        152.6670  138.5630  179.8980 N.am  330  SER330     -0.1936
     94  CA       151.3000  138.6790  179.3790 C.3   330  SER330      0.2055
     95  C        151.3700  138.6770  177.8550 C.2   330  SER330      0.2644
     96  O        151.2610  139.7120  177.1980 O.2   330  SER330     -0.2714
     97  CB       150.6330  139.9410  179.9040 C.3   330  SER330      0.2130
     98  OG       150.5400  139.9240  181.3160 O.3   330  SER330     -0.2179
     99  N        151.5480  137.4880  177.2950 N.am  331  SER331     -0.1935
    100  CA       151.7190  137.3140  175.8620 C.3   331  SER331      0.2055
    101  C        150.4110  137.0990  175.1050 C.2   331  SER331      0.2643
    102  O        149.3080  137.3300  175.6030 O.2   331  SER331     -0.2714
    103  CB       152.6730  136.1540  175.6090 C.3   331  SER331      0.2130
    104  OG       152.7970  135.9080  174.2250 O.3   331  SER331     -0.2179
    105  N        150.5750  136.6680  173.8600 N.am  332  ASN332     -0.1971
    106  CA       149.5510  136.3660  172.8770 C.3   332  ASN332      0.1688
    107  C        150.0860  135.1950  172.0850 C.2   332  ASN332      0.2292
    108  O        151.2640  134.8550  172.1890 O.2   332  ASN332     -0.2864
    109  CB       149.3480  137.5110  171.8970 C.3   332  ASN332      0.1181
    110  CG       148.8940  138.7740  172.5430 C.2   332  ASN332      0.2629
    111  OD1      149.7070  139.5080  173.0930 O.2   332  ASN332     -0.2716
    112  ND2      147.6200  139.1100  172.3800 N.am  332  ASN332     -0.0877
@<TRIPOS>BOND
     1    17    18    1
     2    20    19    2
     3    19    18    1
     4    18    21    1
     5    31    30    2
     6    46    45    2
     7    21    22    1
     8    38    37    2
     9    45    44    1
    10    22    23    1
    11    28    29    1
    12    26    25    1
    13    33    32    1
    14    30    29    1
    15    35    36    1
    16    37    36    1
    17    37    43   am
    18    29    32    1
    19    23    24    1
    20    25    24    2
    21    25    27    1
    22    44    43    1
    23    44    47    1
    24    32    34    1
    25    36    39    1
    26    47    48    1
    27    39    40    1
    28    14    11    1
    29    14    15    1
    30   109   110    1
    31   109   106    1
    32    12    11    1
    33    12    13    2
    34    48    49    2
    35    48    50   am
    36    40    42    1
    37    40    41    1
    38   107   108    2
    39   107   106    1
    40    11    10    1
    41   112   110   am
    42    15    16    1
    43   110   111    2
    44   106   105    1
    45    10    16    1
    46    10     3   am
    47   105   101   am
    48     4     3    2
    49   104   103    1
    50    69    67   am
    51     3     2    1
    52    55    52    1
    53    55    56    1
    54   101   102    2
    55   101   100    1
    56    52    51    1
    57    52    53    1
    58    67    68    2
    59    67    66    1
    60   103   100    1
    61   100    99    1
    62     2     1    1
    63     2     5    1
    64    62    53   am
    65    62    63    1
    66     6     5    1
    67     6     7    1
    68    53    54    2
    69    56    57   ar
    70    56    58   ar
    71     9     7   ar
    72    66    63    1
    73    57    59   ar
    74     7     8   ar
    75    65    64    2
    76    63    64    1
    77    58    60   ar
    78    96    95    2
    79    99    95   am
    80    64    70   am
    81    95    94    1
    82    59    61   ar
    83    60    61   ar
    84    70    71    1
    85    75    74    1
    86    75    92    1
    87    94    93    1
    88    94    97    1
    89    71    74    1
    90    71    72    1
    91    90    89    2
    92    93    89   am
    93    97    98    1
    94    91    88    1
    95    91    92    1
    96    89    88    1
    97    88    87    1
    98    72    73    2
    99    87    78   am
   100    79    78    2
   101    78    77    1
   102    77    80    1
   103    77    76    1
   104    81    80    1
   105    81    82    1
   106    86    84    1
   107    83    84    2
   108    83    82    1
   109    84    85    1
