@<TRIPOS>MOLECULE
tmp/5vn3C12.pdb
 81 76 0 0 0
SMALL
GASTEIGER

@<TRIPOS>ATOM
      1  N        145.3710  134.0440  174.1290 N.3   201  GLU201     -0.1231
      2  CA       146.2440  134.5880  175.1530 C.3   201  GLU201      0.1699
      3  C        146.9220  133.5080  175.9770 C.2   201  GLU201      0.2592
      4  O        146.5740  132.3290  175.9250 O.2   201  GLU201     -0.2718
      5  CB       145.4670  135.5430  176.0430 C.3   201  GLU201      0.0402
      6  CG       145.0820  136.7770  175.2840 C.3   201  GLU201      0.1161
      7  CD       144.2950  137.7390  176.1140 C.2   201  GLU201      0.3649
      8  OE1      143.9320  137.3670  177.2420 O.co2 201  GLU201     -0.2457
      9  OE2      144.0420  138.8670  175.6450 O.co2 201  GLU201     -0.2457
     10  N        147.9220  133.9470  176.7370 N.am  202  ILE202     -0.1966
     11  CA       148.7240  133.0960  177.6060 C.3   202  ILE202      0.1727
     12  C        149.3880  133.9810  178.6550 C.2   202  ILE202      0.2616
     13  O        149.8950  135.0610  178.3470 O.2   202  ILE202     -0.2715
     14  CB       149.7450  132.2730  176.7850 C.3   202  ILE202      0.0290
     15  CG1      150.6500  131.4370  177.6840 C.3   202  ILE202      0.0022
     16  CG2      150.5270  133.1350  175.8260 C.3   202  ILE202      0.0023
     17  CD1      151.4680  130.4380  176.9250 C.3   202  ILE202      0.0001
     18  N        149.3640  133.5310  179.9030 N.am  203  ASN203     -0.1972
     19  CA       149.9590  134.2600  181.0120 C.3   203  ASN203      0.1688
     20  C        150.9070  133.3080  181.7130 C.2   203  ASN203      0.2292
     21  O        150.5120  132.1930  182.0600 O.2   203  ASN203     -0.2864
     22  CB       148.8870  134.7710  181.9730 C.3   203  ASN203      0.1181
     23  CG       147.9650  135.7760  181.3250 C.2   203  ASN203      0.2629
     24  OD1      148.4080  136.6360  180.5710 O.2   203  ASN203     -0.2716
     25  ND2      146.6750  135.6730  181.6090 N.am  203  ASN203     -0.0877
     26  N        149.1360  129.4390  181.8160 N.3   225  ASN225     -0.1225
     27  CA       147.7300  129.0750  181.7060 C.3   225  ASN225      0.1785
     28  C        147.1720  129.4870  180.3550 C.2   225  ASN225      0.2597
     29  O        147.4540  130.5850  179.8710 O.2   225  ASN225     -0.2718
     30  CB       146.8920  129.7090  182.8110 C.3   225  ASN225      0.1169
     31  CG       147.1060  129.0540  184.1500 C.2   225  ASN225      0.2627
     32  OD1      147.4390  127.8680  184.2280 O.2   225  ASN225     -0.2716
     33  ND2      146.8750  129.8120  185.2180 N.am  225  ASN225     -0.0877
     34  N        146.3700  128.6060  179.7620 N.am  226  ILE226     -0.1966
     35  CA       145.7460  128.8220  178.4630 C.3   226  ILE226      0.1727
     36  C        144.2460  128.6260  178.6280 C.2   226  ILE226      0.2616
     37  O        143.8110  127.6310  179.2200 O.2   226  ILE226     -0.2715
     38  CB       146.3030  127.8600  177.3950 C.3   226  ILE226      0.0290
     39  CG1      147.7940  128.0800  177.1540 C.3   226  ILE226      0.0022
     40  CG2      145.5890  128.0260  176.0730 C.3   226  ILE226      0.0023
     41  CD1      148.6930  127.1380  177.9000 C.3   226  ILE226      0.0001
     42  N        143.4590  129.5690  178.1050 N.am  227  SER227     -0.1950
     43  CA       142.0010  129.5020  178.1820 C.3   227  SER227      0.1924
     44  C        141.4940  128.3660  177.3070 C.2   227  SER227      0.2314
     45  O        141.3880  128.5160  176.0890 O.2   227  SER227     -0.2863
     46  CB       141.3930  130.8270  177.7430 C.3   227  SER227      0.2116
     47  OG       139.9820  130.7330  177.6940 O.3   227  SER227     -0.2180
     48  N        139.9470  125.1080  181.5310 N.3   296  GLN296     -0.1231
     49  CA       139.8650  126.5550  181.6770 C.3   296  GLN296      0.1698
     50  C        141.2590  127.1210  181.8820 C.2   296  GLN296      0.2592
     51  O        141.6810  128.0510  181.2040 O.2   296  GLN296     -0.2718
     52  CB       138.9790  126.9420  182.8650 C.3   296  GLN296      0.0381
     53  CG       137.5310  126.5120  182.7770 C.3   296  GLN296      0.0905
     54  CD       137.3200  125.0880  183.2500 C.2   296  GLN296      0.2608
     55  OE1      138.1940  124.4980  183.8860 O.2   296  GLN296     -0.2717
     56  NE2      136.1560  124.5290  182.9450 N.am  296  GLN296     -0.0878
     57  N        141.9610  126.5320  182.8430 N.am  297  ASN297     -0.1974
     58  CA       143.3130  126.9140  183.2260 C.3   297  ASN297      0.1688
     59  C        144.2150  125.7100  182.9920 C.2   297  ASN297      0.2292
     60  O        144.4190  124.9020  183.9000 O.2   297  ASN297     -0.2864
     61  CB       143.3410  127.3130  184.6910 C.3   297  ASN297      0.1181
     62  CG       142.4830  128.5020  184.9880 C.2   297  ASN297      0.2629
     63  OD1      141.2940  128.3470  185.2510 O.2   297  ASN297     -0.2716
     64  ND2      143.0890  129.6870  185.0380 N.am  297  ASN297     -0.0877
     65  N        156.5010  138.0520  185.0180 N.3   328  ARG328     -0.1245
     66  CA       155.2270  137.9020  184.3250 C.3   328  ARG328      0.1563
     67  C        155.3800  138.1010  182.8240 C.2   328  ARG328      0.2260
     68  O        156.1280  138.9790  182.3890 O.2   328  ARG328     -0.2867
     69  CB       154.2170  138.9060  184.8850 C.3   328  ARG328      0.0307
     70  CG       152.8140  138.7440  184.3630 C.3   328  ARG328      0.0489
     71  CD       151.8620  139.7050  185.0160 C.3   328  ARG328      0.2205
     72  NE       150.5120  139.5200  184.5040 N.pl3 328  ARG328     -0.0865
     73  CZ       149.4670  140.2410  184.8880 C.cat 328  ARG328      0.5346
     74  NH1      149.6190  141.2050  185.7870 N.pl3 328  ARG328      0.1354
     75  NH2      148.2700  140.0040  184.3690 N.pl3 328  ARG328      0.1354
     76  N        152.6670  138.5630  179.8980 N.3   330  SER330     -0.1217
     77  CA       151.3000  138.6790  179.3790 C.3   330  SER330      0.1889
     78  C        151.3700  138.6770  177.8550 C.2   330  SER330      0.2288
     79  O        151.2610  139.7120  177.1980 O.2   330  SER330     -0.2866
     80  CB       150.6330  139.9410  179.9040 C.3   330  SER330      0.2089
     81  OG       150.5400  139.9240  181.3160 O.3   330  SER330     -0.2183
@<TRIPOS>BOND
     1     1     2    1
     2     2     3    1
     3     2     5    1
     4     6     5    1
     5     6     7    1
     6     9     7   ar
     7    16    14    1
     8     4     3    2
     9     3    10   am
    10    40    38    1
    11    45    44    2
    12     7     8   ar
    13    10    11    1
    14    14    11    1
    15    14    15    1
    16    17    15    1
    17    39    38    1
    18    39    41    1
    19    79    78    2
    20    44    43    1
    21    38    35    1
    22    11    12    1
    23    47    46    1
    24    46    43    1
    25    78    77    1
    26    42    43    1
    27    42    36   am
    28    13    12    2
    29    35    36    1
    30    35    34    1
    31    36    37    2
    32    12    18   am
    33    77    76    1
    34    77    80    1
    35    34    28   am
    36    29    28    2
    37    18    19    1
    38    80    81    1
    39    28    27    1
    40    24    23    2
    41    19    20    1
    42    19    22    1
    43    51    50    2
    44    23    25   am
    45    23    22    1
    46    48    49    1
    47    49    50    1
    48    49    52    1
    49    27    26    1
    50    27    30    1
    51    20    21    2
    52    50    57   am
    53    68    67    2
    54    53    52    1
    55    53    54    1
    56    30    31    1
    57    67    66    1
    58    57    58    1
    59    56    54   am
    60    59    58    1
    61    59    60    2
    62    58    61    1
    63    54    55    2
    64    31    32    2
    65    31    33   am
    66    66    69    1
    67    66    65    1
    68    70    69    1
    69    70    71    1
    70    75    73    1
    71    72    73    2
    72    72    71    1
    73    61    62    1
    74    73    74    1
    75    62    64   am
    76    62    63    2
