@<TRIPOS>MOLECULE
tmp/5vn4A01.pdb
 126 124 0 0 0
SMALL
GASTEIGER

@<TRIPOS>ATOM
      1  N         13.4560   12.6720   14.6810 N.3    81  PHE81      -0.1227
      2  CA        12.9230   14.0250   14.5590 C.3    81  PHE81       0.1736
      3  C         13.3180   14.9290   15.7240 C.2    81  PHE81       0.2595
      4  O         13.1830   14.5600   16.8940 O.2    81  PHE81      -0.2718
      5  CB        11.4010   14.0010   14.4870 C.3    81  PHE81       0.0547
      6  CG        10.8550   13.3820   13.2460 C.ar   81  PHE81      -0.0202
      7  CD1       10.6420   14.1480   12.1040 C.ar   81  PHE81      -0.0042
      8  CD2       10.5370   12.0370   13.2170 C.ar   81  PHE81      -0.0042
      9  CE1       10.1090   13.5770   10.9640 C.ar   81  PHE81      -0.0003
     10  CE2       10.0140   11.4580   12.0680 C.ar   81  PHE81      -0.0003
     11  CZ         9.7930   12.2330   10.9500 C.ar   81  PHE81      -0.0000
     12  N         13.7870   16.1200   15.3770 N.am   82  ASP82      -0.1974
     13  CA        13.9080   17.2070   16.3370 C.3    82  ASP82       0.1709
     14  C         12.5240   17.5120   16.8960 C.2    82  ASP82       0.2293
     15  O         11.5470   17.5990   16.1470 O.2    82  ASP82      -0.2864
     16  CB        14.4380   18.4330   15.5930 C.3    82  ASP82       0.1436
     17  CG        14.9730   19.5040   16.5170 C.2    82  ASP82       0.3671
     18  OD1       16.1970   19.7480   16.4950 O.co2  82  ASP82      -0.2456
     19  OD2       14.1730   20.1090   17.2590 O.co2  82  ASP82      -0.2456
     20  N         12.1220   15.7130   20.1850 N.3    84  ARG84      -0.1245
     21  CA        11.9130   14.6030   21.1060 C.3    84  ARG84       0.1563
     22  C         12.3860   13.2680   20.5430 C.2    84  ARG84       0.2260
     23  O         12.8140   12.4020   21.3110 O.2    84  ARG84      -0.2867
     24  CB        10.4630   14.5810   21.5860 C.3    84  ARG84       0.0307
     25  CG        10.1590   15.7790   22.5000 C.3    84  ARG84       0.0489
     26  CD         8.7700   15.7000   23.0900 C.3    84  ARG84       0.2205
     27  NE         7.8320   16.5810   22.4160 N.pl3  84  ARG84      -0.0865
     28  CZ         6.5310   16.3330   22.3050 C.cat  84  ARG84       0.5346
     29  NH1        6.0160   15.1950   22.7730 N.pl3  84  ARG84       0.1354
     30  NH2        5.7450   17.2240   21.7240 N.pl3  84  ARG84       0.1354
     31  N          0.8410   18.9540   12.5890 N.3   121  LYS121     -0.1231
     32  CA         0.8600   18.0920   13.7660 C.3   121  LYS121      0.1693
     33  C         -0.5160   18.1450   14.4130 C.2   121  LYS121      0.2592
     34  O         -1.3430   18.9930   14.0690 O.2   121  LYS121     -0.2718
     35  CB         1.9210   18.5420   14.7890 C.3   121  LYS121      0.0285
     36  CG         3.3680   18.5850   14.2880 C.3   121  LYS121      0.0035
     37  CD         4.2600   19.1750   15.3780 C.3   121  LYS121      0.0206
     38  CE         5.7500   19.0510   15.0700 C.3   121  LYS121      0.1093
     39  NZ         6.2490   17.6570   15.2070 N.3   121  LYS121     -0.1314
     40  N         -0.7490   17.2640   15.4000 N.am  122  GLU122     -0.1966
     41  CA        -2.0200   17.2930   16.1280 C.3   122  GLU122      0.1733
     42  C         -2.3700   18.7100   16.5700 C.2   122  GLU122      0.2616
     43  O         -3.5390   19.1230   16.5210 O.2   122  GLU122     -0.2715
     44  CB        -1.9650   16.3530   17.3450 C.3   122  GLU122      0.0429
     45  CG        -3.3140   16.2210   18.0710 C.3   122  GLU122      0.1163
     46  CD        -3.2680   15.4470   19.3890 C.2   122  GLU122      0.3649
     47  OE1       -2.1820   15.0310   19.8360 O.co2 122  GLU122     -0.2457
     48  OE2       -4.3430   15.2550   19.9950 O.co2 122  GLU122     -0.2457
     49  N         -1.3620   19.4820   16.9780 N.am  123  TYR123     -0.1974
     50  CA        -1.5840   20.8180   17.5130 C.3   123  TYR123      0.1639
     51  C         -0.9880   21.9270   16.6530 C.2   123  TYR123      0.2290
     52  O         -0.8600   23.0620   17.1230 O.2   123  TYR123     -0.2864
     53  CB        -1.0710   20.9150   18.9470 C.3   123  TYR123      0.0560
     54  CG         0.3370   20.4200   19.1910 C.ar  123  TYR123     -0.0198
     55  CD1        1.4410   21.1010   18.6880 C.ar  123  TYR123     -0.0009
     56  CD2        0.5620   19.2930   19.9720 C.ar  123  TYR123     -0.0009
     57  CE1        2.7360   20.6560   18.9480 C.ar  123  TYR123      0.0417
     58  CE2        1.8360   18.8490   20.2390 C.ar  123  TYR123      0.0417
     59  CZ         2.9200   19.5280   19.7230 C.ar  123  TYR123      0.1957
     60  OH         4.1900   19.0800   20.0130 O.3   123  TYR123     -0.2866
     61  N         10.3600    8.7500   16.4790 N.3   148  ASP148     -0.1225
     62  CA         9.8830    9.9170   17.2090 C.3   148  ASP148      0.1805
     63  C          9.3430    9.4280   18.5470 C.2   148  ASP148      0.2598
     64  O          9.2780    8.2230   18.7980 O.2   148  ASP148     -0.2718
     65  CB         8.8090   10.6470   16.4020 C.3   148  ASP148      0.1424
     66  CG         8.7970   12.1380   16.6510 C.2   148  ASP148      0.3668
     67  OD1        9.4860   12.5980   17.5940 O.co2 148  ASP148     -0.2456
     68  OD2        8.1120   12.8450   15.8760 O.co2 148  ASP148     -0.2456
     69  N          8.9350   10.3620   19.4130 N.am  149  ASP149     -0.1960
     70  CA         8.2880    9.9140   20.6450 C.3   149  ASP149      0.1840
     71  C          6.8140    9.5700   20.4210 C.2   149  ASP149      0.2622
     72  O          6.3880    8.4360   20.6660 O.2   149  ASP149     -0.2715
     73  CB         8.5260   10.8700   21.8280 C.3   149  ASP149      0.1450
     74  CG         7.8090   12.2020   21.7000 C.2   149  ASP149      0.3671
     75  OD1        7.6670   12.7210   20.5680 O.co2 149  ASP149     -0.2456
     76  OD2        7.4250   12.7500   22.7660 O.co2 149  ASP149     -0.2456
     77  N          6.0290   10.5250   19.9230 N.am  150  VAL150     -0.1963
     78  CA         4.5850   10.3730   19.7630 C.3   150  VAL150      0.1727
     79  C          4.2560   10.3490   18.2790 C.2   150  VAL150      0.2616
     80  O          4.7890   11.1500   17.5050 O.2   150  VAL150     -0.2715
     81  CB         3.8380   11.5350   20.4480 C.3   150  VAL150      0.0290
     82  CG1        2.3240   11.4230   20.2140 C.3   150  VAL150      0.0023
     83  CG2        4.1510   11.5710   21.9370 C.3   150  VAL150      0.0023
     84  N          3.3600    9.4470   17.8910 N.am  151  ILE151     -0.1963
     85  CA         2.6910    9.4900   16.5930 C.3   151  ILE151      0.1727
     86  C          1.2210    9.7740   16.8580 C.2   151  ILE151      0.2616
     87  O          0.5360    8.9790   17.5170 O.2   151  ILE151     -0.2715
     88  CB         2.8880    8.1960   15.7890 C.3   151  ILE151      0.0290
     89  CG1        4.3860    7.9480   15.5370 C.3   151  ILE151      0.0022
     90  CG2        2.1280    8.3020   14.4610 C.3   151  ILE151      0.0023
     91  CD1        4.7110    6.6280   14.9310 C.3   151  ILE151      0.0001
     92  N          0.7530   10.9340   16.3870 N.am  152  ALA152     -0.1963
     93  CA        -0.6110   11.3730   16.6220 C.3   152  ALA152      0.1728
     94  C         -1.3070   11.4030   15.2670 C.2   152  ALA152      0.2617
     95  O         -1.7570   10.3480   14.7890 O.2   152  ALA152     -0.2715
     96  CB        -0.6160   12.6990   17.3950 C.3   152  ALA152      0.0334
     97  N         -1.3890   12.5550   14.5950 N.am  153  THR153     -0.1937
     98  CA        -1.9880   12.5930   13.2650 C.3   153  THR153      0.2028
     99  C         -1.1090   11.9390   12.2060 C.2   153  THR153      0.2643
    100  O         -1.6060   11.6300   11.1150 O.2   153  THR153     -0.2714
    101  CB        -2.2450   14.0320   12.8170 C.3   153  THR153      0.1808
    102  OG1       -0.9930   14.7090   12.6070 O.3   153  THR153     -0.2208
    103  CG2       -3.0890   14.7830   13.8170 C.3   153  THR153      0.0379
    104  N          0.1800   11.7420   12.4730 N.am  154  GLY154     -0.1939
    105  CA         1.0770   11.2440   11.4530 C.3   154  GLY154      0.2014
    106  C          1.5970   12.2980   10.5040 C.2   154  GLY154      0.2639
    107  O          2.3200   11.9520    9.5560 O.2   154  GLY154     -0.2714
    108  N          1.2810   13.5730   10.7370 N.am  155  GLY155     -0.1939
    109  CA         1.8340   14.6260    9.8970 C.3   155  GLY155      0.2014
    110  C          3.3460   14.7200    9.9830 C.2   155  GLY155      0.2640
    111  O          4.0270   14.8970    8.9710 O.2   155  GLY155     -0.2714
    112  N          3.8970   14.6060   11.1870 N.am  156  THR156     -0.1936
    113  CA         5.3490   14.6600   11.3140 C.3   156  THR156      0.2028
    114  C          5.9910   13.4840   10.5910 C.2   156  THR156      0.2642
    115  O          6.9500   13.6580    9.8300 O.2   156  THR156     -0.2714
    116  CB         5.7510   14.7030   12.7920 C.3   156  THR156      0.1808
    117  OG1        5.1160   15.8300   13.4150 O.3   156  THR156     -0.2208
    118  CG2        7.2780   14.8210   12.9420 C.3   156  THR156      0.0379
    119  N          5.4510   12.2810   10.7890 N.am  157  MET157     -0.1976
    120  CA         5.9960   11.1180   10.0930 C.3   157  MET157      0.1605
    121  C          5.9290   11.2860    8.5820 C.2   157  MET157      0.2287
    122  O          6.8540   10.8760    7.8730 O.2   157  MET157     -0.2864
    123  CB         5.3110    9.8230   10.5400 C.3   157  MET157      0.0413
    124  CG         5.8930    9.2230   11.8040 C.3   157  MET157      0.0598
    125  SD         7.6140    8.7170   11.5710 S.3   157  MET157     -0.1393
    126  CE         8.0730    8.5530   13.3130 C.3   157  MET157      0.0692
@<TRIPOS>BOND
     1   122   121    2
     2   121   120    1
     3   111   110    2
     4   107   106    2
     5   115   114    2
     6   109   110    1
     7   109   108    1
     8   110   112   am
     9   120   123    1
    10   120   119    1
    11   106   108   am
    12   106   105    1
    13   123   124    1
    14   114   119   am
    15   114   113    1
    16    11     9   ar
    17    11    10   ar
    18     9     7   ar
    19   100    99    2
    20   112   113    1
    21   113   116    1
    22   105   104    1
    23   125   124    1
    24   125   126    1
    25    10     8   ar
    26     7     6   ar
    27    99   104   am
    28    99    98    1
    29    31    32    1
    30   102   101    1
    31   116   118    1
    32   116   117    1
    33   101    98    1
    34   101   103    1
    35     8     6   ar
    36     6     5    1
    37    98    97    1
    38    32    33    1
    39    32    35    1
    40    34    33    2
    41    36    35    1
    42    36    37    1
    43    33    40   am
    44    90    88    1
    45     5     2    1
    46     2     1    1
    47     2     3    1
    48    97    94   am
    49    95    94    2
    50    91    89    1
    51    38    39    1
    52    38    37    1
    53    94    93    1
    54    12     3   am
    55    12    13    1
    56    40    41    1
    57    89    88    1
    58    16    13    1
    59    16    17    1
    60     3     4    2
    61    88    85    1
    62    68    66   ar
    63    41    42    1
    64    41    44    1
    65    15    14    2
    66    13    14    1
    67    92    93    1
    68    92    86   am
    69    65    66    1
    70    65    62    1
    71    61    62    1
    72    18    17   ar
    73    17    19   ar
    74    43    42    2
    75    42    49   am
    76    85    86    1
    77    85    84    1
    78    93    96    1
    79    66    67   ar
    80    51    52    2
    81    51    50    1
    82    86    87    2
    83    49    50    1
    84    62    63    1
    85    44    45    1
    86    80    79    2
    87    50    53    1
    88    84    79   am
    89    45    46    1
    90    79    78    1
    91    63    64    2
    92    63    69   am
    93    55    57   ar
    94    55    54   ar
    95    53    54    1
    96    57    59   ar
    97    54    56   ar
    98    46    47   ar
    99    46    48   ar
   100    69    70    1
   101    59    60    1
   102    59    58   ar
   103    78    77    1
   104    78    81    1
   105    77    71   am
   106    56    58   ar
   107    20    21    1
   108    82    81    1
   109    71    70    1
   110    71    72    2
   111    81    83    1
   112    22    21    1
   113    22    23    2
   114    75    74   ar
   115    70    73    1
   116    21    24    1
   117    24    25    1
   118    74    73    1
   119    74    76   ar
   120    30    28    1
   121    28    27    2
   122    28    29    1
   123    27    26    1
   124    25    26    1
