@<TRIPOS>MOLECULE
tmp/5vn4A00.pdb
 111 104 0 0 0
SMALL
GASTEIGER

@<TRIPOS>ATOM
      1  N         -4.1280   20.1550   23.5130 N.3    41  VAL41      -0.1245
      2  CA        -4.7660   18.8910   23.1750 C.3    41  VAL41       0.1561
      3  C         -5.3930   18.4210   24.4850 C.2    41  VAL41       0.2260
      4  O         -5.0150   18.9150   25.5540 O.2    41  VAL41      -0.2867
      5  CB        -3.7340   17.8860   22.6420 C.3    41  VAL41       0.0252
      6  CG1       -3.1440   18.3790   21.3160 C.3    41  VAL41       0.0019
      7  CG2       -2.6240   17.6470   23.6740 C.3    41  VAL41       0.0019
      8  N         -5.0360   15.6550   26.2440 N.3    43  ARG43      -0.1231
      9  CA        -4.1110   14.9300   27.1170 C.3    43  ARG43       0.1694
     10  C         -2.7260   14.9760   26.4780 C.2    43  ARG43       0.2592
     11  O         -2.4580   14.2760   25.4960 O.2    43  ARG43      -0.2718
     12  CB        -4.5960   13.5020   27.3660 C.3    43  ARG43       0.0321
     13  CG        -5.9990   13.4770   27.9660 C.3    43  ARG43       0.0489
     14  CD        -6.4330   12.1630   28.6290 C.3    43  ARG43       0.2205
     15  NE        -7.7020   12.3840   29.3340 N.pl3  43  ARG43      -0.0865
     16  CZ        -8.2240   11.5890   30.2640 C.cat  43  ARG43       0.5346
     17  NH1       -7.6100   10.4730   30.6300 N.pl3  43  ARG43       0.1354
     18  NH2       -9.3770   11.9190   30.8320 N.pl3  43  ARG43       0.1354
     19  N         -1.8540   15.8100   27.0310 N.am   44  PHE44      -0.1962
     20  CA        -0.5030   15.9830   26.5150 C.3    44  PHE44       0.1771
     21  C          0.4550   15.0860   27.2880 C.2    44  PHE44       0.2619
     22  O          0.6170   15.2430   28.5040 O.2    44  PHE44      -0.2715
     23  CB        -0.0660   17.4420   26.6310 C.3    44  PHE44       0.0574
     24  CG         1.3090   17.7030   26.0670 C.ar   44  PHE44      -0.0200
     25  CD1        1.4820   17.9830   24.7200 C.ar   44  PHE44      -0.0042
     26  CD2        2.4310   17.6480   26.8750 C.ar   44  PHE44      -0.0042
     27  CE1        2.7520   18.2120   24.1980 C.ar   44  PHE44      -0.0003
     28  CE2        3.6880   17.8850   26.3620 C.ar   44  PHE44      -0.0003
     29  CZ         3.8540   18.1550   25.0150 C.ar   44  PHE44      -0.0000
     30  N          1.1300   14.1920   26.5710 N.am   45  ALA45      -0.1977
     31  CA         2.0030   13.1890   27.1820 C.3    45  ALA45       0.1597
     32  C          3.4340   13.7220   27.2050 C.2    45  ALA45       0.2287
     33  O          4.1510   13.6720   26.2000 O.2    45  ALA45      -0.2864
     34  CB         1.8960   11.8760   26.4190 C.3    45  ALA45       0.0319
     35  N         12.1220   15.7130   20.1850 N.3    84  ARG84      -0.1245
     36  CA        11.9130   14.6030   21.1060 C.3    84  ARG84       0.1563
     37  C         12.3860   13.2680   20.5430 C.2    84  ARG84       0.2260
     38  O         12.8140   12.4020   21.3110 O.2    84  ARG84      -0.2867
     39  CB        10.4630   14.5810   21.5860 C.3    84  ARG84       0.0307
     40  CG        10.1590   15.7790   22.5000 C.3    84  ARG84       0.0489
     41  CD         8.7700   15.7000   23.0900 C.3    84  ARG84       0.2205
     42  NE         7.8320   16.5810   22.4160 N.pl3  84  ARG84      -0.0865
     43  CZ         6.5310   16.3330   22.3050 C.cat  84  ARG84       0.5346
     44  NH1        6.0160   15.1950   22.7730 N.pl3  84  ARG84       0.1354
     45  NH2        5.7450   17.2240   21.7240 N.pl3  84  ARG84       0.1354
     46  N          0.8410   18.9540   12.5890 N.3   121  LYS121     -0.1231
     47  CA         0.8600   18.0920   13.7660 C.3   121  LYS121      0.1693
     48  C         -0.5160   18.1450   14.4130 C.2   121  LYS121      0.2592
     49  O         -1.3430   18.9930   14.0690 O.2   121  LYS121     -0.2718
     50  CB         1.9210   18.5420   14.7890 C.3   121  LYS121      0.0285
     51  CG         3.3680   18.5850   14.2880 C.3   121  LYS121      0.0035
     52  CD         4.2600   19.1750   15.3780 C.3   121  LYS121      0.0206
     53  CE         5.7500   19.0510   15.0700 C.3   121  LYS121      0.1093
     54  NZ         6.2490   17.6570   15.2070 N.3   121  LYS121     -0.1314
     55  N         -0.7490   17.2640   15.4000 N.am  122  GLU122     -0.1966
     56  CA        -2.0200   17.2930   16.1280 C.3   122  GLU122      0.1733
     57  C         -2.3700   18.7100   16.5700 C.2   122  GLU122      0.2616
     58  O         -3.5390   19.1230   16.5210 O.2   122  GLU122     -0.2715
     59  CB        -1.9650   16.3530   17.3450 C.3   122  GLU122      0.0429
     60  CG        -3.3140   16.2210   18.0710 C.3   122  GLU122      0.1163
     61  CD        -3.2680   15.4470   19.3890 C.2   122  GLU122      0.3649
     62  OE1       -2.1820   15.0310   19.8360 O.co2 122  GLU122     -0.2457
     63  OE2       -4.3430   15.2550   19.9950 O.co2 122  GLU122     -0.2457
     64  N         -1.3620   19.4820   16.9780 N.am  123  TYR123     -0.1974
     65  CA        -1.5840   20.8180   17.5130 C.3   123  TYR123      0.1639
     66  C         -0.9880   21.9270   16.6530 C.2   123  TYR123      0.2290
     67  O         -0.8600   23.0620   17.1230 O.2   123  TYR123     -0.2864
     68  CB        -1.0710   20.9150   18.9470 C.3   123  TYR123      0.0560
     69  CG         0.3370   20.4200   19.1910 C.ar  123  TYR123     -0.0198
     70  CD1        1.4410   21.1010   18.6880 C.ar  123  TYR123     -0.0009
     71  CD2        0.5620   19.2930   19.9720 C.ar  123  TYR123     -0.0009
     72  CE1        2.7360   20.6560   18.9480 C.ar  123  TYR123      0.0417
     73  CE2        1.8360   18.8490   20.2390 C.ar  123  TYR123      0.0417
     74  CZ         2.9200   19.5280   19.7230 C.ar  123  TYR123      0.1957
     75  OH         4.1900   19.0800   20.0130 O.3   123  TYR123     -0.2866
     76  N          6.0290   10.5250   19.9230 N.3   150  VAL150     -0.1245
     77  CA         4.5850   10.3730   19.7630 C.3   150  VAL150      0.1561
     78  C          4.2560   10.3490   18.2790 C.2   150  VAL150      0.2260
     79  O          4.7890   11.1500   17.5050 O.2   150  VAL150     -0.2867
     80  CB         3.8380   11.5350   20.4480 C.3   150  VAL150      0.0252
     81  CG1        2.3240   11.4230   20.2140 C.3   150  VAL150      0.0019
     82  CG2        4.1510   11.5710   21.9370 C.3   150  VAL150      0.0019
     83  N          0.7530   10.9340   16.3870 N.3   152  ALA152     -0.1245
     84  CA        -0.6110   11.3730   16.6220 C.3   152  ALA152      0.1562
     85  C         -1.3070   11.4030   15.2670 C.2   152  ALA152      0.2260
     86  O         -1.7570   10.3480   14.7890 O.2   152  ALA152     -0.2867
     87  CB        -0.6160   12.6990   17.3950 C.3   152  ALA152      0.0290
     88  N          4.6410    6.2300   21.8090 N.3   178  LEU178     -0.1245
     89  CA         3.2230    6.4620   22.0750 C.3   178  LEU178      0.1561
     90  C          2.5080    6.7010   20.7550 C.2   178  LEU178      0.2260
     91  O          2.8310    7.6490   20.0340 O.2   178  LEU178     -0.2867
     92  CB         3.0380    7.6660   23.0050 C.3   178  LEU178      0.0270
     93  CG         1.5900    8.0770   23.2650 C.3   178  LEU178      0.0019
     94  CD1        0.8080    6.9740   23.9560 C.3   178  LEU178      0.0001
     95  CD2        1.5630    9.3350   24.0890 C.3   178  LEU178      0.0001
     96  N         -1.2990    7.3580   19.1710 N.3   180  LEU180     -0.1245
     97  CA        -2.6930    7.6660   19.4920 C.3   180  LEU180      0.1561
     98  C         -3.5140    7.0710   18.3560 C.2   180  LEU180      0.2260
     99  O         -3.7830    7.7200   17.3420 O.2   180  LEU180     -0.2867
    100  CB        -2.8860    9.1680   19.6440 C.3   180  LEU180      0.0270
    101  CG        -1.9610    9.8250   20.6850 C.3   180  LEU180      0.0019
    102  CD1       -2.1790   11.3210   20.7510 C.3   180  LEU180      0.0001
    103  CD2       -2.1400    9.1960   22.0580 C.3   180  LEU180      0.0001
    104  N         -2.9710    6.7960   28.8320 N.3   211  LEU211     -0.1245
    105  CA        -3.3750    8.1300   29.2830 C.3   211  LEU211      0.1561
    106  C         -4.7020    8.0700   30.0470 C.2   211  LEU211      0.2260
    107  O         -5.6930    8.7220   29.7140 O.2   211  LEU211     -0.2867
    108  CB        -3.4430    9.0840   28.0950 C.3   211  LEU211      0.0270
    109  CG        -2.1670    9.1640   27.2510 C.3   211  LEU211      0.0019
    110  CD1       -2.3290   10.1560   26.1100 C.3   211  LEU211      0.0001
    111  CD2       -0.9590    9.5260   28.1020 C.3   211  LEU211      0.0001
@<TRIPOS>BOND
     1    46    47    1
     2    47    48    1
     3    47    50    1
     4    49    48    2
     5    51    50    1
     6    51    52    1
     7    48    55   am
     8    86    85    2
     9    53    54    1
    10    53    52    1
    11    85    84    1
    12    55    56    1
    13    56    57    1
    14    56    59    1
    15    83    84    1
    16    58    57    2
    17    57    64   am
    18    84    87    1
    19    66    67    2
    20    66    65    1
    21    64    65    1
    22    99    98    2
    23    59    60    1
    24    79    78    2
    25    65    68    1
    26    60    61    1
    27    78    77    1
    28    98    97    1
    29    70    72   ar
    30    70    69   ar
    31    68    69    1
    32    72    74   ar
    33    96    97    1
    34    69    71   ar
    35    61    62   ar
    36    61    63   ar
    37    97   100    1
    38   100   101    1
    39    74    75    1
    40    74    73   ar
    41    77    76    1
    42    77    80    1
    43    71    73   ar
    44    91    90    2
    45    35    36    1
    46    81    80    1
    47    80    82    1
    48    37    36    1
    49    37    38    2
    50   101   102    1
    51   101   103    1
    52    90    89    1
    53    36    39    1
    54     6     5    1
    55    39    40    1
    56    45    43    1
    57    88    89    1
    58    89    92    1
    59    43    42    2
    60    43    44    1
    61    42    41    1
    62    40    41    1
    63     5     2    1
    64     5     7    1
    65    92    93    1
    66     2     1    1
    67     2     3    1
    68    93    94    1
    69    93    95    1
    70    27    25   ar
    71    27    29   ar
    72     3     4    2
    73    25    24   ar
    74    29    28   ar
    75    11    10    2
    76    24    23    1
    77    24    26   ar
    78   110   109    1
    79    33    32    2
    80     8     9    1
    81    28    26   ar
    82    34    31    1
    83    10    19   am
    84    10     9    1
    85    20    23    1
    86    20    19    1
    87    20    21    1
    88    30    31    1
    89    30    21   am
    90     9    12    1
    91    31    32    1
    92   109   108    1
    93   109   111    1
    94    21    22    2
    95    12    13    1
    96    13    14    1
    97   108   105    1
    98    14    15    1
    99   104   105    1
   100   105   106    1
   101    15    16    2
   102   107   106    2
   103    16    17    1
   104    16    18    1
