@<TRIPOS>MOLECULE
tmp/5vndB00.pdb
 203 189 0 0 0
SMALL
GASTEIGER

@<TRIPOS>ATOM
      1  N         81.2370  -25.3820  -33.7570 N.3    23  LYS23      -0.1245
      2  CA        79.9910  -24.7400  -34.1270 C.3    23  LYS23       0.1561
      3  C         79.3400  -23.9480  -32.9710 C.2    23  LYS23       0.2260
      4  O         79.4420  -24.3450  -31.8040 O.2    23  LYS23      -0.2867
      5  CB        79.0270  -25.7500  -34.7550 C.3    23  LYS23       0.0271
      6  CG        78.2530  -26.6650  -33.8140 C.3    23  LYS23       0.0035
      7  CD        76.8730  -27.0090  -34.4030 C.3    23  LYS23       0.0206
      8  CE        75.8280  -27.6600  -33.5000 C.3    23  LYS23       0.1093
      9  NZ        76.2270  -28.9770  -32.9360 N.3    23  LYS23      -0.1314
     10  N         76.5320  -22.7110  -30.3400 N.3    25  LEU25      -0.1231
     11  CA        75.4070  -23.3400  -29.6400 C.3    25  LEU25       0.1693
     12  C         74.2680  -22.3740  -29.3410 C.2    25  LEU25       0.2592
     13  O         73.1150  -22.7780  -29.2850 O.2    25  LEU25      -0.2718
     14  CB        75.8270  -23.9800  -28.3280 C.3    25  LEU25       0.0284
     15  CG        76.4560  -25.3780  -28.4840 C.3    25  LEU25       0.0019
     16  CD1       77.4270  -25.7050  -27.3540 C.3    25  LEU25       0.0001
     17  CD2       75.3630  -26.4290  -28.5360 C.3    25  LEU25       0.0001
     18  N         74.5630  -21.1080  -29.1120 N.am   26  GLY26      -0.1957
     19  CA        73.5160  -20.2070  -28.6680 C.3    26  GLY26       0.1869
     20  C         74.0350  -18.8480  -28.2570 C.2    26  GLY26       0.2309
     21  O         75.2170  -18.6830  -27.9800 O.2    26  GLY26      -0.2863
     22  N         77.8990  -18.8400  -26.9310 N.3    33  VAL33      -0.1245
     23  CA        78.6020  -20.0230  -26.6100 C.3    33  VAL33       0.1561
     24  C         78.7830  -20.9130  -27.8050 C.2    33  VAL33       0.2260
     25  O         77.9340  -20.9610  -28.6650 O.2    33  VAL33      -0.2867
     26  CB        78.1290  -20.7220  -25.2920 C.3    33  VAL33       0.0252
     27  CG1       77.0460  -19.9990  -24.5370 C.3    33  VAL33       0.0019
     28  CG2       77.9050  -22.1860  -25.4200 C.3    33  VAL33       0.0019
     29  N         80.6160  -24.7770  -29.1240 N.3    35  LEU35      -0.1245
     30  CA        81.1830  -26.0880  -28.8940 C.3    35  LEU35       0.1561
     31  C         82.6550  -26.0320  -29.2230 C.2    35  LEU35       0.2260
     32  O         83.0630  -25.2330  -30.0510 O.2    35  LEU35      -0.2867
     33  CB        80.4510  -27.0830  -29.7710 C.3    35  LEU35       0.0270
     34  CG        80.6560  -28.5680  -29.5440 C.3    35  LEU35       0.0019
     35  CD1       80.0300  -28.9570  -28.2150 C.3    35  LEU35       0.0001
     36  CD2       80.0150  -29.4020  -30.6540 C.3    35  LEU35       0.0001
     37  N         85.5290  -32.7480  -25.4120 N.3    51  LYS51      -0.1231
     38  CA        84.4670  -31.8630  -25.9540 C.3    51  LYS51       0.1693
     39  C         83.9770  -30.9780  -24.8060 C.2    51  LYS51       0.2592
     40  O         83.7290  -31.4770  -23.6990 O.2    51  LYS51      -0.2718
     41  CB        83.2570  -32.6360  -26.4370 C.3    51  LYS51       0.0285
     42  CG        83.5460  -33.6960  -27.4770 C.3    51  LYS51       0.0035
     43  CD        82.4830  -34.8030  -27.4620 C.3    51  LYS51       0.0206
     44  CE        83.0900  -36.2250  -27.4130 C.3    51  LYS51       0.1093
     45  NZ        82.6190  -37.0570  -28.5580 N.3    51  LYS51      -0.1314
     46  N         83.8620  -29.6830  -25.0510 N.am   52  VAL52      -0.1966
     47  CA        83.5440  -28.7020  -23.9980 C.3    52  VAL52       0.1727
     48  C         82.6620  -27.6500  -24.5770 C.2    52  VAL52       0.2616
     49  O         82.4880  -27.6000  -25.7820 O.2    52  VAL52      -0.2715
     50  CB        84.7910  -28.0260  -23.4200 C.3    52  VAL52       0.0290
     51  CG1       85.7030  -29.0220  -22.7610 C.3    52  VAL52       0.0023
     52  CG2       85.5800  -27.2700  -24.5010 C.3    52  VAL52       0.0023
     53  N         82.0670  -26.8250  -23.7080 N.am   53  ALA53      -0.1963
     54  CA        81.3450  -25.6380  -24.1610 C.3    53  ALA53       0.1728
     55  C         82.1200  -24.4380  -23.7430 C.2    53  ALA53       0.2616
     56  O         82.7260  -24.4380  -22.6740 O.2    53  ALA53      -0.2715
     57  CB        79.9230  -25.5650  -23.5920 C.3    53  ALA53       0.0334
     58  N         82.0670  -23.3890  -24.5710 N.am   54  VAL54      -0.1963
     59  CA        82.8570  -22.1800  -24.3390 C.3    54  VAL54       0.1727
     60  C         82.0410  -20.9350  -24.4770 C.2    54  VAL54       0.2616
     61  O         81.4350  -20.6960  -25.5540 O.2    54  VAL54      -0.2715
     62  CB        83.9880  -22.0940  -25.3870 C.3    54  VAL54       0.0290
     63  CG1       84.8530  -20.8930  -25.1270 C.3    54  VAL54       0.0023
     64  CG2       84.8350  -23.3690  -25.3670 C.3    54  VAL54       0.0023
     65  N         82.0720  -20.1010  -23.4320 N.am   55  LYS55      -0.1977
     66  CA        81.4110  -18.7990  -23.4550 C.3    55  LYS55       0.1596
     67  C         82.3970  -17.6530  -23.7360 C.2    55  LYS55       0.2287
     68  O         83.4930  -17.6340  -23.1910 O.2    55  LYS55      -0.2864
     69  CB        80.7010  -18.5270  -22.1330 C.3    55  LYS55       0.0298
     70  CG        79.9380  -17.2210  -22.1150 C.3    55  LYS55       0.0038
     71  CD        78.4920  -17.3050  -21.7290 C.3    55  LYS55       0.0206
     72  CE        78.2440  -17.2840  -20.2790 C.3    55  LYS55       0.1093
     73  NZ        76.7960  -17.3740  -19.9540 N.3    55  LYS55      -0.1314
     74  N         80.9270  -11.2600  -17.5400 N.3    69  LEU69      -0.1245
     75  CA        81.4620  -12.5680  -17.8800 C.3    69  LEU69       0.1561
     76  C         82.5940  -12.9760  -16.8940 C.2    69  LEU69       0.2260
     77  O         82.7070  -14.1260  -16.5060 O.2    69  LEU69      -0.2867
     78  CB        81.9140  -12.6170  -19.3240 C.3    69  LEU69       0.0270
     79  CG        82.5400  -13.9250  -19.8300 C.3    69  LEU69       0.0019
     80  CD1       81.6190  -15.1220  -19.5900 C.3    69  LEU69       0.0001
     81  CD2       82.8360  -13.8140  -21.3170 C.3    69  LEU69       0.0001
     82  N         80.9910  -14.1300  -13.6750 N.3    72  GLU72      -0.1245
     83  CA        80.4290  -15.4580  -13.8200 C.3    72  GLU72       0.1567
     84  C         81.5360  -16.5300  -13.6530 C.2    72  GLU72       0.2260
     85  O         81.3790  -17.4750  -12.8630 O.2    72  GLU72      -0.2867
     86  CB        79.7110  -15.5790  -15.1510 C.3    72  GLU72       0.0388
     87  CG        79.0940  -16.9690  -15.4460 C.3    72  GLU72       0.1160
     88  CD        78.2720  -17.0110  -16.7520 C.2    72  GLU72       0.3649
     89  OE1       78.1500  -15.9720  -17.4730 O.co2  72  GLU72      -0.2457
     90  OE2       77.6630  -18.0700  -17.0230 O.co2  72  GLU72      -0.2457
     91  N         82.0690  -19.1680  -10.4470 N.3    76  MET76      -0.1245
     92  CA        82.2080  -20.6090  -10.6460 C.3    76  MET76       0.1570
     93  C         83.4550  -21.1270   -9.9420 C.2    76  MET76       0.2261
     94  O         83.4570  -22.2270   -9.3570 O.2    76  MET76      -0.2867
     95  CB        82.2040  -20.9760  -12.1040 C.3    76  MET76       0.0387
     96  CG        80.9110  -20.6770  -12.8140 C.3    76  MET76       0.0595
     97  SD        80.9400  -21.1210  -14.5380 S.3    76  MET76      -0.1393
     98  CE        80.7850  -22.9170  -14.4760 C.3    76  MET76       0.0692
     99  N         77.1080  -27.8490  -13.7700 N.3    86  ILE86      -0.1245
    100  CA        78.0050  -27.6830  -14.9250 C.3    86  ILE86       0.1561
    101  C         79.2810  -27.0460  -14.3670 C.2    86  ILE86       0.2260
    102  O         79.2110  -25.9440  -13.7990 O.2    86  ILE86      -0.2867
    103  CB        77.3900  -26.7770  -15.9610 C.3    86  ILE86       0.0252
    104  CG1       76.2470  -27.4790  -16.7050 C.3    86  ILE86       0.0019
    105  CG2       78.4450  -26.2660  -16.9540 C.3    86  ILE86       0.0019
    106  CD1       76.6320  -28.6710  -17.5350 C.3    86  ILE86       0.0001
    107  N         85.5940  -18.7350  -21.5390 N.3   100  VAL100     -0.1245
    108  CA        85.3230  -19.4640  -20.2660 C.3   100  VAL100      0.1561
    109  C         84.8470  -20.8620  -20.6910 C.2   100  VAL100      0.2260
    110  O         83.8900  -20.9800  -21.4610 O.2   100  VAL100     -0.2867
    111  CB        84.2730  -18.7750  -19.4180 C.3   100  VAL100      0.0252
    112  CG1       84.0310  -19.5730  -18.1170 C.3   100  VAL100      0.0019
    113  CG2       84.7010  -17.3500  -19.0770 C.3   100  VAL100      0.0019
    114  N         83.6650  -24.7900  -20.0140 N.3   102  VAL102     -0.1231
    115  CA        82.8940  -25.5710  -19.0780 C.3   102  VAL102      0.1692
    116  C         82.5670  -26.9170  -19.7080 C.2   102  VAL102      0.2592
    117  O         82.7120  -27.1150  -20.9140 O.2   102  VAL102     -0.2718
    118  CB        81.5670  -24.8930  -18.6060 C.3   102  VAL102      0.0266
    119  CG1       81.7800  -23.4900  -18.1530 C.3   102  VAL102      0.0020
    120  CG2       80.5020  -24.8860  -19.6850 C.3   102  VAL102      0.0020
    121  N         82.0910  -27.8150  -18.8570 N.am  103  GLU103     -0.1966
    122  CA        81.6270  -29.1310  -19.2630 C.3   103  GLU103      0.1733
    123  C         80.5600  -29.0490  -20.3100 C.2   103  GLU103      0.2616
    124  O         79.7250  -28.1620  -20.3070 O.2   103  GLU103     -0.2715
    125  CB        81.0780  -29.9330  -18.0290 C.3   103  GLU103      0.0429
    126  CG        82.1700  -30.3900  -17.0670 C.3   103  GLU103      0.1163
    127  CD        81.6250  -31.0600  -15.7780 C.2   103  GLU103      0.3649
    128  OE1       80.5690  -30.6620  -15.2390 O.co2 103  GLU103     -0.2457
    129  OE2       82.3020  -31.9740  -15.2430 O.co2 103  GLU103     -0.2457
    130  N         80.5770  -30.0380  -21.1920 N.am  104  CYS104     -0.1954
    131  CA        79.5840  -30.1830  -22.2310 C.3   104  CYS104      0.1843
    132  C         78.6320  -31.3310  -21.8440 C.2   104  CYS104      0.2625
    133  O         79.0670  -32.3960  -21.4590 O.2   104  CYS104     -0.2714
    134  CB        80.2610  -30.4560  -23.5890 C.3   104  CYS104      0.0997
    135  SG        79.1180  -31.1100  -24.8500 S.3   104  CYS104     -0.0797
    136  N         77.3300  -31.0790  -21.8860 N.am  105  ALA105     -0.1963
    137  CA        76.3540  -32.1000  -21.5390 C.3   105  ALA105      0.1728
    138  C         75.7050  -32.4920  -22.8430 C.2   105  ALA105      0.2616
    139  O         75.0100  -31.6770  -23.4720 O.2   105  ALA105     -0.2715
    140  CB        75.3430  -31.5340  -20.5550 C.3   105  ALA105      0.0334
    141  N         75.9150  -33.7280  -23.2730 N.am  106  SER106     -0.1950
    142  CA        75.5730  -34.0610  -24.6640 C.3   106  SER106      0.1924
    143  C         74.1010  -34.3080  -24.9240 C.2   106  SER106      0.2314
    144  O         73.6790  -34.2170  -26.0560 O.2   106  SER106     -0.2863
    145  CB        76.3850  -35.2520  -25.1560 C.3   106  SER106      0.2116
    146  OG        76.0920  -36.4020  -24.3850 O.3   106  SER106     -0.2180
    147  N         71.4960  -32.4760  -23.9450 N.3   108  GLY108     -0.1210
    148  CA        70.6900  -31.2670  -24.0030 C.3   108  GLY108      0.1956
    149  C         70.0220  -30.9520  -22.6650 C.2   108  GLY108      0.2611
    150  O         70.4710  -31.4260  -21.6090 O.2   108  GLY108     -0.2717
    151  N         68.9440  -30.1840  -22.7100 N.am  109  ASN109     -0.1974
    152  CA        68.2650  -29.7880  -21.4820 C.3   109  ASN109      0.1688
    153  C         67.1880  -30.7670  -21.0840 C.2   109  ASN109      0.2292
    154  O         66.7430  -31.6060  -21.8550 O.2   109  ASN109     -0.2864
    155  CB        67.7650  -28.3360  -21.5190 C.3   109  ASN109      0.1181
    156  CG        66.4740  -28.1410  -22.3250 C.2   109  ASN109      0.2629
    157  OD1       65.4490  -28.8190  -22.1590 O.2   109  ASN109     -0.2716
    158  ND2       66.4890  -27.1320  -23.1070 N.am  109  ASN109     -0.0877
    159  N         63.6550  -30.9320  -22.9330 N.3   112  GLU112     -0.1245
    160  CA        63.7740  -31.7200  -24.1910 C.3   112  GLU112      0.1567
    161  C         64.0100  -33.2020  -23.9590 C.2   112  GLU112      0.2260
    162  O         63.4560  -34.0440  -24.6430 O.2   112  GLU112     -0.2867
    163  CB        64.9220  -31.1930  -25.0400 C.3   112  GLU112      0.0388
    164  CG        64.6800  -29.8130  -25.6290 C.3   112  GLU112      0.1160
    165  CD        65.9530  -29.1610  -26.2110 C.2   112  GLU112      0.3649
    166  OE1       67.1520  -29.5590  -25.8680 O.co2 112  GLU112     -0.2457
    167  OE2       65.7250  -28.1930  -26.9870 O.co2 112  GLU112     -0.2457
    168  N         70.8750  -29.5510  -17.3860 N.3   160  LEU160     -0.1245
    169  CA        71.4190  -30.2400  -18.5530 C.3   160  LEU160      0.1561
    170  C         71.7070  -31.6780  -18.2190 C.2   160  LEU160      0.2260
    171  O         71.8540  -32.0350  -17.0540 O.2   160  LEU160     -0.2867
    172  CB        72.6600  -29.5210  -19.0880 C.3   160  LEU160      0.0270
    173  CG        72.4530  -28.0390  -19.4520 C.3   160  LEU160      0.0019
    174  CD1       73.7210  -27.3900  -20.0270 C.3   160  LEU160      0.0001
    175  CD2       71.3340  -27.8330  -20.4480 C.3   160  LEU160      0.0001
    176  N         72.5530  -25.6980  -14.7170 N.3   170  ALA170     -0.1231
    177  CA        73.2310  -24.7370  -15.5780 C.3   170  ALA170      0.1694
    178  C         72.8520  -23.3280  -15.1530 C.2   170  ALA170      0.2592
    179  O         71.8650  -23.1190  -14.4420 O.2   170  ALA170     -0.2718
    180  CB        72.7750  -24.9890  -17.0140 C.3   170  ALA170      0.0304
    181  N         73.6770  -22.3750  -15.5440 N.am  171  ASP171     -0.1960
    182  CA        73.3680  -20.9160  -15.4810 C.3   171  ASP171      0.1840
    183  C         73.1110  -20.4750  -14.0910 C.2   171  ASP171      0.2622
    184  O         72.2300  -19.6740  -13.8440 O.2   171  ASP171     -0.2715
    185  CB        72.1690  -20.4710  -16.3790 C.3   171  ASP171      0.1450
    186  CG        72.4520  -20.6040  -17.9160 C.2   171  ASP171      0.3671
    187  OD1       73.6270  -20.7880  -18.3420 O.co2 171  ASP171     -0.2456
    188  OD2       71.4840  -20.5230  -18.7280 O.co2 171  ASP171     -0.2456
    189  N         73.9140  -21.0000  -13.1930 N.am  172  PHE172     -0.1960
    190  CA        73.8590  -20.6510  -11.7870 C.3   172  PHE172      0.1771
    191  C         74.7500  -19.4510  -11.4720 C.2   172  PHE172      0.2620
    192  O         74.4910  -18.7460  -10.5160 O.2   172  PHE172     -0.2715
    193  CB        74.2170  -21.8810  -10.8900 C.3   172  PHE172      0.0574
    194  CG        75.5590  -22.4980  -11.1680 C.ar  172  PHE172     -0.0200
    195  CD1       76.7150  -22.0230  -10.5290 C.ar  172  PHE172     -0.0042
    196  CD2       75.6710  -23.5400  -12.0450 C.ar  172  PHE172     -0.0042
    197  CE1       77.9270  -22.6060  -10.7670 C.ar  172  PHE172     -0.0003
    198  CE2       76.8910  -24.1230  -12.3070 C.ar  172  PHE172     -0.0003
    199  CZ        78.0200  -23.6760  -11.6460 C.ar  172  PHE172     -0.0000
    200  N         75.8250  -19.2460  -12.2230 N.am  173  GLY173     -0.1954
    201  CA        76.7960  -18.1840  -11.9020 C.3   173  GLY173      0.1869
    202  C         76.3780  -16.7550  -12.2420 C.2   173  GLY173      0.2309
    203  O         77.1230  -15.8300  -11.8980 O.2   173  GLY173     -0.2863
@<TRIPOS>BOND
     1     5     2    1
     2     5     6    1
     3     7     6    1
     4     7     8    1
     5     2     1    1
     6     2     3    1
     7     8     9    1
     8     3     4    2
     9    36    34    1
    10    10    11    1
    11    32    31    2
    12    33    34    1
    13    33    30    1
    14    11    12    1
    15    11    14    1
    16    34    35    1
    17    12    13    2
    18    12    18   am
    19    31    30    1
    20    29    30    1
    21    18    19    1
    22    19    20    1
    23    25    24    2
    24    45    44    1
    25    17    15    1
    26    15    14    1
    27    15    16    1
    28    20    21    2
    29    24    23    1
    30    42    43    1
    31    42    41    1
    32    43    44    1
    33   167   165   ar
    34    22    23    1
    35    23    26    1
    36    41    38    1
    37   165   166   ar
    38   165   164    1
    39   144   143    2
    40    38    37    1
    41    38    39    1
    42    49    48    2
    43   164   163    1
    44    61    60    2
    45    28    26    1
    46    62    64    1
    47    62    63    1
    48    62    59    1
    49    26    27    1
    50   145   142    1
    51   145   146    1
    52    46    39   am
    53    46    47    1
    54   163   160    1
    55   143   142    1
    56   135   134    1
    57    39    40    2
    58   142   141    1
    59   162   161    2
    60    48    47    1
    61    48    53   am
    62    58    59    1
    63    58    55   am
    64    52    50    1
    65    60    59    1
    66    60    65   am
    67   160   161    1
    68   160   159    1
    69    54    55    1
    70    54    53    1
    71    54    57    1
    72   148   147    1
    73   148   149    1
    74    47    50    1
    75    55    56    2
    76    67    66    1
    77    67    68    2
    78   134   131    1
    79   139   138    2
    80    66    65    1
    81    66    69    1
    82    50    51    1
    83   141   138   am
    84   158   156   am
    85   138   137    1
    86   151   149   am
    87   151   152    1
    88   149   150    2
    89   156   157    2
    90   156   155    1
    91   131   132    1
    92   131   130    1
    93    69    70    1
    94    70    71    1
    95   136   132   am
    96   136   137    1
    97   154   153    2
    98   132   133    2
    99    71    72    1
   100   137   140    1
   101   107   108    1
   102   155   152    1
   103   152   153    1
   104   110   109    2
   105    81    79    1
   106   130   123   am
   107   117   116    2
   108   109   108    1
   109   175   173    1
   110   123   124    2
   111   123   122    1
   112    72    73    1
   113   108   111    1
   114   174   173    1
   115   114   115    1
   116    79    80    1
   117    79    78    1
   118   116   115    1
   119   116   121   am
   120   120   118    1
   121   173   172    1
   122   111   113    1
   123   111   112    1
   124    78    75    1
   125   122   121    1
   126   122   125    1
   127   172   169    1
   128   115   118    1
   129   188   186   ar
   130   118   119    1
   131   169   170    1
   132   169   168    1
   133   187   186   ar
   134   170   171    2
   135   125   126    1
   136   186   185    1
   137    75    74    1
   138    75    76    1
   139   106   104    1
   140    89    88   ar
   141   126   127    1
   142    90    88   ar
   143   180   177    1
   144   105   103    1
   145    76    77    2
   146    88    87    1
   147   104   103    1
   148   185   182    1
   149   103   100    1
   150   127   129   ar
   151   127   128   ar
   152   177   178    1
   153   177   176    1
   154   181   182    1
   155   181   178   am
   156   182   183    1
   157    87    86    1
   158   178   179    2
   159    86    83    1
   160   100   101    1
   161   100    99    1
   162    97    98    1
   163    97    96    1
   164   101   102    2
   165   183   184    2
   166   183   189   am
   167    83    82    1
   168    83    84    1
   169    84    85    2
   170   189   190    1
   171    96    95    1
   172   198   196   ar
   173   198   199   ar
   174   202   201    1
   175   202   203    2
   176   200   201    1
   177   200   191   am
   178    95    92    1
   179   196   194   ar
   180   190   191    1
   181   190   193    1
   182   199   197   ar
   183   191   192    2
   184   194   193    1
   185   194   195   ar
   186   197   195   ar
   187    92    91    1
   188    92    93    1
   189    93    94    2
