@<TRIPOS>MOLECULE
tmp/5vnlB00.pdb
 104 95 0 0 0
SMALL
GASTEIGER

@<TRIPOS>ATOM
      1  N        -36.6830  -61.5350   59.1350 N.3    85  ARG85      -0.1245
      2  CA       -37.0060  -60.9670   57.8340 C.3    85  ARG85       0.1563
      3  C        -38.5020  -61.0950   57.6000 C.2    85  ARG85       0.2260
      4  O        -39.1180  -62.0770   58.0220 O.2    85  ARG85      -0.2867
      5  CB       -36.2290  -61.6700   56.7120 C.3    85  ARG85       0.0307
      6  CG       -34.7200  -61.6590   56.8970 C.3    85  ARG85       0.0489
      7  CD       -34.0160  -62.3870   55.7650 C.3    85  ARG85       0.2205
      8  NE       -34.1650  -61.6830   54.4950 N.pl3  85  ARG85      -0.0865
      9  CZ       -33.5840  -62.0570   53.3600 C.cat  85  ARG85       0.5346
     10  NH1      -32.8110  -63.1350   53.3300 N.pl3  85  ARG85       0.1354
     11  NH2      -33.7780  -61.3540   52.2540 N.pl3  85  ARG85       0.1354
     12  N        -39.1500  -60.4860   52.3190 N.3    90  ARG90      -0.1245
     13  CA       -37.8230  -60.8150   52.8410 C.3    90  ARG90       0.1563
     14  C        -37.0270  -59.5820   53.2760 C.2    90  ARG90       0.2260
     15  O        -35.7950  -59.6290   53.3390 O.2    90  ARG90      -0.2867
     16  CB       -37.0090  -61.6320   51.8270 C.3    90  ARG90       0.0307
     17  CG       -37.7110  -62.8720   51.2790 C.3    90  ARG90       0.0489
     18  CD       -38.2910  -63.7490   52.3830 C.3    90  ARG90       0.2205
     19  NE       -37.3760  -63.9450   53.5070 N.pl3  90  ARG90      -0.0865
     20  CZ       -36.4570  -64.9030   53.5750 C.cat  90  ARG90       0.5346
     21  NH1      -36.3120  -65.7600   52.5740 N.pl3  90  ARG90       0.1354
     22  NH2      -35.6780  -64.9990   54.6440 N.pl3  90  ARG90       0.1354
     23  N        -35.2550  -57.1470   55.7740 N.3    92  TYR92      -0.1241
     24  CA       -34.6710  -57.3190   57.0980 C.3    92  TYR92       0.1605
     25  C        -35.2930  -56.3460   58.0930 C.2    92  TYR92       0.2264
     26  O        -35.5620  -55.1860   57.7650 O.2    92  TYR92      -0.2867
     27  CB       -33.1600  -57.1160   57.0440 C.3    92  TYR92       0.0534
     28  CG       -32.4470  -58.1560   56.2210 C.ar   92  TYR92      -0.0201
     29  CD1      -32.3280  -58.0250   54.8420 C.ar   92  TYR92      -0.0009
     30  CD2      -31.8930  -59.2720   56.8220 C.ar   92  TYR92      -0.0009
     31  CE1      -31.6740  -58.9810   54.0880 C.ar   92  TYR92       0.0417
     32  CE2      -31.2390  -60.2290   56.0790 C.ar   92  TYR92       0.0417
     33  CZ       -31.1320  -60.0820   54.7170 C.ar   92  TYR92       0.1957
     34  OH       -30.4770  -61.0490   53.9940 O.3    92  TYR92      -0.2866
     35  N        -27.6400  -69.2730   53.3340 N.3   142  TYR142     -0.1241
     36  CA       -27.3380  -68.0990   52.5280 C.3   142  TYR142      0.1605
     37  C        -26.0550  -68.2630   51.7180 C.2   142  TYR142      0.2264
     38  O        -25.4620  -67.2610   51.3010 O.2   142  TYR142     -0.2867
     39  CB       -27.2490  -66.8510   53.4120 C.3   142  TYR142      0.0534
     40  CG       -28.5750  -66.3660   53.9680 C.ar  142  TYR142     -0.0201
     41  CD1      -29.5380  -67.2630   54.4140 C.ar  142  TYR142     -0.0009
     42  CD2      -28.8630  -65.0110   54.0470 C.ar  142  TYR142     -0.0009
     43  CE1      -30.7410  -66.8290   54.9250 C.ar  142  TYR142      0.0417
     44  CE2      -30.0680  -64.5650   54.5620 C.ar  142  TYR142      0.0417
     45  CZ       -31.0010  -65.4790   54.9980 C.ar  142  TYR142      0.1957
     46  OH       -32.2030  -65.0500   55.5080 O.3   142  TYR142     -0.2866
     47  N        -23.6840  -60.7230   46.3380 N.3   391  VAL391     -0.1245
     48  CA       -24.8390  -60.2170   45.6380 C.3   391  VAL391      0.1561
     49  C        -25.5040  -59.1490   46.4350 C.2   391  VAL391      0.2260
     50  O        -25.4600  -59.1420   47.5940 O.2   391  VAL391     -0.2867
     51  CB       -25.8980  -61.2350   45.3200 C.3   391  VAL391      0.0252
     52  CG1      -25.3850  -62.2860   44.4040 C.3   391  VAL391      0.0019
     53  CG2      -26.4150  -61.8550   46.5570 C.3   391  VAL391      0.0019
     54  N        -29.1850  -56.7910   46.8090 N.3   393  ARG393     -0.1245
     55  CA       -30.5720  -56.5150   46.4690 C.3   393  ARG393      0.1563
     56  C        -30.9290  -55.1250   46.9740 C.2   393  ARG393      0.2260
     57  O        -30.5300  -54.7370   48.0770 O.2   393  ARG393     -0.2867
     58  CB       -31.5090  -57.5630   47.0790 C.3   393  ARG393      0.0307
     59  CG       -32.9920  -57.3350   46.7980 C.3   393  ARG393      0.0489
     60  CD       -33.5260  -58.3380   45.7870 C.3   393  ARG393      0.2205
     61  NE       -33.1890  -59.7180   46.1270 N.pl3 393  ARG393     -0.0865
     62  CZ       -33.3500  -60.7480   45.3010 C.cat 393  ARG393      0.5346
     63  NH1      -33.8410  -60.5400   44.0850 N.pl3 393  ARG393      0.1354
     64  NH2      -33.0190  -61.9790   45.6830 N.pl3 393  ARG393      0.1354
     65  N        -34.1680  -52.9830   47.8150 N.3   395  ARG395     -0.1245
     66  CA       -35.6040  -52.9980   48.0350 C.3   395  ARG395      0.1563
     67  C        -36.0990  -51.5930   48.3510 C.2   395  ARG395      0.2260
     68  O        -35.3750  -50.7750   48.9250 O.2   395  ARG395     -0.2867
     69  CB       -35.9840  -53.9470   49.1790 C.3   395  ARG395      0.0307
     70  CG       -35.8070  -55.4250   48.8880 C.3   395  ARG395      0.0489
     71  CD       -36.2770  -56.2570   50.0790 C.3   395  ARG395      0.2205
     72  NE       -36.0750  -57.6880   49.8720 N.pl3 395  ARG395     -0.0865
     73  CZ       -34.9310  -58.3210   50.1210 C.cat 395  ARG395      0.5346
     74  NH1      -33.8860  -57.6460   50.5860 N.pl3 395  ARG395      0.1354
     75  NH2      -34.8290  -59.6260   49.9020 N.pl3 395  ARG395      0.1354
     76  N        -31.6140  -58.6290   40.9120 N.3   416  LEU416     -0.1245
     77  CA       -30.4700  -59.1350   41.6770 C.3   416  LEU416      0.1561
     78  C        -29.0870  -58.7690   41.1400 C.2   416  LEU416      0.2260
     79  O        -28.7830  -59.0070   40.0360 O.2   416  LEU416     -0.2867
     80  CB       -30.6170  -60.6080   41.9150 C.3   416  LEU416      0.0270
     81  CG       -29.6640  -60.9770   42.9990 C.3   416  LEU416      0.0019
     82  CD1      -30.1340  -60.4000   44.2750 C.3   416  LEU416      0.0001
     83  CD2      -29.5620  -62.4460   43.1410 C.3   416  LEU416      0.0001
     84  N        -29.0040  -54.6350   50.7540 N.3   449  ALA449     -0.1245
     85  CA       -28.4440  -55.7060   51.5590 C.3   449  ALA449      0.1562
     86  C        -27.3780  -56.4080   50.7380 C.2   449  ALA449      0.2260
     87  O        -27.6160  -56.7850   49.5850 O.2   449  ALA449     -0.2867
     88  CB       -29.5340  -56.6750   52.0230 C.3   449  ALA449      0.0290
     89  N        -24.8510  -59.4770   50.6010 N.3   451  LEU451     -0.1245
     90  CA       -24.3930  -60.7950   51.0220 C.3   451  LEU451      0.1561
     91  C        -23.0370  -61.0670   50.3850 C.2   451  LEU451      0.2260
     92  O        -22.8920  -60.9510   49.1660 O.2   451  LEU451     -0.2867
     93  CB       -25.3980  -61.8720   50.6140 C.3   451  LEU451      0.0270
     94  CG       -25.0580  -63.3400   50.8610 C.3   451  LEU451      0.0019
     95  CD1      -24.9120  -63.6210   52.3500 C.3   451  LEU451      0.0001
     96  CD2      -26.1190  -64.2360   50.2360 C.3   451  LEU451      0.0001
     97  N        -23.8620  -60.3750   55.8860 N.3   461  ILE461     -0.1245
     98  CA       -24.8430  -59.5280   55.2200 C.3   461  ILE461      0.1561
     99  C        -24.7320  -58.1370   55.8230 C.2   461  ILE461      0.2260
    100  O        -24.9510  -57.9630   57.0270 O.2   461  ILE461     -0.2867
    101  CB       -26.2750  -60.0630   55.3750 C.3   461  ILE461      0.0252
    102  CG1      -26.3170  -61.5800   55.2000 C.3   461  ILE461      0.0019
    103  CG2      -27.2040  -59.3810   54.3780 C.3   461  ILE461      0.0019
    104  CD1      -27.6570  -62.1700   55.5530 C.3   461  ILE461      0.0001
@<TRIPOS>BOND
     1    79    78    2
     2    76    77    1
     3    78    77    1
     4    77    80    1
     5    80    81    1
     6    81    83    1
     7    81    82    1
     8    63    62    1
     9    52    51    1
    10    62    64    1
    11    62    61    2
    12    51    48    1
    13    51    53    1
    14    48    47    1
    15    48    49    1
    16    60    61    1
    17    60    59    1
    18    49    50    2
    19    55    54    1
    20    55    56    1
    21    55    58    1
    22    59    58    1
    23    56    57    2
    24    65    66    1
    25    66    67    1
    26    66    69    1
    27    67    68    2
    28    70    69    1
    29    70    71    1
    30    92    91    2
    31    87    86    2
    32    72    71    1
    33    72    73    2
    34    75    73    1
    35    73    74    1
    36    96    94    1
    37    91    90    1
    38    89    90    1
    39    93    94    1
    40    93    90    1
    41    86    85    1
    42    84    85    1
    43    94    95    1
    44    17    16    1
    45    17    18    1
    46    38    37    2
    47    85    88    1
    48    37    36    1
    49    16    13    1
    50    11     9    1
    51    12    13    1
    52    18    19    1
    53    36    35    1
    54    36    39    1
    55    21    20    1
    56    13    14    1
    57    14    15    2
    58    10     9    1
    59     9     8    2
    60    39    40    1
    61    19    20    2
    62    20    22    1
    63    40    42   ar
    64    40    41   ar
    65    34    33    1
    66    42    44   ar
    67    31    33   ar
    68    31    29   ar
    69   103   101    1
    70    41    43   ar
    71     8     7    1
    72    44    45   ar
    73    33    32   ar
    74    29    28   ar
    75    43    45   ar
    76    45    46    1
    77   102   101    1
    78   102   104    1
    79    98   101    1
    80    98    99    1
    81    98    97    1
    82     7     6    1
    83    23    24    1
    84    99   100    2
    85    32    30   ar
    86    28    30   ar
    87    28    27    1
    88     5     6    1
    89     5     2    1
    90    27    24    1
    91    24    25    1
    92     3     2    1
    93     3     4    2
    94    26    25    2
    95     2     1    1
