@<TRIPOS>MOLECULE
tmp/5vnpB00.pdb
 191 187 0 0 0
SMALL
GASTEIGER

@<TRIPOS>ATOM
      1  N        -25.7300    7.5440  -37.4260 N.3    38  ASN38      -0.1226
      2  CA       -26.5890    8.0770  -38.4860 C.3    38  ASN38       0.1770
      3  C        -25.8900    9.1800  -39.2890 C.2    38  ASN38       0.2439
      4  O        -25.3220   10.0950  -38.6920 O.2    38  ASN38      -0.2733
      5  CB       -27.8590    8.6480  -37.8500 C.3    38  ASN38       0.1168
      6  CG       -28.9410    8.9560  -38.8660 C.2    38  ASN38       0.2627
      7  OD1      -29.1630    8.1940  -39.8040 O.2    38  ASN38      -0.2716
      8  ND2      -29.6320   10.0740  -38.6740 N.am   38  ASN38      -0.0877
      9  N        -25.9480    9.1230  -40.6380 N.am   39  PRO39      -0.2729
     10  CA       -26.5760    8.1690  -41.5460 C.3    39  PRO39       0.1401
     11  C        -25.5630    7.2450  -42.2250 C.2    39  PRO39       0.2269
     12  O        -25.6370    7.0340  -43.4360 O.2    39  PRO39      -0.2865
     13  CB       -27.1920    9.0990  -42.5850 C.3    39  PRO39       0.0296
     14  CG       -26.1370   10.1460  -42.7480 C.3    39  PRO39       0.0237
     15  CD       -25.4600   10.2900  -41.4010 C.3    39  PRO39       0.0939
     16  N        -21.2950    8.6830  -32.7220 N.3   103  ASP103     -0.1225
     17  CA       -22.6740    9.1310  -32.9560 C.3   103  ASP103      0.1805
     18  C        -23.6660    8.2150  -32.2120 C.2   103  ASP103      0.2597
     19  O        -23.4530    7.9320  -31.0360 O.2   103  ASP103     -0.2718
     20  CB       -22.9420    9.2070  -34.4670 C.3   103  ASP103      0.1424
     21  CG       -24.2380    9.9070  -34.7980 C.2   103  ASP103      0.3668
     22  OD1      -25.0370    9.3830  -35.5480 O.co2 103  ASP103     -0.2456
     23  OD2      -24.5210   11.1870  -34.2010 O.co2 103  ASP103     -0.2456
     24  N        -24.7190    7.7310  -32.8750 N.am  104  TRP104     -0.1976
     25  CA       -25.6690    6.8110  -32.2390 C.3   104  TRP104      0.1640
     26  C        -25.0490    5.4520  -31.8970 C.2   104  TRP104      0.2290
     27  O        -25.5660    4.7320  -31.0460 O.2   104  TRP104     -0.2864
     28  CB       -26.9200    6.6330  -33.1080 C.3   104  TRP104      0.0576
     29  CG       -27.8760    7.7710  -32.9580 C.ar  104  TRP104      0.0006
     30  CD1      -28.1040    8.7770  -33.8500 C.ar  104  TRP104      0.0946
     31  CD2      -28.7230    8.0300  -31.8330 C.ar  104  TRP104      0.0152
     32  NE1      -29.0500    9.6440  -33.3520 N.ar  104  TRP104     -0.2442
     33  CE2      -29.4450    9.2090  -32.1150 C.ar  104  TRP104      0.0810
     34  CE3      -28.9450    7.3760  -30.6140 C.ar  104  TRP104      0.0012
     35  CZ2      -30.3750    9.7480  -31.2210 C.ar  104  TRP104      0.0191
     36  CZ3      -29.8680    7.9140  -29.7270 C.ar  104  TRP104      0.0001
     37  CH2      -30.5720    9.0880  -30.0370 C.ar  104  TRP104      0.0015
     38  N        -26.6080   23.6690  -29.3030 N.3   138  TRP138     -0.1241
     39  CA       -26.5000   23.0590  -30.6240 C.3   138  TRP138      0.1605
     40  C        -25.8520   24.0780  -31.5700 C.2   138  TRP138      0.2264
     41  O        -26.1330   25.2750  -31.4630 O.2   138  TRP138     -0.2867
     42  CB       -27.8910   22.6690  -31.1290 C.3   138  TRP138      0.0550
     43  CG       -27.8770   21.7550  -32.3070 C.ar  138  TRP138      0.0003
     44  CD1      -28.0660   22.0970  -33.6130 C.ar  138  TRP138      0.0946
     45  CD2      -27.6620   20.3390  -32.2900 C.ar  138  TRP138      0.0152
     46  NE1      -27.9820   20.9830  -34.4140 N.ar  138  TRP138     -0.2442
     47  CE2      -27.7340   19.8900  -33.6270 C.ar  138  TRP138      0.0810
     48  CE3      -27.4170   19.4070  -31.2760 C.ar  138  TRP138      0.0012
     49  CZ2      -27.5680   18.5470  -33.9760 C.ar  138  TRP138      0.0191
     50  CZ3      -27.2520   18.0730  -31.6230 C.ar  138  TRP138      0.0001
     51  CH2      -27.3280   17.6570  -32.9630 C.ar  138  TRP138      0.0015
     52  N        -25.2480   26.8280  -37.1730 N.3   141  PHE141     -0.1227
     53  CA       -25.3980   26.4180  -38.5770 C.3   141  PHE141      0.1736
     54  C        -26.3170   25.2070  -38.7770 C.2   141  PHE141      0.2595
     55  O        -26.8780   25.0290  -39.8600 O.2   141  PHE141     -0.2718
     56  CB       -24.0300   26.1650  -39.2430 C.3   141  PHE141      0.0547
     57  CG       -23.1670   25.1520  -38.5310 C.ar  141  PHE141     -0.0202
     58  CD1      -22.1090   25.5650  -37.7270 C.ar  141  PHE141     -0.0042
     59  CD2      -23.3940   23.7880  -38.6820 C.ar  141  PHE141     -0.0042
     60  CE1      -21.3060   24.6390  -37.0770 C.ar  141  PHE141     -0.0003
     61  CE2      -22.5970   22.8590  -38.0330 C.ar  141  PHE141     -0.0003
     62  CZ       -21.5500   23.2850  -37.2300 C.ar  141  PHE141     -0.0000
     63  N        -26.4660   24.3840  -37.7390 N.am  142  ALA142     -0.1980
     64  CA       -27.2800   23.1700  -37.8020 C.3   142  ALA142      0.1597
     65  C        -28.5910   23.2640  -37.0060 C.2   142  ALA142      0.2287
     66  O        -29.3050   22.2690  -36.8770 O.2   142  ALA142     -0.2864
     67  CB       -26.4570   21.9930  -37.3010 C.3   142  ALA142      0.0319
     68  N        -32.2500   23.5230  -39.2110 N.3   145  THR145     -0.1203
     69  CA       -32.4360   22.2560  -39.9290 C.3   145  THR145      0.1994
     70  C        -32.8240   21.0940  -39.0020 C.2   145  THR145      0.2617
     71  O        -33.7280   20.3260  -39.3280 O.2   145  THR145     -0.2717
     72  CB       -31.2010   21.8810  -40.7940 C.3   145  THR145      0.1784
     73  OG1      -31.4430   20.6410  -41.4720 O.3   145  THR145     -0.2211
     74  CG2      -29.9310   21.7450  -39.9610 C.3   145  THR145      0.0376
     75  N        -32.1650   20.9720  -37.8520 N.am  146  PHE146     -0.1975
     76  CA       -32.4580   19.8670  -36.9300 C.3   146  PHE146      0.1639
     77  C        -33.7790   20.0550  -36.1880 C.2   146  PHE146      0.2290
     78  O        -34.4330   19.0750  -35.8390 O.2   146  PHE146     -0.2864
     79  CB       -31.3060   19.6250  -35.9460 C.3   146  PHE146      0.0560
     80  CG       -30.3380   18.5730  -36.4060 C.ar  146  PHE146     -0.0200
     81  CD1      -29.3180   18.8870  -37.2930 C.ar  146  PHE146     -0.0042
     82  CD2      -30.4590   17.2640  -35.9660 C.ar  146  PHE146     -0.0042
     83  CE1      -28.4290   17.9170  -37.7260 C.ar  146  PHE146     -0.0003
     84  CE2      -29.5740   16.2880  -36.3940 C.ar  146  PHE146     -0.0003
     85  CZ       -28.5580   16.6150  -37.2760 C.ar  146  PHE146     -0.0000
     86  N        -37.1070   13.7800  -49.7460 N.3   162  GLN162     -0.1245
     87  CA       -36.0080   14.4600  -50.4440 C.3   162  GLN162      0.1566
     88  C        -34.6130   13.9000  -50.1190 C.2   162  GLN162      0.2260
     89  O        -33.6370   14.2700  -50.7710 O.2   162  GLN162     -0.2867
     90  CB       -36.0460   15.9620  -50.1430 C.3   162  GLN162      0.0367
     91  CG       -37.3170   16.6560  -50.6100 C.3   162  GLN162      0.0905
     92  CD       -37.3480   18.1340  -50.2610 C.2   162  GLN162      0.2608
     93  OE1      -36.3250   18.7280  -49.9230 O.2   162  GLN162     -0.2717
     94  NE2      -38.5290   18.7350  -50.3420 N.am  162  GLN162     -0.0878
     95  N        -32.6270   14.4180  -47.5500 N.3   164  VAL164     -0.1231
     96  CA       -31.7540   15.5280  -47.1510 C.3   164  VAL164      0.1692
     97  C        -30.6370   15.0970  -46.1970 C.2   164  VAL164      0.2592
     98  O        -29.5340   15.6390  -46.2570 O.2   164  VAL164     -0.2718
     99  CB       -32.5680   16.6880  -46.5250 C.3   164  VAL164      0.0266
    100  CG1      -31.6620   17.7270  -45.8740 C.3   164  VAL164      0.0020
    101  CG2      -33.4390   17.3510  -47.5850 C.3   164  VAL164      0.0020
    102  N        -30.9110   14.1230  -45.3330 N.am  165  PHE165     -0.1976
    103  CA       -29.9120   13.6830  -44.3560 C.3   165  PHE165      0.1639
    104  C        -28.6880   13.0620  -45.0410 C.2   165  PHE165      0.2290
    105  O        -27.5600   13.2530  -44.5860 O.2   165  PHE165     -0.2864
    106  CB       -30.5140   12.7040  -43.3360 C.3   165  PHE165      0.0560
    107  CG       -29.9940   12.8960  -41.9330 C.ar  165  PHE165     -0.0200
    108  CD1      -28.6850   12.5730  -41.6120 C.ar  165  PHE165     -0.0042
    109  CD2      -30.8170   13.3970  -40.9330 C.ar  165  PHE165     -0.0042
    110  CE1      -28.2030   12.7480  -40.3250 C.ar  165  PHE165     -0.0003
    111  CE2      -30.3420   13.5720  -39.6440 C.ar  165  PHE165     -0.0003
    112  CZ       -29.0320   13.2490  -39.3400 C.ar  165  PHE165     -0.0000
    113  N        -28.0190   13.4260  -48.6480 N.3   167  GLU167     -0.1231
    114  CA       -27.5170   14.3370  -49.6820 C.3   167  GLU167      0.1699
    115  C        -26.9650   15.6460  -49.1180 C.2   167  GLU167      0.2593
    116  O        -26.0210   16.2080  -49.6700 O.2   167  GLU167     -0.2718
    117  CB       -28.6110   14.6430  -50.7150 C.3   167  GLU167      0.0402
    118  CG       -29.0360   13.4420  -51.5490 C.3   167  GLU167      0.1161
    119  CD       -27.9400   12.9270  -52.4700 C.2   167  GLU167      0.3649
    120  OE1      -27.0290   13.6990  -52.8340 O.co2 167  GLU167     -0.2457
    121  OE2      -27.9930   11.7370  -52.8430 O.co2 167  GLU167     -0.2457
    122  N        -27.5490   16.1200  -48.0220 N.am  168  GLY168     -0.1942
    123  CA       -27.1760   17.4040  -47.4360 C.3   168  GLY168      0.2014
    124  C        -26.4220   17.2790  -46.1280 C.2   168  GLY168      0.2640
    125  O        -25.2670   17.6830  -46.0290 O.2   168  GLY168     -0.2714
    126  N        -27.0800   16.7130  -45.1210 N.am  169  THR169     -0.1936
    127  CA       -26.5360   16.6740  -43.7640 C.3   169  THR169      0.2028
    128  C        -25.2110   15.9020  -43.6610 C.2   169  THR169      0.2642
    129  O        -24.3030   16.3230  -42.9410 O.2   169  THR169     -0.2714
    130  CB       -27.5660   16.0770  -42.7810 C.3   169  THR169      0.1808
    131  OG1      -28.8230   16.7570  -42.9280 O.3   169  THR169     -0.2208
    132  CG2      -27.0920   16.2000  -41.3460 C.3   169  THR169      0.0379
    133  N        -25.1060   14.7880  -44.3870 N.am  170  LEU170     -0.1977
    134  CA       -23.9030   13.9370  -44.3630 C.3   170  LEU170      0.1596
    135  C        -22.6250   14.6480  -44.8420 C.2   170  LEU170      0.2287
    136  O        -21.6430   14.6960  -44.0980 O.2   170  LEU170     -0.2864
    137  CB       -24.1390   12.6440  -45.1570 C.3   170  LEU170      0.0297
    138  CG       -22.9340   11.7720  -45.5250 C.3   170  LEU170      0.0022
    139  CD1      -22.2950   11.1760  -44.2810 C.3   170  LEU170      0.0001
    140  CD2      -23.3470   10.6710  -46.4900 C.3   170  LEU170      0.0001
    141  N        -22.1640   17.7720  -45.0850 N.3   172  MET172     -0.1230
    142  CA       -21.9910   18.9220  -44.2050 C.3   172  MET172      0.1702
    143  C        -21.4720   18.5360  -42.8120 C.2   172  MET172      0.2592
    144  O        -21.1700   19.4110  -42.0030 O.2   172  MET172     -0.2718
    145  CB       -23.3010   19.7020  -44.0970 C.3   172  MET172      0.0401
    146  CG       -23.7710   20.2800  -45.4270 C.3   172  MET172      0.0596
    147  SD       -22.6630   21.5120  -46.1280 S.3   172  MET172     -0.1393
    148  CE       -22.9800   22.8840  -45.0180 C.3   172  MET172      0.0692
    149  N        -21.3770   17.2340  -42.5400 N.am  173  GLY173     -0.1957
    150  CA       -20.7130   16.7210  -41.3410 C.3   173  GLY173      0.1869
    151  C        -19.2490   16.3500  -41.5430 C.2   173  GLY173      0.2309
    152  O        -18.5960   15.8870  -40.6090 O.2   173  GLY173     -0.2863
    153  N        -32.7010   12.2090  -30.5190 N.3   206  LEU206     -0.1245
    154  CA       -31.6090   12.9780  -29.9110 C.3   206  LEU206      0.1561
    155  C        -32.0740   13.6820  -28.6360 C.2   206  LEU206      0.2260
    156  O        -33.1310   14.3100  -28.6370 O.2   206  LEU206     -0.2867
    157  CB       -31.0610   14.0200  -30.8920 C.3   206  LEU206      0.0270
    158  CG       -30.2520   13.5100  -32.0860 C.3   206  LEU206      0.0019
    159  CD1      -30.0790   14.6220  -33.1080 C.3   206  LEU206      0.0001
    160  CD2      -28.8940   12.9740  -31.6520 C.3   206  LEU206      0.0001
    161  N        -19.5210   19.1120  -33.7200 N.3   242  VAL242     -0.1231
    162  CA       -20.9750   19.2580  -33.8390 C.3   242  VAL242      0.1692
    163  C        -21.6360   18.8730  -32.5110 C.2   242  VAL242      0.2591
    164  O        -22.1990   19.7280  -31.8290 O.2   242  VAL242     -0.2718
    165  CB       -21.5500   18.4160  -35.0060 C.3   242  VAL242      0.0266
    166  CG1      -23.0760   18.4220  -34.9880 C.3   242  VAL242      0.0020
    167  CG2      -21.0390   18.9300  -36.3470 C.3   242  VAL242      0.0020
    168  N        -21.5670   17.5920  -32.1550 N.am  243  LEU243     -0.1980
    169  CA       -22.0820   17.1070  -30.8720 C.3   243  LEU243      0.1596
    170  C        -21.1620   17.4650  -29.7100 C.2   243  LEU243      0.2287
    171  O        -21.6320   17.7050  -28.5950 O.2   243  LEU243     -0.2864
    172  CB       -22.2810   15.5870  -30.9050 C.3   243  LEU243      0.0297
    173  CG       -23.3460   15.0490  -31.8630 C.3   243  LEU243      0.0022
    174  CD1      -23.4280   13.5340  -31.7490 C.3   243  LEU243      0.0001
    175  CD2      -24.7030   15.6820  -31.5900 C.3   243  LEU243      0.0001
    176  N        -18.6990   16.2290  -37.6040 N.3   269  ASN269     -0.1225
    177  CA       -19.2630   15.0100  -37.0090 C.3   269  ASN269      0.1785
    178  C        -18.5030   13.7540  -37.4200 C.2   269  ASN269      0.2597
    179  O        -18.0440   12.9930  -36.5670 O.2   269  ASN269     -0.2718
    180  CB       -20.7390   14.8460  -37.3730 C.3   269  ASN269      0.1169
    181  CG       -21.3740   13.6450  -36.6900 C.2   269  ASN269      0.2627
    182  OD1      -21.4220   13.5700  -35.4640 O.2   269  ASN269     -0.2716
    183  ND2      -21.8640   12.7020  -37.4810 N.am  269  ASN269     -0.0877
    184  N        -18.3850   13.5340  -38.7260 N.am  270  LEU270     -0.1980
    185  CA       -17.7060   12.3530  -39.2500 C.3   270  LEU270      0.1596
    186  C        -16.1950   12.5630  -39.2260 C.2   270  LEU270      0.2287
    187  O        -15.5620   12.7280  -40.2720 O.2   270  LEU270     -0.2864
    188  CB       -18.1820   12.0280  -40.6740 C.3   270  LEU270      0.0297
    189  CG       -19.5740   11.4050  -40.8250 C.3   270  LEU270      0.0022
    190  CD1      -20.6760   12.4490  -40.7070 C.3   270  LEU270      0.0001
    191  CD2      -19.6870   10.6830  -42.1580 C.3   270  LEU270      0.0001
@<TRIPOS>BOND
     1   121   119   ar
     2   120   119   ar
     3   119   118    1
     4   118   117    1
     5    89    88    2
     6   117   114    1
     7    91    92    1
     8    91    90    1
     9    87    90    1
    10    87    88    1
    11    87    86    1
    12    94    92   am
    13    92    93    2
    14   114   115    1
    15   114   113    1
    16   116   115    2
    17   115   122   am
    18   122   123    1
    19   101    99    1
    20    95    96    1
    21   123   124    1
    22    96    99    1
    23    96    97    1
    24    99   100    1
    25   140   138    1
    26    98    97    2
    27    97   102   am
    28   124   125    2
    29   124   126   am
    30   147   146    1
    31   147   148    1
    32   138   137    1
    33   138   139    1
    34   146   145    1
    35   102   103    1
    36   137   134    1
    37   126   127    1
    38   141   142    1
    39   104   105    2
    40   104   103    1
    41   135   134    1
    42   135   136    2
    43   133   134    1
    44   133   128   am
    45   103   106    1
    46   142   145    1
    47   142   143    1
    48   127   128    1
    49   127   130    1
    50   128   129    2
    51    12    11    2
    52   106   107    1
    53   131   130    1
    54   143   149   am
    55   143   144    2
    56   130   132    1
    57    14    13    1
    58    14    15    1
    59    13    10    1
    60   149   150    1
    61    11    10    1
    62   191   189    1
    63   107   108   ar
    64   107   109   ar
    65   108   110   ar
    66    10     9    1
    67   151   150    1
    68   151   152    2
    69    73    72    1
    70    15     9    1
    71   109   111   ar
    72   189   190    1
    73   189   188    1
    74    72    74    1
    75    72    69    1
    76   188   185    1
    77     9     3   am
    78   110   112   ar
    79   187   186    2
    80    69    68    1
    81    69    70    1
    82    55    54    2
    83     7     6    2
    84   111   112   ar
    85    71    70    2
    86     3     4    2
    87     3     2    1
    88   185   186    1
    89   185   184    1
    90    56    53    1
    91    56    57    1
    92    70    75   am
    93     6     8   am
    94     6     5    1
    95    54    53    1
    96    54    63   am
    97   184   178   am
    98    59    57   ar
    99    59    61   ar
   100    53    52    1
   101    57    58   ar
   102     2     5    1
   103     2     1    1
   104    61    62   ar
   105    75    76    1
   106    64    63    1
   107    64    67    1
   108    64    65    1
   109    58    60   ar
   110    83    81   ar
   111    83    85   ar
   112   176   177    1
   113   183   181   am
   114   178   177    1
   115   178   179    2
   116   180   177    1
   117   180   181    1
   118    81    80   ar
   119    85    84   ar
   120    62    60   ar
   121    65    66    2
   122    76    77    1
   123    76    79    1
   124   181   182    2
   125    80    82   ar
   126    80    79    1
   127    84    82   ar
   128   167   165    1
   129    77    78    2
   130    22    21   ar
   131   165   166    1
   132   165   162    1
   133    21    20    1
   134    21    23   ar
   135    20    17    1
   136    46    47   ar
   137    46    44   ar
   138    49    47   ar
   139    49    51   ar
   140    30    32   ar
   141    30    29   ar
   142   162   161    1
   143   162   163    1
   144    47    45   ar
   145    44    43   ar
   146    32    33   ar
   147   159   158    1
   148    28    29    1
   149    28    25    1
   150    51    50   ar
   151    29    31   ar
   152    17    16    1
   153    17    18    1
   154    24    25    1
   155    24    18   am
   156   163   168   am
   157   163   164    2
   158    43    45   ar
   159    43    42    1
   160    45    48   ar
   161    25    26    1
   162    18    19    2
   163   168   169    1
   164    33    31   ar
   165    33    35   ar
   166   158   160    1
   167   158   157    1
   168    26    27    2
   169   173   174    1
   170   173   175    1
   171   173   172    1
   172    31    34   ar
   173    50    48   ar
   174    40    41    2
   175    40    39    1
   176    35    37   ar
   177    42    39    1
   178   172   169    1
   179   157   154    1
   180   169   170    1
   181    39    38    1
   182    34    36   ar
   183   153   154    1
   184    37    36   ar
   185   154   155    1
   186   170   171    2
   187   156   155    2
