@<TRIPOS>MOLECULE
tmp/5vnsA00.pdb
 197 193 0 0 0
SMALL
GASTEIGER

@<TRIPOS>ATOM
      1  N         22.6310  138.7470  -21.8580 N.3    39  GLY39      -0.1210
      2  CA        23.2850  137.6150  -22.4920 C.3    39  GLY39       0.1956
      3  C         22.3220  136.5770  -23.0580 C.2    39  GLY39       0.2612
      4  O         21.1100  136.7960  -23.1540 O.2    39  GLY39      -0.2717
      5  N         22.8820  135.4290  -23.4210 N.am   40  LEU40      -0.1965
      6  CA        22.1660  134.3860  -24.1420 C.3    40  LEU40       0.1728
      7  C         20.9350  133.8750  -23.4020 C.2    40  LEU40       0.2616
      8  O         19.9320  133.5250  -24.0310 O.2    40  LEU40      -0.2715
      9  CB        23.1160  133.2170  -24.4250 C.3    40  LEU40       0.0311
     10  CG        22.5860  132.1230  -25.3530 C.3    40  LEU40       0.0022
     11  CD1       22.5530  132.6230  -26.7820 C.3    40  LEU40       0.0001
     12  CD2       23.4640  130.8890  -25.2190 C.3    40  LEU40       0.0001
     13  N         21.0100  133.8370  -22.0730 N.am   41  ARG41      -0.1977
     14  CA        19.9190  133.2820  -21.2760 C.3    41  ARG41       0.1597
     15  C         19.0280  134.3560  -20.6740 C.2    41  ARG41       0.2287
     16  O         18.4500  134.1600  -19.5980 O.2    41  ARG41      -0.2864
     17  CB        20.4860  132.3920  -20.1730 C.3    41  ARG41       0.0334
     18  CG        21.4020  131.3140  -20.7110 C.3    41  ARG41       0.0492
     19  CD        21.6320  130.2030  -19.7020 C.3    41  ARG41       0.2205
     20  NE        21.0590  128.9490  -20.1800 N.pl3  41  ARG41      -0.0865
     21  CZ        21.6980  128.0930  -20.9740 C.cat  41  ARG41       0.5346
     22  NH1       22.9380  128.3490  -21.3710 N.pl3  41  ARG41       0.1354
     23  NH2       21.0990  126.9780  -21.3640 N.pl3  41  ARG41       0.1354
     24  N         19.9930  137.3470  -30.0280 N.3    76  PHE76      -0.1241
     25  CA        21.0880  138.1750  -30.5570 C.3    76  PHE76       0.1605
     26  C         20.6710  139.6240  -30.8530 C.2    76  PHE76       0.2264
     27  O         21.3760  140.3550  -31.5450 O.2    76  PHE76      -0.2867
     28  CB        21.7190  137.4940  -31.7910 C.3    76  PHE76       0.0534
     29  CG        22.7010  136.4220  -31.4160 C.ar   76  PHE76      -0.0203
     30  CD1       22.2660  135.1620  -31.0300 C.ar   76  PHE76      -0.0042
     31  CD2       24.0520  136.7070  -31.3620 C.ar   76  PHE76      -0.0042
     32  CE1       23.1830  134.1870  -30.6350 C.ar   76  PHE76      -0.0003
     33  CE2       24.9720  135.7400  -30.9640 C.ar   76  PHE76      -0.0003
     34  CZ        24.5300  134.4850  -30.6020 C.ar   76  PHE76      -0.0000
     35  N         27.1240  142.0440  -23.6330 N.3   123  LEU123     -0.1231
     36  CA        28.0700  141.0370  -23.1470 C.3   123  LEU123      0.1693
     37  C         27.7070  139.6720  -23.7000 C.2   123  LEU123      0.2593
     38  O         26.5330  139.3970  -23.9760 O.2   123  LEU123     -0.2718
     39  CB        28.1270  141.0090  -21.5990 C.3   123  LEU123      0.0284
     40  CG        26.9810  140.4970  -20.7090 C.3   123  LEU123      0.0019
     41  CD1       25.6490  141.1600  -21.0400 C.3   123  LEU123      0.0001
     42  CD2       26.8230  138.9760  -20.6990 C.3   123  LEU123      0.0001
     43  N         28.7290  138.8300  -23.8730 N.am  124  SER124     -0.1938
     44  CA        28.5560  137.5120  -24.4090 C.3   124  SER124      0.2055
     45  C         27.7520  137.5910  -25.7230 C.2   124  SER124      0.2642
     46  O         28.2400  138.2110  -26.6570 O.2   124  SER124     -0.2714
     47  CB        27.9700  136.6270  -23.2840 C.3   124  SER124      0.2130
     48  OG        28.0700  135.2410  -23.6890 O.3   124  SER124     -0.2179
     49  N         26.5600  136.9930  -25.7730 N.am  125  MET125     -0.1976
     50  CA        25.6890  137.0910  -26.9410 C.3   125  MET125      0.1605
     51  C         25.6240  138.5030  -27.5130 C.2   125  MET125      0.2287
     52  O         25.7280  138.7000  -28.7320 O.2   125  MET125     -0.2864
     53  CB        24.2740  136.6370  -26.5870 C.3   125  MET125      0.0413
     54  CG        23.2830  136.7710  -27.7430 C.3   125  MET125      0.0598
     55  SD        21.5790  136.4280  -27.2480 S.3   125  MET125     -0.1393
     56  CE        21.0920  137.9310  -26.4130 C.3   125  MET125      0.0692
     57  N         33.3220  140.4770  -23.5730 N.3   148  SER148     -0.1217
     58  CA        33.3910  139.0360  -23.8320 C.3   148  SER148      0.1889
     59  C         32.4660  138.6340  -24.9810 C.2   148  SER148      0.2288
     60  O         31.6920  137.6740  -24.8870 O.2   148  SER148     -0.2866
     61  CB        33.0500  138.2460  -22.5640 C.3   148  SER148      0.2089
     62  OG        33.9420  138.5920  -21.5030 O.3   148  SER148     -0.2183
     63  N         31.5100  137.7750  -29.1700 N.3   150  PHE150     -0.1241
     64  CA        31.8690  136.8060  -30.1970 C.3   150  PHE150      0.1605
     65  C         31.8410  137.5440  -31.5230 C.2   150  PHE150      0.2264
     66  O         30.7950  137.7390  -32.1390 O.2   150  PHE150     -0.2867
     67  CB        30.9260  135.5950  -30.1140 C.3   150  PHE150      0.0534
     68  CG        31.1270  134.8040  -28.8480 C.ar  150  PHE150     -0.0203
     69  CD1       31.8990  133.6500  -28.8490 C.ar  150  PHE150     -0.0042
     70  CD2       30.6250  135.2690  -27.6310 C.ar  150  PHE150     -0.0042
     71  CE1       32.1340  132.9380  -27.6710 C.ar  150  PHE150     -0.0003
     72  CE2       30.8620  134.5610  -26.4520 C.ar  150  PHE150     -0.0003
     73  CZ        31.6190  133.3950  -26.4770 C.ar  150  PHE150     -0.0000
     74  N         33.8480  127.8270  -37.7310 N.3   157  TRP157     -0.1227
     75  CA        32.9310  127.0510  -36.9050 C.3   157  TRP157      0.1737
     76  C         31.8910  127.8820  -36.1650 C.2   157  TRP157      0.2595
     77  O         30.9740  127.3230  -35.5720 O.2   157  TRP157     -0.2718
     78  CB        33.7000  126.2580  -35.8560 C.3   157  TRP157      0.0564
     79  CG        34.5240  125.1490  -36.3830 C.ar  157  TRP157      0.0003
     80  CD1       34.6850  124.7860  -37.6860 C.ar  157  TRP157      0.0946
     81  CD2       35.2960  124.2300  -35.6050 C.ar  157  TRP157      0.0152
     82  NE1       35.5240  123.6940  -37.7700 N.ar  157  TRP157     -0.2442
     83  CE2       35.9100  123.3370  -36.5040 C.ar  157  TRP157      0.0810
     84  CE3       35.5290  124.0790  -34.2340 C.ar  157  TRP157      0.0012
     85  CZ2       36.7430  122.3030  -36.0740 C.ar  157  TRP157      0.0191
     86  CZ3       36.3560  123.0540  -33.8080 C.ar  157  TRP157      0.0001
     87  CH2       36.9540  122.1810  -34.7260 C.ar  157  TRP157      0.0015
     88  N         32.0580  129.2010  -36.1560 N.am  158  TRP158     -0.1976
     89  CA        31.2430  130.0250  -35.2550 C.3   158  TRP158      0.1640
     90  C         29.7300  129.9420  -35.5200 C.2   158  TRP158      0.2290
     91  O         28.9640  129.8880  -34.5610 O.2   158  TRP158     -0.2864
     92  CB        31.7210  131.4840  -35.2830 C.3   158  TRP158      0.0576
     93  CG        33.0420  131.6680  -34.5800 C.ar  158  TRP158      0.0006
     94  CD1       34.2160  132.0620  -35.1420 C.ar  158  TRP158      0.0946
     95  CD2       33.3230  131.4190  -33.1910 C.ar  158  TRP158      0.0152
     96  NE1       35.2130  132.0950  -34.1900 N.ar  158  TRP158     -0.2442
     97  CE2       34.6880  131.6990  -32.9860 C.ar  158  TRP158      0.0810
     98  CE3       32.5470  131.0050  -32.1010 C.ar  158  TRP158      0.0012
     99  CZ2       35.3010  131.5710  -31.7340 C.ar  158  TRP158      0.0191
    100  CZ3       33.1620  130.8720  -30.8560 C.ar  158  TRP158      0.0001
    101  CH2       34.5210  131.1560  -30.6870 C.ar  158  TRP158      0.0015
    102  N         28.7530  126.7480  -33.7150 N.3   161  LEU161     -0.1231
    103  CA        28.8430  126.9130  -32.2620 C.3   161  LEU161      0.1693
    104  C         27.7030  127.7840  -31.7350 C.2   161  LEU161      0.2591
    105  O         27.1120  127.4920  -30.6950 O.2   161  LEU161     -0.2718
    106  CB        30.1920  127.5150  -31.8790 C.3   161  LEU161      0.0284
    107  CG        31.4040  126.6570  -32.2710 C.3   161  LEU161      0.0019
    108  CD1       32.7030  127.4360  -32.1010 C.3   161  LEU161      0.0001
    109  CD2       31.4320  125.3840  -31.4380 C.3   161  LEU161      0.0001
    110  N         27.3890  128.8500  -32.4670 N.am  162  ILE162     -0.1980
    111  CA        26.2790  129.7170  -32.0880 C.3   162  ILE162      0.1595
    112  C         24.9690  128.9330  -32.1360 C.2   162  ILE162      0.2287
    113  O         24.1450  129.0320  -31.2290 O.2   162  ILE162     -0.2864
    114  CB        26.2300  130.9650  -32.9900 C.3   162  ILE162      0.0276
    115  CG1       27.3590  131.9170  -32.5820 C.3   162  ILE162      0.0022
    116  CG2       24.8690  131.6560  -32.9110 C.3   162  ILE162      0.0022
    117  CD1       27.6710  132.9720  -33.6170 C.3   162  ILE162      0.0001
    118  N         24.5900  125.7360  -31.6560 N.3   164  LEU164     -0.1231
    119  CA        24.5740  124.8490  -30.4970 C.3   164  LEU164      0.1693
    120  C         24.1740  125.5900  -29.2150 C.2   164  LEU164      0.2591
    121  O         23.3500  125.1030  -28.4330 O.2   164  LEU164     -0.2718
    122  CB        25.9420  124.1840  -30.3190 C.3   164  LEU164      0.0284
    123  CG        26.3330  123.1770  -31.4010 C.3   164  LEU164      0.0019
    124  CD1       27.7590  122.6910  -31.1620 C.3   164  LEU164      0.0001
    125  CD2       25.3430  122.0140  -31.4140 C.3   164  LEU164      0.0001
    126  N         24.7350  126.7810  -29.0200 N.am  165  ALA165     -0.1980
    127  CA        24.4350  127.5670  -27.8270 C.3   165  ALA165      0.1597
    128  C         22.9610  127.9750  -27.7760 C.2   165  ALA165      0.2287
    129  O         22.3240  127.9130  -26.7220 O.2   165  ALA165     -0.2864
    130  CB        25.3380  128.8010  -27.7700 C.3   165  ALA165      0.0319
    131  N         36.6060  131.8290  -17.2090 N.3   213  THR213     -0.1218
    132  CA        35.5760  132.0190  -16.2000 C.3   213  THR213      0.1862
    133  C         36.2210  131.7300  -14.8510 C.2   213  THR213      0.2287
    134  O         37.2110  130.9990  -14.7990 O.2   213  THR213     -0.2866
    135  CB        34.3700  131.1090  -16.4430 C.3   213  THR213      0.1770
    136  OG1       34.7680  129.7420  -16.2940 O.3   213  THR213     -0.2211
    137  CG2       33.8320  131.3270  -17.8420 C.3   213  THR213      0.0375
    138  N         37.8050  121.7300  -22.3830 N.3   217  PRO217     -0.2102
    139  CA        37.0730  122.2320  -23.5550 C.3   217  PRO217      0.1504
    140  C         36.6860  123.7060  -23.4160 C.2   217  PRO217      0.2575
    141  O         36.7300  124.4440  -24.3980 O.2   217  PRO217     -0.2718
    142  CB        35.8290  121.3450  -23.5960 C.3   217  PRO217      0.0282
    143  CG        36.2730  120.0700  -22.9510 C.3   217  PRO217      0.0208
    144  CD        37.1770  120.5130  -21.8360 C.3   217  PRO217      0.0893
    145  N         36.3190  124.1190  -22.2070 N.am  218  ALA218     -0.1980
    146  CA        36.0290  125.5240  -21.9430 C.3   218  ALA218      0.1597
    147  C         37.2810  126.3680  -22.1560 C.2   218  ALA218      0.2287
    148  O         37.2050  127.4900  -22.6600 O.2   218  ALA218     -0.2864
    149  CB        35.4900  125.7080  -20.5320 C.3   218  ALA218      0.0319
    150  N         37.7210  126.9010  -25.8520 N.3   221  LEU221     -0.1231
    151  CA        36.7300  127.8570  -26.3190 C.3   221  LEU221      0.1693
    152  C         37.1250  129.2730  -25.9190 C.2   221  LEU221      0.2591
    153  O         37.0370  130.1980  -26.7240 O.2   221  LEU221     -0.2718
    154  CB        35.3450  127.5170  -25.7750 C.3   221  LEU221      0.0284
    155  CG        34.2280  128.4300  -26.2900 C.3   221  LEU221      0.0019
    156  CD1       34.1770  128.4660  -27.8010 C.3   221  LEU221      0.0001
    157  CD2       32.8850  127.9860  -25.7260 C.3   221  LEU221      0.0001
    158  N         37.5770  129.4410  -24.6830 N.am  222  GLU222     -0.1979
    159  CA        37.9330  130.7730  -24.2130 C.3   222  GLU222      0.1602
    160  C         39.1870  131.3050  -24.9000 C.2   222  GLU222      0.2287
    161  O         39.2810  132.5010  -25.1840 O.2   222  GLU222     -0.2864
    162  CB        38.0890  130.7700  -22.6940 C.3   222  GLU222      0.0415
    163  CG        36.7320  130.9110  -21.9920 C.3   222  GLU222      0.1163
    164  CD        36.7460  130.3790  -20.5860 C.2   222  GLU222      0.3649
    165  OE1       37.8300  129.9820  -20.1050 O.co2 222  GLU222     -0.2457
    166  OE2       35.6690  130.3410  -19.9670 O.co2 222  GLU222     -0.2457
    167  N         38.0120  132.4930  -28.2220 N.3   225  THR225     -0.1218
    168  CA        37.2350  133.7230  -28.0740 C.3   225  THR225      0.1862
    169  C         38.1640  134.9210  -27.8780 C.2   225  THR225      0.2287
    170  O         37.9750  135.9720  -28.4940 O.2   225  THR225     -0.2866
    171  CB        36.2550  133.6020  -26.9090 C.3   225  THR225      0.1770
    172  OG1       35.3670  132.5020  -27.1600 O.3   225  THR225     -0.2211
    173  CG2       35.4310  134.8760  -26.7570 C.3   225  THR225      0.0375
    174  N         35.3670  136.0710  -17.3720 N.3   254  HIS254     -0.1241
    175  CA        34.0450  136.1510  -17.9740 C.3   254  HIS254      0.1621
    176  C         33.0290  135.9690  -16.8620 C.2   254  HIS254      0.2264
    177  O         32.6100  134.8520  -16.5850 O.2   254  HIS254     -0.2867
    178  CB        33.8520  135.0720  -19.0320 C.3   254  HIS254      0.0745
    179  CG        34.8790  135.0860  -20.1160 C.ar  254  HIS254      0.0817
    180  ND1       35.0850  136.1710  -20.9360 N.ar  254  HIS254     -0.2268
    181  CD2       35.7540  134.1350  -20.5150 C.ar  254  HIS254      0.1154
    182  CE1       36.0430  135.8860  -21.8040 C.ar  254  HIS254      0.1986
    183  NE2       36.4640  134.6590  -21.5680 N.ar  254  HIS254     -0.2212
    184  N         32.3160  142.0000  -15.6720 N.3   259  TRP259     -0.1241
    185  CA        31.5550  142.7900  -16.6410 C.3   259  TRP259      0.1605
    186  C         31.0430  144.0650  -15.9780 C.2   259  TRP259      0.2264
    187  O         31.0390  145.1310  -16.5900 O.2   259  TRP259     -0.2867
    188  CB        30.4020  141.9780  -17.2370 C.3   259  TRP259      0.0550
    189  CG        30.8900  140.8320  -18.0910 C.ar  259  TRP259      0.0003
    190  CD1       32.0160  140.8040  -18.8710 C.ar  259  TRP259      0.0946
    191  CD2       30.2800  139.5480  -18.2250 C.ar  259  TRP259      0.0152
    192  NE1       32.1360  139.5770  -19.4950 N.ar  259  TRP259     -0.2442
    193  CE2       31.0810  138.7900  -19.1110 C.ar  259  TRP259      0.0810
    194  CE3       29.1320  138.9610  -17.6810 C.ar  259  TRP259      0.0012
    195  CZ2       30.7630  137.4760  -19.4660 C.ar  259  TRP259      0.0191
    196  CZ3       28.8210  137.6580  -18.0300 C.ar  259  TRP259      0.0001
    197  CH2       29.6340  136.9270  -18.9110 C.ar  259  TRP259      0.0015
@<TRIPOS>BOND
     1    82    80   ar
     2    82    83   ar
     3    74    75    1
     4    80    79   ar
     5    75    76    1
     6    75    78    1
     7    83    85   ar
     8    83    81   ar
     9    79    78    1
    10    79    81   ar
    11    76    88   am
    12    76    77    2
    13    88    89    1
    14    85    87   ar
    15    81    84   ar
    16    90    89    1
    17    90    91    2
    18    92    89    1
    19    92    93    1
    20    94    93   ar
    21    94    96   ar
    22    87    86   ar
    23    93    95   ar
    24    84    86   ar
    25    96    97   ar
    26   102   103    1
    27   117   115    1
    28    95    97   ar
    29    95    98   ar
    30   114   116    1
    31   114   115    1
    32   114   111    1
    33    97    99   ar
    34   110   111    1
    35   110   104   am
    36   107   108    1
    37   107   106    1
    38   107   109    1
    39   103   106    1
    40   103   104    1
    41    66    65    2
    42   112   111    1
    43   112   113    2
    44    98   100   ar
    45    28    29    1
    46    28    25    1
    47   104   105    2
    48    99   101   ar
    49   118   119    1
    50    27    26    2
    51    65    64    1
    52    29    31   ar
    53    29    30   ar
    54   125   123    1
    55   123   124    1
    56   123   122    1
    57    31    33   ar
    58    30    32   ar
    59    33    34   ar
    60   100   101   ar
    61    26    25    1
    62    32    34   ar
    63    25    24    1
    64   119   122    1
    65   119   120    1
    66    64    67    1
    67    64    63    1
    68    67    68    1
    69   120   126   am
    70   120   121    2
    71   126   127    1
    72    69    68   ar
    73    69    71   ar
    74    68    70   ar
    75    52    51    2
    76   170   169    2
    77   167   168    1
    78   168   169    1
    79   168   171    1
    80   127   128    1
    81   127   130    1
    82   156   155    1
    83   128   129    2
    84    54    55    1
    85    54    53    1
    86    71    73   ar
    87    70    72   ar
    88    51    50    1
    89    55    56    1
    90   172   171    1
    91    50    53    1
    92    50    49    1
    93   171   173    1
    94    11    10    1
    95   153   152    2
    96    46    45    2
    97    73    72   ar
    98   151   152    1
    99   151   150    1
   100   151   154    1
   101   155   154    1
   102   155   157    1
   103   152   158   am
   104    49    45   am
   105    45    44    1
   106    10    12    1
   107    10     9    1
   108   161   160    2
   109    59    60    2
   110    59    58    1
   111   160   159    1
   112   158   159    1
   113     9     6    1
   114    44    43    1
   115    44    47    1
   116   141   140    2
   117   159   162    1
   118     6     5    1
   119     6     7    1
   120     8     7    2
   121    38    37    2
   122    43    37   am
   123    58    57    1
   124    58    61    1
   125    37    36    1
   126    48    47    1
   127    35    36    1
   128   142   139    1
   129   142   143    1
   130   139   140    1
   131   139   138    1
   132     5     3   am
   133   140   145   am
   134     7    13   am
   135     4     3    2
   136    36    39    1
   137     3     2    1
   138   143   144    1
   139   162   163    1
   140   148   147    2
   141    61    62    1
   142     2     1    1
   143   138   144    1
   144   145   146    1
   145   147   146    1
   146    13    14    1
   147   163   164    1
   148   146   149    1
   149   182   183   ar
   150   182   180   ar
   151    39    40    1
   152   183   181   ar
   153    22    21    1
   154    23    21    1
   155    14    15    1
   156    14    17    1
   157    41    40    1
   158    21    20    2
   159   180   179   ar
   160    18    17    1
   161    18    19    1
   162    40    42    1
   163    15    16    2
   164   164   165   ar
   165   164   166   ar
   166   181   179   ar
   167    20    19    1
   168   179   178    1
   169   192   193   ar
   170   192   190   ar
   171   195   193   ar
   172   195   197   ar
   173   193   191   ar
   174   178   175    1
   175   197   196   ar
   176   190   189   ar
   177   191   189   ar
   178   191   194   ar
   179   189   188    1
   180   196   194   ar
   181   175   174    1
   182   175   176    1
   183   137   135    1
   184   188   185    1
   185   131   132    1
   186   176   177    2
   187   185   186    1
   188   185   184    1
   189   187   186    2
   190   135   136    1
   191   135   132    1
   192   132   133    1
   193   133   134    2
