@<TRIPOS>MOLECULE
tmp/5vnwB00.pdb
 172 160 0 0 0
SMALL
GASTEIGER

@<TRIPOS>ATOM
      1  N        -40.3480   -7.6860    2.0190 N.3   147  TYR147     -0.1241
      2  CA       -39.3780   -7.8000    0.9360 C.3   147  TYR147      0.1605
      3  C        -38.2270   -6.8290    1.1660 C.2   147  TYR147      0.2264
      4  O        -38.4340   -5.6140    1.2390 O.2   147  TYR147     -0.2867
      5  CB       -40.0590   -7.5330   -0.4060 C.3   147  TYR147      0.0534
      6  CG       -39.1820   -7.7930   -1.6120 C.ar  147  TYR147     -0.0201
      7  CD1      -38.4850   -8.9860   -1.7440 C.ar  147  TYR147     -0.0009
      8  CD2      -39.0680   -6.8520   -2.6270 C.ar  147  TYR147     -0.0009
      9  CE1      -37.6860   -9.2290   -2.8460 C.ar  147  TYR147      0.0417
     10  CE2      -38.2740   -7.0870   -3.7340 C.ar  147  TYR147      0.0417
     11  CZ       -37.5860   -8.2770   -3.8390 C.ar  147  TYR147      0.1957
     12  OH       -36.7920   -8.5140   -4.9380 O.3   147  TYR147     -0.2866
     13  N        -37.6860   -3.8800   -1.2450 N.3   150  GLU150     -0.1245
     14  CA       -38.7670   -2.9220   -1.0280 C.3   150  GLU150      0.1567
     15  C        -38.5090   -2.0860    0.2190 C.2   150  GLU150      0.2260
     16  O        -38.6820   -0.8620    0.2030 O.2   150  GLU150     -0.2867
     17  CB       -40.1050   -3.6540   -0.9200 C.3   150  GLU150      0.0388
     18  CG       -41.3110   -2.7430   -0.7260 C.3   150  GLU150      0.1160
     19  CD       -41.7400   -2.0480   -2.0050 C.2   150  GLU150      0.3649
     20  OE1      -41.1770   -2.3580   -3.0770 O.co2 150  GLU150     -0.2457
     21  OE2      -42.6470   -1.1920   -1.9390 O.co2 150  GLU150     -0.2457
     22  N        -47.8270   -1.1200    2.8220 N.3   189  SER189     -0.1217
     23  CA       -47.0440   -1.9860    1.9460 C.3   189  SER189      0.1889
     24  C        -46.8440   -3.3620    2.5670 C.2   189  SER189      0.2288
     25  O        -46.8640   -4.3780    1.8630 O.2   189  SER189     -0.2866
     26  CB       -45.6950   -1.3380    1.6340 C.3   189  SER189      0.2089
     27  OG       -44.8910   -2.1900    0.8380 O.3   189  SER189     -0.2183
     28  N        -48.4560   -6.8110    0.9950 N.3   193  GLN193     -0.1245
     29  CA       -47.6750   -7.9990    0.6680 C.3   193  GLN193      0.1566
     30  C        -48.2600   -9.2350    1.3370 C.2   193  GLN193      0.2260
     31  O        -48.2470  -10.3270    0.7590 O.2   193  GLN193     -0.2867
     32  CB       -46.2170   -7.8100    1.0850 C.3   193  GLN193      0.0367
     33  CG       -45.4630   -6.7400    0.3180 C.3   193  GLN193      0.0905
     34  CD       -44.0330   -6.5790    0.8040 C.2   193  GLN193      0.2608
     35  OE1      -43.3610   -7.5590    1.1270 O.2   193  GLN193     -0.2717
     36  NE2      -43.5650   -5.3370    0.8690 N.am  193  GLN193     -0.0878
     37  N        -55.7370   -5.9210  -13.8190 N.3   215  ARG215     -0.1231
     38  CA       -54.7450   -4.9020  -13.4930 C.3   215  ARG215      0.1694
     39  C        -53.8170   -4.6300  -14.6700 C.2   215  ARG215      0.2591
     40  O        -53.6330   -3.4750  -15.0710 O.2   215  ARG215     -0.2718
     41  CB       -53.9410   -5.3290  -12.2630 C.3   215  ARG215      0.0321
     42  CG       -52.7550   -4.4290  -11.9490 C.3   215  ARG215      0.0489
     43  CD       -53.1920   -2.9890  -11.7320 C.3   215  ARG215      0.2205
     44  NE       -54.0610   -2.8450  -10.5690 N.pl3 215  ARG215     -0.0865
     45  CZ       -53.6280   -2.5600   -9.3450 C.cat 215  ARG215      0.5346
     46  NH1      -52.3320   -2.3880   -9.1220 N.pl3 215  ARG215      0.1354
     47  NH2      -54.4900   -2.4470   -8.3440 N.pl3 215  ARG215      0.1354
     48  N        -53.2220   -5.6830  -15.2380 N.am  216  LEU216     -0.1980
     49  CA       -52.2520   -5.4940  -16.3110 C.3   216  LEU216      0.1596
     50  C        -52.9030   -4.9650  -17.5820 C.2   216  LEU216      0.2287
     51  O        -52.2390   -4.2930  -18.3790 O.2   216  LEU216     -0.2864
     52  CB       -51.5170   -6.8040  -16.5890 C.3   216  LEU216      0.0297
     53  CG       -50.5190   -7.2300  -15.5100 C.3   216  LEU216      0.0022
     54  CD1      -49.9170   -8.5880  -15.8290 C.3   216  LEU216      0.0001
     55  CD2      -49.4290   -6.1820  -15.3610 C.3   216  LEU216      0.0001
     56  N        -52.9130   -1.2730  -17.0060 N.3   219  ARG219     -0.1231
     57  CA       -51.5580   -0.7460  -17.1360 C.3   219  ARG219      0.1694
     58  C        -51.0640   -0.8380  -18.5740 C.2   219  ARG219      0.2592
     59  O        -50.4190    0.0900  -19.0770 O.2   219  ARG219     -0.2718
     60  CB       -50.6100   -1.5000  -16.2020 C.3   219  ARG219      0.0321
     61  CG       -51.0040   -1.4690  -14.7330 C.3   219  ARG219      0.0489
     62  CD       -50.6330   -0.1490  -14.0800 C.3   219  ARG219      0.2205
     63  NE       -50.9580   -0.1370  -12.6570 N.pl3 219  ARG219     -0.0865
     64  CZ       -52.1320    0.2400  -12.1620 C.cat 219  ARG219      0.5346
     65  NH1      -53.1010    0.6360  -12.9760 N.pl3 219  ARG219      0.1354
     66  NH2      -52.3410    0.2170  -10.8530 N.pl3 219  ARG219      0.1354
     67  N        -51.3540   -1.9510  -19.2510 N.am  220  PHE220     -0.1976
     68  CA       -50.8700   -2.2200  -20.6030 C.3   220  PHE220      0.1639
     69  C        -52.0620   -2.4210  -21.5340 C.2   220  PHE220      0.2290
     70  O        -52.3650   -3.5520  -21.9380 O.2   220  PHE220     -0.2864
     71  CB       -49.9550   -3.4430  -20.6210 C.3   220  PHE220      0.0560
     72  CG       -48.8360   -3.3830  -19.6170 C.ar  220  PHE220     -0.0200
     73  CD1      -48.1450   -2.2030  -19.3960 C.ar  220  PHE220     -0.0042
     74  CD2      -48.4800   -4.5070  -18.8890 C.ar  220  PHE220     -0.0042
     75  CE1      -47.1170   -2.1460  -18.4730 C.ar  220  PHE220     -0.0003
     76  CE2      -47.4530   -4.4560  -17.9640 C.ar  220  PHE220     -0.0003
     77  CZ       -46.7710   -3.2740  -17.7560 C.ar  220  PHE220     -0.0000
     78  N        -46.2320  -13.1720  -13.9050 N.3   235  LEU235     -0.1245
     79  CA       -46.4300  -12.4150  -12.6730 C.3   235  LEU235      0.1561
     80  C        -46.8720  -13.3250  -11.5340 C.2   235  LEU235      0.2260
     81  O        -46.3790  -13.2030  -10.4060 O.2   235  LEU235     -0.2867
     82  CB       -47.4540  -11.3020  -12.8960 C.3   235  LEU235      0.0270
     83  CG       -47.7580  -10.4130  -11.6890 C.3   235  LEU235      0.0019
     84  CD1      -46.5010   -9.6980  -11.2210 C.3   235  LEU235      0.0001
     85  CD2      -48.8570   -9.4150  -12.0190 C.3   235  LEU235      0.0001
     86  N        -43.9610  -15.2440  -10.3090 N.3   238  VAL238     -0.1231
     87  CA       -43.0810  -14.4700   -9.4390 C.3   238  VAL238      0.1692
     88  C        -43.6920  -14.3260   -8.0500 C.2   238  VAL238      0.2592
     89  O        -42.9960  -14.4620   -7.0370 O.2   238  VAL238     -0.2718
     90  CB       -42.7760  -13.1010  -10.0720 C.3   238  VAL238      0.0266
     91  CG1      -42.0550  -12.2070   -9.0810 C.3   238  VAL238      0.0020
     92  CG2      -41.9410  -13.2750  -11.3310 C.3   238  VAL238      0.0020
     93  N        -44.9980  -14.0550   -7.9790 N.am  239  HIS239     -0.1976
     94  CA       -45.6530  -13.9110   -6.6820 C.3   239  HIS239      0.1656
     95  C        -45.5860  -15.2030   -5.8780 C.2   239  HIS239      0.2291
     96  O        -45.3710  -15.1730   -4.6610 O.2   239  HIS239     -0.2864
     97  CB       -47.1050  -13.4730   -6.8680 C.3   239  HIS239      0.0771
     98  CG       -47.2940  -11.9890   -6.8520 C.ar  239  HIS239      0.0820
     99  ND1      -47.1560  -11.2340   -5.7070 N.ar  239  HIS239     -0.2267
    100  CD2      -47.6120  -11.1190   -7.8400 C.ar  239  HIS239      0.1154
    101  CE1      -47.3790   -9.9630   -5.9900 C.ar  239  HIS239      0.1986
    102  NE2      -47.6580   -9.8660   -7.2780 N.ar  239  HIS239     -0.2212
    103  N        -42.0570  -15.4630   -4.6840 N.3   242  CYS242     -0.1235
    104  CA       -41.7310  -14.4050   -3.7340 C.3   242  CYS242      0.1677
    105  C        -42.4430  -14.6030   -2.3990 C.2   242  CYS242      0.2270
    106  O        -41.8580  -14.3500   -1.3390 O.2   242  CYS242     -0.2867
    107  CB       -42.0700  -13.0430   -4.3430 C.3   242  CYS242      0.0956
    108  SG       -40.8350  -12.4810   -5.5380 S.3   242  CYS242     -0.0801
    109  N        -36.5940  -14.7570   -5.0120 N.3   250  CYS250     -0.1235
    110  CA       -37.5800  -13.7440   -5.3730 C.3   250  CYS250      0.1677
    111  C        -36.9470  -12.5980   -6.1500 C.2   250  CYS250      0.2270
    112  O        -37.5910  -12.0210   -7.0340 O.2   250  CYS250     -0.2867
    113  CB       -38.2730  -13.2200   -4.1140 C.3   250  CYS250      0.0956
    114  SG       -39.3320  -11.7820   -4.3610 S.3   250  CYS250     -0.0801
    115  N        -38.0420  -11.6750  -10.1390 N.3   254  ARG254     -0.1245
    116  CA       -38.4410  -10.3090  -10.4580 C.3   254  ARG254      0.1563
    117  C        -37.5350   -9.7020  -11.5210 C.2   254  ARG254      0.2260
    118  O        -37.9810   -8.8530  -12.3020 O.2   254  ARG254     -0.2867
    119  CB       -38.4310   -9.4450   -9.1950 C.3   254  ARG254      0.0307
    120  CG       -39.6560   -9.6100   -8.3090 C.3   254  ARG254      0.0489
    121  CD       -39.4840   -8.8830   -6.9830 C.3   254  ARG254      0.2205
    122  NE       -39.1530   -7.4710   -7.1600 N.pl3 254  ARG254     -0.0865
    123  CZ       -40.0340   -6.4790   -7.0900 C.cat 254  ARG254      0.5346
    124  NH1      -39.6380   -5.2250   -7.2630 N.pl3 254  ARG254      0.1354
    125  NH2      -41.3100   -6.7360   -6.8420 N.pl3 254  ARG254      0.1354
    126  N        -38.5490  -11.2950  -15.0760 N.3   257  LEU257     -0.1231
    127  CA       -39.7740  -10.6810  -15.5790 C.3   257  LEU257      0.1693
    128  C        -39.5140   -9.2620  -16.0650 C.2   257  LEU257      0.2591
    129  O        -40.0290   -8.8520  -17.1120 O.2   257  LEU257     -0.2718
    130  CB       -40.8500  -10.6940  -14.4930 C.3   257  LEU257      0.0284
    131  CG       -42.1990  -10.0730  -14.8610 C.3   257  LEU257      0.0019
    132  CD1      -42.7630  -10.7180  -16.1170 C.3   257  LEU257      0.0001
    133  CD2      -43.1790  -10.2020  -13.7050 C.3   257  LEU257      0.0001
    134  N        -38.7130   -8.4960  -15.3200 N.am  258  ALA258     -0.1980
    135  CA       -38.3420   -7.1620  -15.7750 C.3   258  ALA258      0.1597
    136  C        -37.4790   -7.2220  -17.0280 C.2   258  ALA258      0.2287
    137  O        -37.5580   -6.3290  -17.8790 O.2   258  ALA258     -0.2864
    138  CB       -37.6130   -6.4090  -14.6620 C.3   258  ALA258      0.0319
    139  N        -39.9980   -7.8900  -19.9300 N.3   261  ILE261     -0.1245
    140  CA       -40.8340   -6.7260  -20.2140 C.3   261  ILE261      0.1561
    141  C        -40.0250   -5.6480  -20.9250 C.2   261  ILE261      0.2260
    142  O        -40.5250   -4.9680  -21.8300 O.2   261  ILE261     -0.2867
    143  CB       -41.4720   -6.2010  -18.9140 C.3   261  ILE261      0.0252
    144  CG1      -42.4490   -7.2320  -18.3450 C.3   261  ILE261      0.0019
    145  CG2      -42.1860   -4.8840  -19.1560 C.3   261  ILE261      0.0019
    146  CD1      -43.0730   -6.8200  -17.0300 C.3   261  ILE261      0.0001
    147  N        -37.2810   -3.7140  -11.4540 N.3   284  SER284     -0.1217
    148  CA       -38.5880   -4.3110  -11.2000 C.3   284  SER284      0.1889
    149  C        -39.4750   -3.3990  -10.3600 C.2   284  SER284      0.2288
    150  O        -40.6980   -3.3890  -10.5410 O.2   284  SER284     -0.2866
    151  CB       -38.4220   -5.6680  -10.5170 C.3   284  SER284      0.2089
    152  OG       -37.6510   -5.5530   -9.3340 O.3   284  SER284     -0.2183
    153  N        -41.0040   -0.6990  -12.7290 N.3   287  ILE287     -0.1231
    154  CA       -42.0190   -1.2380  -13.6320 C.3   287  ILE287      0.1692
    155  C        -43.3350   -1.4540  -12.8940 C.2   287  ILE287      0.2591
    156  O        -44.4160   -1.1810  -13.4290 O.2   287  ILE287     -0.2718
    157  CB       -41.5150   -2.5390  -14.2840 C.3   287  ILE287      0.0266
    158  CG1      -40.3010   -2.2580  -15.1710 C.3   287  ILE287      0.0019
    159  CG2      -42.6200   -3.2040  -15.0890 C.3   287  ILE287      0.0020
    160  CD1      -39.7160   -3.4980  -15.8120 C.3   287  ILE287      0.0001
    161  N        -43.2660   -1.9380  -11.6520 N.am  288  ALA288     -0.1980
    162  CA       -44.4780   -2.2260  -10.8950 C.3   288  ALA288      0.1597
    163  C        -45.2620   -0.9690  -10.5400 C.2   288  ALA288      0.2287
    164  O        -46.4670   -1.0600  -10.2830 O.2   288  ALA288     -0.2864
    165  CB       -44.1320   -2.9980   -9.6210 C.3   288  ALA288      0.0319
    166  N        -45.5300    1.7790  -12.5780 N.3   290  VAL290     -0.1245
    167  CA       -45.6640    2.5600  -13.8010 C.3   290  VAL290      0.1561
    168  C        -47.1100    3.0110  -13.9590 C.2   290  VAL290      0.2260
    169  O        -48.0460    2.3630  -13.4760 O.2   290  VAL290     -0.2867
    170  CB       -45.1840    1.7450  -15.0200 C.3   290  VAL290      0.0252
    171  CG1      -46.2110    0.6870  -15.4040 C.3   290  VAL290      0.0019
    172  CG2      -44.8770    2.6610  -16.1930 C.3   290  VAL290      0.0019
@<TRIPOS>BOND
     1    70    69    2
     2   142   141    2
     3    69    68    1
     4   141   140    1
     5    71    68    1
     6    71    72    1
     7    68    67    1
     8   140   139    1
     9   140   143    1
    10    72    73   ar
    11    72    74   ar
    12    73    75   ar
    13    67    58   am
    14   145   143    1
    15    59    58    2
    16   143   144    1
    17    74    76   ar
    18    58    57    1
    19    75    77   ar
    20    51    50    2
    21   144   146    1
    22    76    77   ar
    23   137   136    2
    24    50    49    1
    25    57    56    1
    26    57    60    1
    27   129   128    2
    28   136   135    1
    29    52    49    1
    30    52    53    1
    31    49    48    1
    32    60    61    1
    33   172   170    1
    34   132   131    1
    35   128   127    1
    36   128   134   am
    37    54    53    1
    38   160   158    1
    39   135   134    1
    40   135   138    1
    41   127   126    1
    42   127   130    1
    43    53    55    1
    44   171   170    1
    45    48    39   am
    46   158   157    1
    47   159   157    1
    48    40    39    2
    49   170   167    1
    50   131   130    1
    51   131   133    1
    52    61    62    1
    53    39    38    1
    54   157   154    1
    55    62    63    1
    56   168   167    1
    57   168   169    2
    58    78    79    1
    59    37    38    1
    60   167   166    1
    61   154   155    1
    62   154   153    1
    63    38    41    1
    64   156   155    2
    65    65    64    1
    66    82    79    1
    67    82    83    1
    68   155   161   am
    69    79    80    1
    70    63    64    2
    71   118   117    2
    72    41    42    1
    73    64    66    1
    74    85    83    1
    75    42    43    1
    76    43    44    1
    77    83    84    1
    78   161   162    1
    79    80    81    2
    80   117   116    1
    81   147   148    1
    82    92    90    1
    83   148   151    1
    84   148   149    1
    85   162   163    1
    86   162   165    1
    87    44    45    2
    88   150   149    2
    89   163   164    2
    90   151   152    1
    91   116   115    1
    92   116   119    1
    93    86    87    1
    94    90    87    1
    95    90    91    1
    96    87    88    1
    97    45    46    1
    98    45    47    1
    99   119   120    1
   100   120   121    1
   101    88    93   am
   102    88    89    2
   103    93    94    1
   104   100   102   ar
   105   100    98   ar
   106   102   101   ar
   107   124   123    1
   108   122   123    2
   109   122   121    1
   110   123   125    1
   111   112   111    2
   112    97    98    1
   113    97    94    1
   114    98    99   ar
   115    94    95    1
   116   111   110    1
   117   101    99   ar
   118    95    96    2
   119   108   114    1
   120   108   107    1
   121   110   109    1
   122   110   113    1
   123    12    11    1
   124   103   104    1
   125   114   113    1
   126   107   104    1
   127    11    10   ar
   128    11     9   ar
   129   104   105    1
   130    10     8   ar
   131    20    19   ar
   132     9     7   ar
   133     8     6   ar
   134   105   106    2
   135    19    21   ar
   136    19    18    1
   137     7     6   ar
   138     6     5    1
   139    13    14    1
   140    14    17    1
   141    14    15    1
   142    17    18    1
   143     5     2    1
   144    16    15    2
   145    33    34    1
   146    33    32    1
   147    29    28    1
   148    29    32    1
   149    29    30    1
   150    31    30    2
   151    34    36   am
   152    34    35    2
   153    27    26    1
   154     2     3    1
   155     2     1    1
   156     3     4    2
   157    26    23    1
   158    25    24    2
   159    23    24    1
   160    23    22    1
