@<TRIPOS>MOLECULE
tmp/5vo3A01.pdb
 122 112 0 0 0
SMALL
GASTEIGER

@<TRIPOS>ATOM
      1  N        -12.8620   17.3890   22.7710 N.3   104  ASP104     -0.1239
      2  CA       -14.2780   17.4640   23.1460 C.3   104  ASP104      0.1674
      3  C        -14.9220   16.0730   23.1280 C.2   104  ASP104      0.2266
      4  O        -15.5550   15.7100   22.1450 O.2   104  ASP104     -0.2867
      5  CB       -15.0320   18.4080   22.2050 C.3   104  ASP104      0.1410
      6  CG       -16.5060   18.5270   22.5420 C.2   104  ASP104      0.3668
      7  OD1      -16.8950   18.0960   23.6390 O.co2 104  ASP104     -0.2456
      8  OD2      -17.2760   19.0170   21.6790 O.co2 104  ASP104     -0.2456
      9  N        -24.5730   13.9700   24.4810 N.3   138  GLU138     -0.1231
     10  CA       -24.5650   15.3840   24.8240 C.3   138  GLU138      0.1699
     11  C        -24.6330   16.2480   23.5690 C.2   138  GLU138      0.2592
     12  O        -25.1100   17.3800   23.6150 O.2   138  GLU138     -0.2718
     13  CB       -23.3180   15.7350   25.6200 C.3   138  GLU138      0.0402
     14  CG       -23.2890   17.1890   26.1050 C.3   138  GLU138      0.1161
     15  CD       -22.6730   18.1480   25.0990 C.2   138  GLU138      0.3649
     16  OE1      -22.0760   17.6630   24.1290 O.co2 138  GLU138     -0.2457
     17  OE2      -22.7610   19.3860   25.3000 O.co2 138  GLU138     -0.2457
     18  N        -24.1600   15.7010   22.4540 N.am  139  GLU139     -0.1966
     19  CA       -23.9040   16.4920   21.2490 C.3   139  GLU139      0.1733
     20  C        -25.1160   16.5900   20.3320 C.2   139  GLU139      0.2616
     21  O        -25.1770   17.4680   19.4620 O.2   139  GLU139     -0.2715
     22  CB       -22.7300   15.8940   20.4590 C.3   139  GLU139      0.0429
     23  CG       -21.3810   15.9340   21.1590 C.3   139  GLU139      0.1163
     24  CD       -20.6570   17.2810   21.0290 C.2   139  GLU139      0.3649
     25  OE1      -19.3980   17.3050   21.0990 O.co2 139  GLU139     -0.2457
     26  OE2      -21.3470   18.3180   20.8790 O.co2 139  GLU139     -0.2457
     27  N        -26.0710   15.6870   20.5030 N.am  140  ALA140     -0.1963
     28  CA       -27.1950   15.6130   19.5780 C.3   140  ALA140      0.1728
     29  C        -28.4820   16.0840   20.2530 C.2   140  ALA140      0.2617
     30  O        -28.5190   17.1750   20.8230 O.2   140  ALA140     -0.2715
     31  CB       -27.3390   14.2080   19.0420 C.3   140  ALA140      0.0334
     32  N        -29.5350   15.2760   20.1910 N.am  141  THR141     -0.1937
     33  CA       -30.8270   15.6890   20.7060 C.3   141  THR141      0.2028
     34  C        -30.7740   15.8050   22.2270 C.2   141  THR141      0.2642
     35  O        -31.3920   16.6950   22.8310 O.2   141  THR141     -0.2714
     36  CB       -31.9180   14.6960   20.2710 C.3   141  THR141      0.1808
     37  OG1      -31.6410   13.4070   20.8240 O.3   141  THR141     -0.2208
     38  CG2      -31.9410   14.5720   18.7560 C.3   141  THR141      0.0379
     39  N        -30.0190   14.9080   22.8490 N.am  142  ALA142     -0.1977
     40  CA       -29.7840   14.9770   24.2820 C.3   142  ALA142      0.1597
     41  C        -31.0840   14.9340   25.0930 C.2   142  ALA142      0.2287
     42  O        -31.1860   15.5540   26.1490 O.2   142  ALA142     -0.2864
     43  CB       -28.9970   16.2360   24.6100 C.3   142  ALA142      0.0319
     44  N        -15.9310   19.9690   30.0110 N.3   167  GLU167     -0.1245
     45  CA       -15.8730   20.5180   28.6530 C.3   167  GLU167      0.1567
     46  C        -14.6440   21.4270   28.4830 C.2   167  GLU167      0.2260
     47  O        -14.2070   22.0800   29.4290 O.2   167  GLU167     -0.2867
     48  CB       -17.1430   21.3140   28.3210 C.3   167  GLU167      0.0388
     49  CG       -18.4310   20.4880   28.3320 C.3   167  GLU167      0.1160
     50  CD       -18.6010   19.6270   27.1170 C.2   167  GLU167      0.3649
     51  OE1      -19.6520   18.9470   27.0280 O.co2 167  GLU167     -0.2457
     52  OE2      -17.6870   19.5740   26.2650 O.co2 167  GLU167     -0.2457
     53  N        -29.5230   27.9460   23.4620 N.3   185  SER185     -0.1217
     54  CA       -29.3730   27.4640   22.1040 C.3   185  SER185      0.1889
     55  C        -30.7370   27.1000   21.5390 C.2   185  SER185      0.2288
     56  O        -31.4950   26.3310   22.1500 O.2   185  SER185     -0.2866
     57  CB       -28.4410   26.2550   22.0520 C.3   185  SER185      0.2089
     58  OG       -28.4010   25.7450   20.7330 O.3   185  SER185     -0.2183
     59  N        -32.7090   26.3180   17.6110 N.3   187  THR187     -0.1218
     60  CA       -32.5260   26.0220   16.2020 C.3   187  THR187      0.1862
     61  C        -33.8480   26.1580   15.4640 C.2   187  THR187      0.2287
     62  O        -34.8860   25.6730   15.9280 O.2   187  THR187     -0.2866
     63  CB       -31.9610   24.5890   16.0160 C.3   187  THR187      0.1770
     64  OG1      -30.7230   24.4810   16.7180 O.3   187  THR187     -0.2211
     65  CG2      -31.7130   24.2630   14.5580 C.3   187  THR187      0.0375
     66  N        -29.0560   28.2410   13.7460 N.3   260  ASN260     -0.1240
     67  CA       -28.9870   28.1210   15.1770 C.3   260  ASN260      0.1653
     68  C        -28.5740   29.4440   15.7850 C.2   260  ASN260      0.2266
     69  O        -27.7600   30.1550   15.2220 O.2   260  ASN260     -0.2867
     70  CB       -28.0060   27.0160   15.5700 C.3   260  ASN260      0.1155
     71  CG       -27.7190   27.0000   17.0580 C.2   260  ASN260      0.2627
     72  OD1      -26.6830   27.4880   17.5010 O.2   260  ASN260     -0.2716
     73  ND2      -28.6300   26.4390   17.8320 N.am  260  ASN260     -0.0877
     74  N        -27.0210   30.9470   19.4180 N.3   262  ARG262     -0.1245
     75  CA       -26.5710   30.8660   20.7900 C.3   262  ARG262      0.1563
     76  C        -26.8650   32.2340   21.3770 C.2   262  ARG262      0.2260
     77  O        -26.2830   33.2280   20.9410 O.2   262  ARG262     -0.2867
     78  CB       -25.0850   30.5010   20.8600 C.3   262  ARG262      0.0307
     79  CG       -24.7440   29.1840   20.1490 C.3   262  ARG262      0.0489
     80  CD       -25.6650   28.0650   20.5770 C.3   262  ARG262      0.2205
     81  NE       -25.3630   26.8180   19.8730 N.pl3 262  ARG262     -0.0865
     82  CZ       -24.6420   25.8230   20.3710 C.cat 262  ARG262      0.5346
     83  NH1      -24.4320   24.7380   19.6480 N.pl3 262  ARG262      0.1354
     84  NH2      -24.1470   25.8910   21.5850 N.pl3 262  ARG262      0.1354
     85  N        -32.9030   23.9320   22.5780 N.3   294  SER294     -0.1217
     86  CA       -32.0460   22.9720   23.2760 C.3   294  SER294      0.1889
     87  C        -31.8090   23.3540   24.7260 C.2   294  SER294      0.2288
     88  O        -31.6930   22.4890   25.6020 O.2   294  SER294     -0.2866
     89  CB       -30.7180   22.8350   22.5620 C.3   294  SER294      0.2089
     90  OG       -30.9020   22.1160   21.3610 O.3   294  SER294     -0.2183
     91  N        -20.1580   27.2060   23.5190 N.3   328  GLY328     -0.1210
     92  CA       -21.3870   26.4630   23.3140 C.3   328  GLY328      0.1956
     93  C        -22.1820   26.3410   24.5920 C.2   328  GLY328      0.2612
     94  O        -22.1790   27.2310   25.4460 O.2   328  GLY328     -0.2717
     95  N        -22.8820   25.2240   24.7040 N.am  329  THR329     -0.1952
     96  CA       -23.6580   24.9050   25.8810 C.3   329  THR329      0.1897
     97  C        -23.0720   23.6170   26.4850 C.2   329  THR329      0.2313
     98  O        -22.0790   23.0880   25.9710 O.2   329  THR329     -0.2863
     99  CB       -25.1480   24.7170   25.5430 C.3   329  THR329      0.1794
    100  OG1      -25.3030   23.6310   24.6250 O.3   329  THR329     -0.2208
    101  CG2      -25.7200   25.9810   24.9080 C.3   329  THR329      0.0378
    102  N        -26.4190   22.6830   32.5930 N.3   333  ARG333     -0.1245
    103  CA       -27.7050   23.3440   32.8260 C.3   333  ARG333      0.1563
    104  C        -28.7360   22.3760   33.3950 C.2   333  ARG333      0.2260
    105  O        -29.5920   22.7470   34.2160 O.2   333  ARG333     -0.2867
    106  CB       -28.2240   23.9830   31.5270 C.3   333  ARG333      0.0307
    107  CG       -28.5410   23.0260   30.4030 C.3   333  ARG333      0.0489
    108  CD       -29.1260   23.7670   29.1810 C.3   333  ARG333      0.2205
    109  NE       -29.4990   22.8680   28.0860 N.pl3 333  ARG333     -0.0865
    110  CZ       -28.6300   22.2270   27.3130 C.cat 333  ARG333      0.5346
    111  NH1      -27.3410   22.3770   27.5270 N.pl3 333  ARG333      0.1354
    112  NH2      -29.0420   21.4210   26.3440 N.pl3 333  ARG333      0.1354
    113  N        -14.9010   20.1080   17.0800 N.3   353  HIS353     -0.1241
    114  CA       -15.8020   19.9940   15.9130 C.3   353  HIS353      0.1621
    115  C        -15.0910   20.2690   14.5860 C.2   353  HIS353      0.2264
    116  O        -15.7340   20.3960   13.5320 O.2   353  HIS353     -0.2867
    117  CB       -17.0060   20.9330   16.0520 C.3   353  HIS353      0.0745
    118  CG       -17.8920   20.6130   17.2240 C.ar  353  HIS353      0.0817
    119  ND1      -19.2300   20.9520   17.2580 N.ar  353  HIS353     -0.2268
    120  CD2      -17.6370   19.9800   18.3960 C.ar  353  HIS353      0.1154
    121  CE1      -19.7610   20.5370   18.3990 C.ar  353  HIS353      0.1986
    122  NE2      -18.8140   19.9470   19.1090 N.ar  353  HIS353     -0.2212
@<TRIPOS>BOND
     1   116   115    2
     2    66    67    1
     3    65    63    1
     4   115   114    1
     5    67    70    1
     6    67    68    1
     7    69    68    2
     8    61    62    2
     9    61    60    1
    10    70    71    1
    11   114   117    1
    12   114   113    1
    13    63    60    1
    14    63    64    1
    15   117   118    1
    16    60    59    1
    17    71    72    2
    18    71    73   am
    19   118   119   ar
    20   118   120   ar
    21   119   121   ar
    22   120   122   ar
    23   121   122   ar
    24    38    36    1
    25    31    28    1
    26    74    75    1
    27    21    20    2
    28    28    29    1
    29    28    27    1
    30    83    82    1
    31    81    82    2
    32    81    80    1
    33    79    80    1
    34    79    78    1
    35    32    29   am
    36    32    33    1
    37    29    30    2
    38    36    33    1
    39    36    37    1
    40    20    27   am
    41    20    19    1
    42    82    84    1
    43    22    23    1
    44    22    19    1
    45    33    34    1
    46    58    57    1
    47    75    78    1
    48    75    76    1
    49    26    24   ar
    50    77    76    2
    51    24    25   ar
    52    24    23    1
    53    19    18    1
    54    90    89    1
    55    55    54    1
    56    55    56    2
    57     8     6   ar
    58    57    54    1
    59    54    53    1
    60     4     3    2
    61     5     6    1
    62     5     2    1
    63    34    35    2
    64    34    39   am
    65    18    11   am
    66     6     7   ar
    67    89    86    1
    68    85    86    1
    69     1     2    1
    70    39    40    1
    71     3     2    1
    72    86    87    1
    73    92    91    1
    74    92    93    1
    75    11    12    2
    76    11    10    1
    77    16    15   ar
    78    40    43    1
    79    40    41    1
    80     9    10    1
    81    93    95   am
    82    93    94    2
    83   100    99    1
    84    95    96    1
    85    87    88    2
    86    10    13    1
    87   101    99    1
    88    41    42    2
    89    15    17   ar
    90    15    14    1
    91    99    96    1
    92    13    14    1
    93    96    97    1
    94    98    97    2
    95    52    50   ar
    96   112   110    1
    97    51    50   ar
    98    50    49    1
    99   110   111    1
   100   110   109    2
   101   109   108    1
   102    48    49    1
   103    48    45    1
   104    46    45    1
   105    46    47    2
   106    45    44    1
   107   108   107    1
   108   107   106    1
   109   106   103    1
   110   102   103    1
   111   103   104    1
   112   104   105    2
