@<TRIPOS>MOLECULE
tmp/5vo3A00.pdb
 103 97 0 0 0
SMALL
GASTEIGER

@<TRIPOS>ATOM
      1  N        -12.8620   17.3890   22.7710 N.3   104  ASP104     -0.1239
      2  CA       -14.2780   17.4640   23.1460 C.3   104  ASP104      0.1674
      3  C        -14.9220   16.0730   23.1280 C.2   104  ASP104      0.2266
      4  O        -15.5550   15.7100   22.1450 O.2   104  ASP104     -0.2867
      5  CB       -15.0320   18.4080   22.2050 C.3   104  ASP104      0.1410
      6  CG       -16.5060   18.5270   22.5420 C.2   104  ASP104      0.3668
      7  OD1      -16.8950   18.0960   23.6390 O.co2 104  ASP104     -0.2456
      8  OD2      -17.2760   19.0170   21.6790 O.co2 104  ASP104     -0.2456
      9  N        -24.5730   13.9700   24.4810 N.3   138  GLU138     -0.1231
     10  CA       -24.5650   15.3840   24.8240 C.3   138  GLU138      0.1699
     11  C        -24.6330   16.2480   23.5690 C.2   138  GLU138      0.2592
     12  O        -25.1100   17.3800   23.6150 O.2   138  GLU138     -0.2718
     13  CB       -23.3180   15.7350   25.6200 C.3   138  GLU138      0.0402
     14  CG       -23.2890   17.1890   26.1050 C.3   138  GLU138      0.1161
     15  CD       -22.6730   18.1480   25.0990 C.2   138  GLU138      0.3649
     16  OE1      -22.0760   17.6630   24.1290 O.co2 138  GLU138     -0.2457
     17  OE2      -22.7610   19.3860   25.3000 O.co2 138  GLU138     -0.2457
     18  N        -24.1600   15.7010   22.4540 N.am  139  GLU139     -0.1979
     19  CA       -23.9040   16.4920   21.2490 C.3   139  GLU139      0.1602
     20  C        -25.1160   16.5900   20.3320 C.2   139  GLU139      0.2287
     21  O        -25.1770   17.4680   19.4620 O.2   139  GLU139     -0.2864
     22  CB       -22.7300   15.8940   20.4590 C.3   139  GLU139      0.0415
     23  CG       -21.3810   15.9340   21.1590 C.3   139  GLU139      0.1163
     24  CD       -20.6570   17.2810   21.0290 C.2   139  GLU139      0.3649
     25  OE1      -19.3980   17.3050   21.0990 O.co2 139  GLU139     -0.2457
     26  OE2      -21.3470   18.3180   20.8790 O.co2 139  GLU139     -0.2457
     27  N        -15.9310   19.9690   30.0110 N.3   167  GLU167     -0.1231
     28  CA       -15.8730   20.5180   28.6530 C.3   167  GLU167      0.1684
     29  C        -14.6440   21.4270   28.4830 C.2   167  GLU167      0.2434
     30  O        -14.2070   22.0800   29.4290 O.2   167  GLU167     -0.2733
     31  CB       -17.1430   21.3140   28.3210 C.3   167  GLU167      0.0402
     32  CG       -18.4310   20.4880   28.3320 C.3   167  GLU167      0.1161
     33  CD       -18.6010   19.6270   27.1170 C.2   167  GLU167      0.3649
     34  OE1      -19.6520   18.9470   27.0280 O.co2 167  GLU167     -0.2457
     35  OE2      -17.6870   19.5740   26.2650 O.co2 167  GLU167     -0.2457
     36  N        -14.0930   21.5010   27.2610 N.am  168  PRO168     -0.2729
     37  CA       -12.8950   22.3280   27.0190 C.3   168  PRO168      0.1401
     38  C        -13.1140   23.8350   27.1140 C.2   168  PRO168      0.2269
     39  O        -13.5330   24.4660   26.1550 O.2   168  PRO168     -0.2865
     40  CB       -12.4840   21.9310   25.6030 C.3   168  PRO168      0.0296
     41  CG       -13.7490   21.4500   24.9450 C.3   168  PRO168      0.0237
     42  CD       -14.5320   20.7830   26.0580 C.3   168  PRO168      0.0939
     43  N        -15.8870   28.1970   33.1370 N.3   179  LYS179     -0.1245
     44  CA       -17.2290   28.6780   32.7810 C.3   179  LYS179      0.1561
     45  C        -18.2390   28.5320   33.9190 C.2   179  LYS179      0.2260
     46  O        -18.3960   27.4700   34.5070 O.2   179  LYS179     -0.2867
     47  CB       -17.7320   27.9660   31.5290 C.3   179  LYS179      0.0271
     48  CG       -16.7280   28.0560   30.3750 C.3   179  LYS179      0.0035
     49  CD       -17.2550   28.7530   29.1810 C.3   179  LYS179      0.0206
     50  CE       -16.1800   28.8410   28.0690 C.3   179  LYS179      0.1093
     51  NZ       -16.6420   28.2310   26.8060 N.3   179  LYS179     -0.1314
     52  N        -23.7770   29.5250   30.5800 N.3   182  ARG182     -0.1245
     53  CA       -23.7880   29.3740   29.1270 C.3   182  ARG182      0.1563
     54  C        -24.9720   30.0960   28.5160 C.2   182  ARG182      0.2260
     55  O        -26.0290   30.2120   29.1420 O.2   182  ARG182     -0.2867
     56  CB       -23.8680   27.9030   28.7140 C.3   182  ARG182      0.0307
     57  CG       -22.7910   26.9960   29.3010 C.3   182  ARG182      0.0489
     58  CD       -21.4410   27.2590   28.6170 C.3   182  ARG182      0.2205
     59  NE       -20.5950   26.0790   28.7020 N.pl3 182  ARG182     -0.0865
     60  CZ       -19.7170   25.7270   27.7760 C.cat 182  ARG182      0.5346
     61  NH1      -19.5470   26.4600   26.7000 N.pl3 182  ARG182      0.1354
     62  NH2      -19.0030   24.6390   27.9320 N.pl3 182  ARG182      0.1354
     63  N        -18.8720   30.4710   24.2110 N.3   327  GLY327     -0.1210
     64  CA       -18.7590   29.1650   23.6040 C.3   327  GLY327      0.1956
     65  C        -20.1250   28.5280   23.4670 C.2   327  GLY327      0.2612
     66  O        -21.1290   29.2210   23.3170 O.2   327  GLY327     -0.2717
     67  N        -20.1580   27.2060   23.5190 N.am  328  GLY328     -0.1942
     68  CA       -21.3870   26.4630   23.3140 C.3   328  GLY328      0.2014
     69  C        -22.1820   26.3410   24.5920 C.2   328  GLY328      0.2639
     70  O        -22.1790   27.2310   25.4460 O.2   328  GLY328     -0.2714
     71  N        -22.8820   25.2240   24.7040 N.am  329  THR329     -0.1950
     72  CA       -23.6580   24.9050   25.8810 C.3   329  THR329      0.1897
     73  C        -23.0720   23.6170   26.4850 C.2   329  THR329      0.2313
     74  O        -22.0790   23.0880   25.9710 O.2   329  THR329     -0.2863
     75  CB       -25.1480   24.7170   25.5430 C.3   329  THR329      0.1794
     76  OG1      -25.3030   23.6310   24.6250 O.3   329  THR329     -0.2208
     77  CG2      -25.7200   25.9810   24.9080 C.3   329  THR329      0.0378
     78  N        -10.2330   24.7120   23.4420 N.3   349  ASN349     -0.1240
     79  CA       -11.3850   24.4160   22.5960 C.3   349  ASN349      0.1653
     80  C        -11.1610   24.7610   21.1260 C.2   349  ASN349      0.2266
     81  O        -12.0750   24.6790   20.3100 O.2   349  ASN349     -0.2867
     82  CB       -12.6280   25.1540   23.0970 C.3   349  ASN349      0.1155
     83  CG       -12.3930   26.6250   23.3230 C.2   349  ASN349      0.2627
     84  OD1      -11.8080   27.3140   22.4830 O.2   349  ASN349     -0.2716
     85  ND2      -12.8630   27.1290   24.4710 N.am  349  ASN349     -0.0877
     86  N        -12.2160   21.9800   18.4930 N.3   352  ILE352     -0.1231
     87  CA       -13.3730   21.1180   18.6720 C.3   352  ILE352      0.1692
     88  C        -14.3160   21.2460   17.4630 C.2   352  ILE352      0.2592
     89  O        -14.4670   22.3330   16.8760 O.2   352  ILE352     -0.2718
     90  CB       -14.1040   21.3970   20.0080 C.3   352  ILE352      0.0266
     91  CG1      -14.7930   22.7680   20.0400 C.3   352  ILE352      0.0019
     92  CG2      -13.1070   21.2230   21.1900 C.3   352  ILE352      0.0020
     93  CD1      -15.6280   23.0080   21.3470 C.3   352  ILE352      0.0001
     94  N        -14.9010   20.1080   17.0800 N.am  353  HIS353     -0.1976
     95  CA       -15.8020   19.9940   15.9130 C.3   353  HIS353      0.1656
     96  C        -15.0910   20.2690   14.5860 C.2   353  HIS353      0.2291
     97  O        -15.7340   20.3960   13.5320 O.2   353  HIS353     -0.2864
     98  CB       -17.0060   20.9330   16.0520 C.3   353  HIS353      0.0771
     99  CG       -17.8920   20.6130   17.2240 C.ar  353  HIS353      0.0820
    100  ND1      -19.2300   20.9520   17.2580 N.ar  353  HIS353     -0.2267
    101  CD2      -17.6370   19.9800   18.3960 C.ar  353  HIS353      0.1154
    102  CE1      -19.7610   20.5370   18.3990 C.ar  353  HIS353      0.1986
    103  NE2      -18.8140   19.9470   19.1090 N.ar  353  HIS353     -0.2212
@<TRIPOS>BOND
     1    97    96    2
     2    96    95    1
     3    95    98    1
     4    95    94    1
     5    98    99    1
     6    89    88    2
     7    94    88   am
     8    99   100   ar
     9    99   101   ar
    10   100   102   ar
    11    88    87    1
    12   101   103   ar
    13   102   103   ar
    14    86    87    1
    15    87    90    1
    16    21    20    2
    17    90    91    1
    18    90    92    1
    19    91    93    1
    20    81    80    2
    21    20    19    1
    22    22    23    1
    23    22    19    1
    24    26    24   ar
    25    24    25   ar
    26    24    23    1
    27    80    79    1
    28    19    18    1
    29     8     6   ar
    30     4     3    2
    31     5     6    1
    32     5     2    1
    33    18    11   am
    34    84    83    2
    35     6     7   ar
    36    79    82    1
    37    79    78    1
    38     1     2    1
    39    82    83    1
    40     3     2    1
    41    68    67    1
    42    68    69    1
    43    66    65    2
    44    83    85   am
    45    65    67   am
    46    65    64    1
    47    11    12    2
    48    11    10    1
    49    64    63    1
    50    16    15   ar
    51     9    10    1
    52    69    71   am
    53    69    70    2
    54    76    75    1
    55    71    72    1
    56    10    13    1
    57    77    75    1
    58    41    40    1
    59    41    42    1
    60    15    17   ar
    61    15    14    1
    62    75    72    1
    63    40    37    1
    64    13    14    1
    65    72    73    1
    66    74    73    2
    67    42    36    1
    68    39    38    2
    69    35    33   ar
    70    61    60    1
    71    51    50    1
    72    37    38    1
    73    37    36    1
    74    34    33   ar
    75    33    32    1
    76    36    29   am
    77    60    62    1
    78    60    59    2
    79    50    49    1
    80    31    32    1
    81    31    28    1
    82    29    28    1
    83    29    30    2
    84    54    53    1
    85    54    55    2
    86    58    59    1
    87    58    57    1
    88    28    27    1
    89    56    53    1
    90    56    57    1
    91    53    52    1
    92    49    48    1
    93    48    47    1
    94    47    44    1
    95    44    43    1
    96    44    45    1
    97    45    46    2
