@<TRIPOS>MOLECULE
tmp/5vo4A00.pdb
 170 159 0 0 0
SMALL
GASTEIGER

@<TRIPOS>ATOM
      1  N         -4.5440   33.1150   -3.3590 N.3    32  LEU32      -0.1245
      2  CA        -4.5860   33.4240   -1.9270 C.3    32  LEU32       0.1561
      3  C         -5.6800   32.6800   -1.1630 C.2    32  LEU32       0.2260
      4  O         -5.5020   32.3580    0.0140 O.2    32  LEU32      -0.2867
      5  CB        -4.6610   34.9360   -1.6770 C.3    32  LEU32       0.0270
      6  CG        -3.3270   35.6790   -1.4890 C.3    32  LEU32       0.0019
      7  CD1       -2.5580   35.1860   -0.2500 C.3    32  LEU32       0.0001
      8  CD2       -2.4380   35.5990   -2.7230 C.3    32  LEU32       0.0001
      9  N         -4.0630   29.1790   -0.6450 N.3    35  LEU35      -0.1231
     10  CA        -3.0960   29.2520    0.4570 C.3    35  LEU35       0.1693
     11  C         -3.7810   29.2740    1.8200 C.2    35  LEU35       0.2592
     12  O         -3.3470   28.5740    2.7420 O.2    35  LEU35      -0.2718
     13  CB        -2.1770   30.4690    0.3060 C.3    35  LEU35       0.0284
     14  CG        -1.0770   30.4000   -0.7640 C.3    35  LEU35       0.0019
     15  CD1       -0.5250   31.7850   -1.0410 C.3    35  LEU35       0.0001
     16  CD2        0.0390   29.4580   -0.3550 C.3    35  LEU35       0.0001
     17  N         -4.8440   30.0770    1.9390 N.am   36  ASN36      -0.1974
     18  CA        -5.6430   30.1510    3.1680 C.3    36  ASN36       0.1688
     19  C         -6.2780   28.8090    3.5290 C.2    36  ASN36       0.2292
     20  O         -6.2360   28.3930    4.6910 O.2    36  ASN36      -0.2864
     21  CB        -6.7230   31.2260    3.0560 C.3    36  ASN36       0.1181
     22  CG        -6.1660   32.6400    3.1590 C.2    36  ASN36       0.2629
     23  OD1       -5.0130   32.8490    3.5360 O.2    36  ASN36      -0.2716
     24  ND2       -6.9990   33.6220    2.8330 N.am   36  ASN36      -0.0877
     25  N         -5.1460   25.9200    2.4630 N.3    38  LEU38      -0.1231
     26  CA        -4.0010   25.0940    2.8310 C.3    38  LEU38       0.1693
     27  C         -3.6020   25.3760    4.2790 C.2    38  LEU38       0.2592
     28  O         -3.3050   24.4510    5.0290 O.2    38  LEU38      -0.2718
     29  CB        -2.8150   25.3300    1.8880 C.3    38  LEU38       0.0284
     30  CG        -1.5090   24.5600    2.1570 C.3    38  LEU38       0.0019
     31  CD1       -1.7230   23.0360    2.1800 C.3    38  LEU38       0.0001
     32  CD2       -0.4390   24.9420    1.1410 C.3    38  LEU38       0.0001
     33  N         -3.6130   26.6530    4.6620 N.am   39  GLY39      -0.1957
     34  CA        -3.3510   27.0520    6.0400 C.3    39  GLY39       0.1869
     35  C         -4.3160   26.3700    6.9900 C.2    39  GLY39       0.2309
     36  O         -3.9100   25.8240    8.0070 O.2    39  GLY39      -0.2863
     37  N         -3.5840   22.5470    7.0710 N.3    42  GLN42      -0.1245
     38  CA        -2.3740   22.4480    7.7990 C.3    42  GLN42       0.1566
     39  C         -2.4880   22.6690    9.2730 C.2    42  GLN42       0.2260
     40  O         -1.8280   22.0430   10.0050 O.2    42  GLN42      -0.2867
     41  CB        -1.3160   23.3060    7.1990 C.3    42  GLN42       0.0367
     42  CG        -0.0640   22.5370    7.1930 C.3    42  GLN42       0.0905
     43  CD         0.5170   22.4000    5.8440 C.2    42  GLN42       0.2608
     44  OE1        0.7910   21.3200    5.4070 O.2    42  GLN42      -0.2717
     45  NE2        0.6760   23.4900    5.1730 N.am   42  GLN42      -0.0878
     46  N          2.0060   28.6290   14.8090 N.3    72  TRP72      -0.1227
     47  CA         1.5300   28.0260   13.5660 C.3    72  TRP72       0.1737
     48  C          2.1640   28.5820   12.2770 C.2    72  TRP72       0.2595
     49  O          2.6130   27.8160   11.4320 O.2    72  TRP72      -0.2718
     50  CB        -0.0090   28.0250   13.5400 C.3    72  TRP72       0.0564
     51  CG        -0.6430   28.3870   12.2370 C.ar   72  TRP72       0.0003
     52  CD1       -0.9360   27.5460   11.2010 C.ar   72  TRP72       0.0946
     53  CD2       -1.0850   29.6900   11.8390 C.ar   72  TRP72       0.0152
     54  NE1       -1.5330   28.2500   10.1740 N.ar   72  TRP72      -0.2442
     55  CE2       -1.6320   29.5700   10.5410 C.ar   72  TRP72       0.0810
     56  CE3       -1.0750   30.9490   12.4550 C.ar   72  TRP72       0.0012
     57  CZ2       -2.1550   30.6680    9.8410 C.ar   72  TRP72       0.0191
     58  CZ3       -1.5940   32.0430   11.7590 C.ar   72  TRP72       0.0001
     59  CH2       -2.1290   31.8920   10.4670 C.ar   72  TRP72       0.0015
     60  N          2.2270   29.9030   12.1440 N.am   73  MET73      -0.1979
     61  CA         2.7740   30.5150   10.9270 C.3    73  MET73       0.1605
     62  C          4.2280   30.1210   10.6970 C.2    73  MET73       0.2287
     63  O          4.5930   29.7090    9.5910 O.2    73  MET73      -0.2864
     64  CB         2.6260   32.0430   10.9460 C.3    73  MET73       0.0413
     65  CG         3.0970   32.7310    9.6660 C.3    73  MET73       0.0598
     66  SD         2.1930   32.2080    8.1930 S.3    73  MET73      -0.1393
     67  CE         0.6720   33.1250    8.4600 C.3    73  MET73       0.0692
     68  N          4.7190   26.4500    9.8710 N.3    76  MET76      -0.1230
     69  CA         4.3110   26.1230    8.5040 C.3    76  MET76       0.1702
     70  C          5.3330   26.5820    7.4680 C.2    76  MET76       0.2592
     71  O          5.5750   25.8850    6.4820 O.2    76  MET76      -0.2718
     72  CB         2.9680   26.7610    8.1580 C.3    76  MET76       0.0401
     73  CG         1.7400   26.1800    8.8390 C.3    76  MET76       0.0596
     74  SD         0.2570   26.6120    7.9030 S.3    76  MET76      -0.1393
     75  CE         0.5540   28.3210    7.4400 C.3    76  MET76       0.0692
     76  N          5.8940   27.7710    7.6860 N.am   77  VAL77      -0.1980
     77  CA         6.9060   28.3490    6.8070 C.3    77  VAL77       0.1595
     78  C          8.1290   27.4480    6.7790 C.2    77  VAL77       0.2287
     79  O          8.6490   27.1130    5.7110 O.2    77  VAL77      -0.2864
     80  CB         7.3250   29.7640    7.2870 C.3    77  VAL77       0.0276
     81  CG1        8.5870   30.2360    6.5580 C.3    77  VAL77       0.0022
     82  CG2        6.2030   30.7560    7.0870 C.3    77  VAL77       0.0022
     83  N          7.4750   24.1950    5.1600 N.3    80  MET80      -0.1245
     84  CA         7.3480   24.4940    3.7290 C.3    80  MET80       0.1570
     85  C          8.7140   24.7070    3.0810 C.2    80  MET80       0.2261
     86  O          8.9430   24.2430    1.9640 O.2    80  MET80      -0.2867
     87  CB         6.4440   25.7060    3.4880 C.3    80  MET80       0.0387
     88  CG         6.0770   25.9320    2.0190 C.3    80  MET80       0.0595
     89  SD         7.3620   26.7740    1.0480 S.3    80  MET80      -0.1393
     90  CE         7.1120   28.4630    1.5620 C.3    80  MET80       0.0692
     91  N         10.2250   21.1440    2.6640 N.3    83  ARG83      -0.1245
     92  CA         9.5780   20.5480    1.4860 C.3    83  ARG83       0.1563
     93  C         10.1710   21.0720    0.1900 C.2    83  ARG83       0.2260
     94  O         10.4440   20.2990   -0.7200 O.2    83  ARG83      -0.2867
     95  CB         8.0850   20.8730    1.4580 C.3    83  ARG83       0.0307
     96  CG         7.2220   20.0090    2.3210 C.3    83  ARG83       0.0489
     97  CD         5.7570   20.0460    1.8510 C.3    83  ARG83       0.2205
     98  NE         5.0890   21.3420    1.9780 N.pl3  83  ARG83      -0.0865
     99  CZ         4.7530   21.9160    3.1350 C.cat  83  ARG83       0.5346
    100  NH1        5.0530   21.3390    4.2950 N.pl3  83  ARG83       0.1354
    101  NH2        4.1260   23.0840    3.1330 N.pl3  83  ARG83       0.1354
    102  N          4.5430   24.7490   -1.5550 N.3    95  PHE95      -0.1241
    103  CA         3.4900   24.8880   -0.5400 C.3    95  PHE95       0.1605
    104  C          2.7430   23.5580   -0.3560 C.2    95  PHE95       0.2264
    105  O          2.5560   23.0850    0.7710 O.2    95  PHE95      -0.2867
    106  CB         2.5170   26.0230   -0.9040 C.3    95  PHE95       0.0534
    107  CG         3.0920   27.4140   -0.7300 C.ar   95  PHE95      -0.0203
    108  CD1        3.1840   27.9950    0.5320 C.ar   95  PHE95      -0.0042
    109  CD2        3.5280   28.1420   -1.8290 C.ar   95  PHE95      -0.0042
    110  CE1        3.6990   29.2780    0.6980 C.ar   95  PHE95      -0.0003
    111  CE2        4.0520   29.4340   -1.6750 C.ar   95  PHE95      -0.0003
    112  CZ         4.1410   30.0010   -0.4060 C.ar   95  PHE95      -0.0000
    113  N          2.7900   38.8960   -2.7700 N.3   111  MET111     -0.1245
    114  CA         3.7040   38.6800   -1.6490 C.3   111  MET111      0.1570
    115  C          5.0420   38.1210   -2.1240 C.2   111  MET111      0.2261
    116  O          5.6210   37.2140   -1.5020 O.2   111  MET111     -0.2867
    117  CB         3.0750   37.8140   -0.5410 C.3   111  MET111      0.0387
    118  CG         2.4650   36.4980   -0.9870 C.3   111  MET111      0.0595
    119  SD         1.9850   35.4860    0.4330 S.3   111  MET111     -0.1393
    120  CE         2.2420   33.8480   -0.2220 C.3   111  MET111      0.0692
    121  N         11.2370   33.4850    2.2500 N.3   118  MET118     -0.1245
    122  CA        10.9110   32.0700    2.4730 C.3   118  MET118      0.1570
    123  C         11.7770   31.1230    1.6400 C.2   118  MET118      0.2261
    124  O         12.2180   30.0850    2.1310 O.2   118  MET118     -0.2867
    125  CB         9.4260   31.7980    2.2020 C.3   118  MET118      0.0387
    126  CG         8.5050   32.2910    3.3000 C.3   118  MET118      0.0595
    127  SD         6.8010   31.7330    3.1320 S.3   118  MET118     -0.1393
    128  CE         6.2070   32.7760    1.8120 C.3   118  MET118      0.0692
    129  N          4.6550   37.6520    7.1750 N.3   199  LEU199     -0.1245
    130  CA         3.4620   36.9080    6.7970 C.3   199  LEU199      0.1561
    131  C          2.2890   37.1900    7.7320 C.2   199  LEU199      0.2260
    132  O          1.1370   37.2120    7.2900 O.2   199  LEU199     -0.2867
    133  CB         3.7580   35.4100    6.7030 C.3   199  LEU199      0.0270
    134  CG         4.6140   35.0230    5.4920 C.3   199  LEU199      0.0019
    135  CD1        4.9420   33.5660    5.5340 C.3   199  LEU199      0.0001
    136  CD2        3.9210   35.3630    4.1710 C.3   199  LEU199      0.0001
    137  N          1.0470   40.6200    6.3840 N.3   202  PHE202     -0.1227
    138  CA         0.3800   40.4110    5.1020 C.3   202  PHE202      0.1736
    139  C         -0.9800   39.7290    5.2550 C.2   202  PHE202      0.2596
    140  O         -1.9750   40.1920    4.7010 O.2   202  PHE202     -0.2718
    141  CB         1.2700   39.6150    4.1480 C.3   202  PHE202      0.0547
    142  CG         0.6340   39.3360    2.8200 C.ar  202  PHE202     -0.0202
    143  CD1       -0.1430   38.1960    2.6320 C.ar  202  PHE202     -0.0042
    144  CD2        0.8190   40.2070    1.7490 C.ar  202  PHE202     -0.0042
    145  CE1       -0.7320   37.9330    1.4020 C.ar  202  PHE202     -0.0003
    146  CE2        0.2350   39.9510    0.5160 C.ar  202  PHE202     -0.0003
    147  CZ        -0.5450   38.8110    0.3430 C.ar  202  PHE202     -0.0000
    148  N         -1.0130   38.6260    5.9960 N.am  203  THR203     -0.1953
    149  CA        -2.2580   37.8770    6.1740 C.3   203  THR203      0.1897
    150  C         -3.3040   38.6760    6.9510 C.2   203  THR203      0.2313
    151  O         -4.4970   38.5600    6.6770 O.2   203  THR203     -0.2863
    152  CB        -2.0470   36.4760    6.8140 C.3   203  THR203      0.1794
    153  OG1       -3.2620   35.7330    6.7140 O.3   203  THR203     -0.2208
    154  CG2       -1.6610   36.5670    8.2860 C.3   203  THR203      0.0378
    155  N         -4.6660   41.4550    4.6210 N.3   206  LEU206     -0.1245
    156  CA        -5.5040   40.7190    3.6750 C.3   206  LEU206      0.1561
    157  C         -6.8630   40.3080    4.2630 C.2   206  LEU206      0.2260
    158  O         -7.8850   40.4260    3.5880 O.2   206  LEU206     -0.2867
    159  CB        -4.7490   39.5020    3.1260 C.3   206  LEU206      0.0270
    160  CG        -5.4020   38.6110    2.0620 C.3   206  LEU206      0.0019
    161  CD1       -5.8430   39.3930    0.8260 C.3   206  LEU206      0.0001
    162  CD2       -4.4370   37.5170    1.6800 C.3   206  LEU206      0.0001
    163  N         -8.7770   29.9330   10.3670 N.3   221  MET221     -0.1245
    164  CA        -7.8280   30.9340    9.8720 C.3   221  MET221      0.1570
    165  C         -8.2390   32.3270   10.3310 C.2   221  MET221      0.2261
    166  O         -7.4680   33.0190   10.9960 O.2   221  MET221     -0.2867
    167  CB        -7.7290   30.8950    8.3390 C.3   221  MET221      0.0387
    168  CG        -7.0010   29.6880    7.7780 C.3   221  MET221      0.0595
    169  SD        -5.2140   29.8380    7.9430 S.3   221  MET221     -0.1393
    170  CE        -4.9100   31.2420    6.8690 C.3   221  MET221      0.0692
@<TRIPOS>BOND
     1     1     2    1
     2   113   114    1
     3     8     6    1
     4   115   114    1
     5   115   116    2
     6     2     5    1
     7     2     3    1
     8   109   111   ar
     9   109   107   ar
    10     5     6    1
    11   111   112   ar
    12   114   117    1
    13   102   103    1
    14     6     7    1
    15     3     4    2
    16    15    14    1
    17   118   117    1
    18   118   119    1
    19   106   107    1
    20   106   103    1
    21    14    16    1
    22    14    13    1
    23   107   108   ar
    24    94    93    2
    25     9    10    1
    26   103   104    1
    27   112   110   ar
    28   104   105    2
    29   120   119    1
    30    93    92    1
    31    13    10    1
    32   147   146   ar
    33   147   145   ar
    34    10    11    1
    35   146   144   ar
    36   108   110   ar
    37   161   160    1
    38    89    90    1
    39    89    88    1
    40    32    30    1
    41   145   143   ar
    42    95    92    1
    43    95    96    1
    44    92    91    1
    45   123   124    2
    46   123   122    1
    47   162   160    1
    48   144   142   ar
    49   128   127    1
    50    11    17   am
    51    11    12    2
    52    97    98    1
    53    97    96    1
    54    29    30    1
    55    29    26    1
    56    17    18    1
    57    86    85    2
    58    98    99    2
    59    88    87    1
    60   160   159    1
    61    30    31    1
    62   125   122    1
    63   125   126    1
    64   121   122    1
    65    25    26    1
    66   143   142   ar
    67   142   141    1
    68    26    27    1
    69    24    22   am
    70    21    22    1
    71    21    18    1
    72    85    84    1
    73   159   156    1
    74   127   126    1
    75   101    99    1
    76    99   100    1
    77    22    23    2
    78    18    19    1
    79    87    84    1
    80    19    20    2
    81   158   157    2
    82   156   157    1
    83   156   155    1
    84    84    83    1
    85   141   138    1
    86   136   134    1
    87    27    33   am
    88    27    28    2
    89    33    34    1
    90   140   139    2
    91   138   139    1
    92   138   137    1
    93    45    43   am
    94   139   148   am
    95    44    43    2
    96   134   135    1
    97   134   133    1
    98    79    78    2
    99    43    42    1
   100   148   149    1
   101    34    35    1
   102   149   152    1
   103   149   150    1
   104    71    70    2
   105    81    80    1
   106   151   150    2
   107   133   130    1
   108   153   152    1
   109    78    77    1
   110   130   129    1
   111   130   131    1
   112    77    80    1
   113    77    76    1
   114   152   154    1
   115   170   169    1
   116    35    36    2
   117    37    38    1
   118    82    80    1
   119    42    41    1
   120    41    38    1
   121   132   131    2
   122    75    74    1
   123    70    76   am
   124    70    69    1
   125   168   169    1
   126   168   167    1
   127    38    39    1
   128    74    73    1
   129    72    69    1
   130    72    73    1
   131    66    67    1
   132    66    65    1
   133   167   164    1
   134    69    68    1
   135    39    40    2
   136    63    62    2
   137    65    64    1
   138    57    59   ar
   139    57    55   ar
   140   164   165    1
   141   164   163    1
   142    54    55   ar
   143    54    52   ar
   144   165   166    2
   145    59    58   ar
   146    55    53   ar
   147    62    61    1
   148    61    64    1
   149    61    60    1
   150    52    51   ar
   151    49    48    2
   152    58    56   ar
   153    53    51   ar
   154    53    56   ar
   155    60    48   am
   156    51    50    1
   157    48    47    1
   158    50    47    1
   159    47    46    1
