@<TRIPOS>MOLECULE
tmp/5vo6A00.pdb
 161 153 0 0 0
SMALL
GASTEIGER

@<TRIPOS>ATOM
      1  N          2.9410  -18.9330    0.9440 N.3    14  LEU14      -0.1231
      2  CA         2.3430  -19.0060   -0.3950 C.3    14  LEU14       0.1693
      3  C          3.4900  -19.1550   -1.4360 C.2    14  LEU14       0.2592
      4  O          3.4760  -20.0670   -2.2740 O.2    14  LEU14      -0.2718
      5  CB         1.4810  -17.7720   -0.6890 C.3    14  LEU14       0.0284
      6  CG         0.3670  -17.3970    0.3020 C.3    14  LEU14       0.0019
      7  CD1       -0.0550  -15.9320    0.1090 C.3    14  LEU14       0.0001
      8  CD2       -0.8360  -18.3140    0.1570 C.3    14  LEU14       0.0001
      9  N          4.5040  -18.2920   -1.3020 N.am   15  GLY15      -0.1957
     10  CA         5.6910  -18.2720   -2.1500 C.3    15  GLY15       0.1869
     11  C          6.9760  -18.5420   -1.3950 C.2    15  GLY15       0.2309
     12  O          7.0600  -18.3150   -0.1860 O.2    15  GLY15      -0.2863
     13  N          6.6560  -15.1720    0.0460 N.3    18  VAL18      -0.1245
     14  CA         5.3500  -14.5230    0.1130 C.3    18  VAL18       0.1561
     15  C          4.5570  -15.3190    1.1460 C.2    18  VAL18       0.2260
     16  O          4.3940  -16.5300    1.0250 O.2    18  VAL18      -0.2867
     17  CB         4.6410  -14.4180   -1.2680 C.3    18  VAL18       0.0252
     18  CG1        3.2730  -13.7320   -1.1480 C.3    18  VAL18       0.0019
     19  CG2        5.5190  -13.6760   -2.2590 C.3    18  VAL18       0.0019
     20  N         -1.2330  -10.4390    1.8020 N.3    35  ALA35      -0.1245
     21  CA        -0.1250  -11.1580    1.1860 C.3    35  ALA35       0.1562
     22  C          1.1260  -10.3180    1.4710 C.2    35  ALA35       0.2260
     23  O          1.1950   -9.1420    1.0990 O.2    35  ALA35      -0.2867
     24  CB        -0.3590  -11.3190   -0.3090 C.3    35  ALA35       0.0290
     25  N         -2.4690   -6.8560   -9.2180 N.3    66  VAL66      -0.1245
     26  CA        -2.5930   -7.1220   -7.7840 C.3    66  VAL66       0.1561
     27  C         -2.3230   -5.8340   -7.0130 C.2    66  VAL66       0.2260
     28  O         -1.3590   -5.1350   -7.3120 O.2    66  VAL66      -0.2867
     29  CB        -1.7660   -8.3500   -7.3170 C.3    66  VAL66       0.0252
     30  CG1       -0.2720   -8.0660   -7.2970 C.3    66  VAL66       0.0019
     31  CG2       -2.2470   -8.8630   -5.9720 C.3    66  VAL66       0.0019
     32  N          0.6450   -6.6370    0.1520 N.3    84  MET84      -0.1230
     33  CA        -0.2790   -6.6220   -0.9810 C.3    84  MET84       0.1702
     34  C         -1.5780   -7.2480   -0.4990 C.2    84  MET84       0.2592
     35  O         -1.6610   -7.7120    0.6340 O.2    84  MET84      -0.2718
     36  CB         0.2580   -7.4510   -2.1550 C.3    84  MET84       0.0401
     37  CG         1.5240   -6.9520   -2.7250 C.3    84  MET84       0.0596
     38  SD         2.5050   -8.3720   -3.1890 S.3    84  MET84      -0.1393
     39  CE         2.3130   -8.3300   -4.8310 C.3    84  MET84       0.0692
     40  N         -2.5830   -7.2930   -1.3490 N.am   85  GLU85      -0.1966
     41  CA        -3.8430   -7.9120   -0.9760 C.3    85  GLU85       0.1733
     42  C         -3.7270   -9.4340   -1.2010 C.2    85  GLU85       0.2616
     43  O         -2.8940   -9.8920   -2.0040 O.2    85  GLU85      -0.2715
     44  CB        -4.9740   -7.3470   -1.8410 C.3    85  GLU85       0.0429
     45  CG        -4.6690   -7.4790   -3.3230 C.3    85  GLU85       0.1163
     46  CD        -5.8410   -7.4260   -4.2730 C.2    85  GLU85       0.3649
     47  OE1       -7.0020   -7.4090   -3.8020 O.co2  85  GLU85      -0.2457
     48  OE2       -5.5950   -7.4780   -5.4990 O.co2  85  GLU85      -0.2457
     49  N         -4.5930  -10.2000   -0.5170 N.am   86  TYR86      -0.1960
     50  CA        -4.6540  -11.6370   -0.6770 C.3    86  TYR86       0.1771
     51  C         -5.9340  -11.9620   -1.4300 C.2    86  TYR86       0.2619
     52  O         -6.9760  -11.3560   -1.1650 O.2    86  TYR86      -0.2715
     53  CB        -4.6320  -12.3160    0.6900 C.3    86  TYR86       0.0574
     54  CG        -4.8420  -13.8130    0.6690 C.ar   86  TYR86      -0.0198
     55  CD1       -3.8430  -14.6690    0.2190 C.ar   86  TYR86      -0.0009
     56  CD2       -6.0020  -14.3810    1.1930 C.ar   86  TYR86      -0.0009
     57  CE1       -3.9980  -16.0540    0.2720 C.ar   86  TYR86       0.0417
     58  CE2       -6.1580  -15.7660    1.2770 C.ar   86  TYR86       0.0417
     59  CZ        -5.1540  -16.5970    0.8090 C.ar   86  TYR86       0.1957
     60  OH        -5.2930  -17.9540    0.8520 O.3    86  TYR86      -0.2866
     61  N         -5.8400  -12.8950   -2.3950 N.am   87  LEU87      -0.1964
     62  CA        -6.9510  -13.3460   -3.2350 C.3    87  LEU87       0.1713
     63  C         -7.1960  -14.8060   -2.9060 C.2    87  LEU87       0.2458
     64  O         -6.4110  -15.6600   -3.3150 O.2    87  LEU87      -0.2730
     65  CB        -6.6520  -13.0860   -4.7360 C.3    87  LEU87       0.0310
     66  CG        -7.2400  -11.7750   -5.3930 C.3    87  LEU87       0.0022
     67  CD1       -7.3070  -10.6320   -4.4460 C.3    87  LEU87       0.0001
     68  CD2       -6.4210  -11.3100   -6.5680 C.3    87  LEU87       0.0001
     69  N         -8.2170  -15.0950   -2.0580 N.am   88  PRO88      -0.2716
     70  CA        -8.4310  -16.4810   -1.5790 C.3    88  PRO88       0.1536
     71  C         -8.4790  -17.5610   -2.6430 C.2    88  PRO88       0.2599
     72  O         -7.9670  -18.6580   -2.4030 O.2    88  PRO88      -0.2715
     73  CB        -9.7500  -16.4040   -0.8140 C.3    88  PRO88       0.0310
     74  CG        -9.9440  -15.0060   -0.4950 C.3    88  PRO88       0.0237
     75  CD        -9.1800  -14.1570   -1.4460 C.3    88  PRO88       0.0939
     76  N         -9.0700  -17.2580   -3.8270 N.am   89  SER89      -0.1936
     77  CA        -9.1570  -18.2020   -4.9430 C.3    89  SER89       0.2055
     78  C         -7.7810  -18.6600   -5.4380 C.2    89  SER89       0.2644
     79  O         -7.6850  -19.7200   -6.0690 O.2    89  SER89      -0.2714
     80  CB        -9.9640  -17.6140   -6.0890 C.3    89  SER89       0.2130
     81  OG       -11.1600  -17.0610   -5.5750 O.3    89  SER89      -0.2179
     82  N         -6.7430  -17.8880   -5.1190 N.am   90  GLY90      -0.1939
     83  CA        -5.3810  -18.2190   -5.4960 C.3    90  GLY90       0.2014
     84  C         -5.0130  -18.0610   -6.9610 C.2    90  GLY90       0.2639
     85  O         -5.6930  -17.3560   -7.7080 O.2    90  GLY90      -0.2714
     86  N         -3.9200  -18.7130   -7.3750 N.am   91  CYS91      -0.1967
     87  CA        -3.4260  -18.5950   -8.7360 C.3    91  CYS91       0.1712
     88  C         -4.3400  -19.2560   -9.7640 C.2    91  CYS91       0.2296
     89  O         -5.0450  -20.2330   -9.4660 O.2    91  CYS91      -0.2864
     90  CB        -1.9780  -19.0740   -8.8610 C.3    91  CYS91       0.0983
     91  SG        -1.7600  -20.8720   -8.7200 S.3    91  CYS91      -0.0798
     92  N         -3.4520  -21.0010  -12.2330 N.3    93  ARG93      -0.1231
     93  CA        -2.9430  -22.3470  -12.5570 C.3    93  ARG93       0.1694
     94  C         -3.7300  -23.4400  -11.8300 C.2    93  ARG93       0.2592
     95  O         -4.2170  -24.3800  -12.4580 O.2    93  ARG93      -0.2718
     96  CB        -1.4480  -22.4610  -12.2190 C.3    93  ARG93       0.0321
     97  CG        -0.7860  -23.7510  -12.7120 C.3    93  ARG93       0.0489
     98  CD         0.6050  -23.9040  -12.1480 C.3    93  ARG93       0.2205
     99  NE         0.6190  -23.7370  -10.6930 N.pl3  93  ARG93      -0.0865
    100  CZ         1.6990  -23.4400   -9.9750 C.cat  93  ARG93       0.5346
    101  NH1        2.8790  -23.2760  -10.5690 N.pl3  93  ARG93       0.1354
    102  NH2        1.6090  -23.3050   -8.6590 N.pl3  93  ARG93       0.1354
    103  N         -3.8840  -23.2790  -10.5140 N.am   94  ASP94      -0.1974
    104  CA        -4.6150  -24.2080   -9.6750 C.3    94  ASP94       0.1709
    105  C         -6.1270  -24.1270   -9.9200 C.2    94  ASP94       0.2293
    106  O         -6.7760  -25.1620  -10.0590 O.2    94  ASP94      -0.2864
    107  CB        -4.2370  -23.9920   -8.2040 C.3    94  ASP94       0.1436
    108  CG        -2.8240  -24.4540   -7.8670 C.2    94  ASP94       0.3671
    109  OD1       -2.4290  -25.5610   -8.3250 O.co2  94  ASP94      -0.2456
    110  OD2       -2.1320  -23.7430   -7.1010 O.co2  94  ASP94      -0.2456
    111  N         -8.7730  -26.9780  -10.8520 N.3    98  ARG98      -0.1197
    112  CA        -9.8330  -27.3060   -9.8780 C.3    98  ARG98       0.1779
    113  C        -11.2330  -27.1270  -10.4410 C.2    98  ARG98       0.2305
    114  O        -12.1490  -27.7900   -9.9670 O.2    98  ARG98      -0.2863
    115  CB        -9.7140  -26.4680   -8.5920 C.2    98  ARG98      -0.0007
    116  CG        -8.4150  -26.6650   -7.8060 C.2    98  ARG98       0.0176
    117  CD        -8.2710  -25.8160   -6.5290 C.3    98  ARG98       0.2464
    118  NE        -9.1300  -24.6260   -6.4990 N.pl3  98  ARG98      -0.0815
    119  CZ        -8.6960  -23.3810   -6.3310 C.cat  98  ARG98       0.5349
    120  NH1       -7.4040  -23.1380   -6.1610 N.pl3  98  ARG98       0.1354
    121  NH2       -9.5550  -22.3710   -6.3050 N.pl3  98  ARG98       0.1354
    122  N          0.7930  -19.2360  -13.2750 N.3   135  ARG135     -0.1231
    123  CA         1.1670  -19.3820  -11.8640 C.3   135  ARG135      0.1694
    124  C          1.2920  -18.0130  -11.1670 C.2   135  ARG135      0.2592
    125  O          1.2560  -17.9640   -9.9390 O.2   135  ARG135     -0.2718
    126  CB         2.4920  -20.1610  -11.7390 C.3   135  ARG135      0.0321
    127  CG         3.7170  -19.3860  -12.2450 C.3   135  ARG135      0.0489
    128  CD         5.0680  -20.0310  -11.9710 C.3   135  ARG135      0.2205
    129  NE         6.1250  -19.3220  -12.7030 N.pl3 135  ARG135     -0.0865
    130  CZ         6.4930  -19.6070  -13.9550 C.cat 135  ARG135      0.5346
    131  NH1        5.9240  -20.6160  -14.6130 N.pl3 135  ARG135      0.1354
    132  NH2        7.4490  -18.8980  -14.5490 N.pl3 135  ARG135      0.1354
    133  N          1.4810  -16.9290  -11.9630 N.am  136  ASN136     -0.1974
    134  CA         1.7090  -15.5380  -11.5430 C.3   136  ASN136      0.1688
    135  C          0.5170  -14.6330  -11.7120 C.2   136  ASN136      0.2292
    136  O          0.6150  -13.4310  -11.4350 O.2   136  ASN136     -0.2864
    137  CB         2.9350  -14.9470  -12.2620 C.3   136  ASN136      0.1181
    138  CG         4.2310  -15.3890  -11.6420 C.2   136  ASN136      0.2629
    139  OD1        4.2580  -16.1420  -10.6660 O.2   136  ASN136     -0.2716
    140  ND2        5.3330  -14.8540  -12.1270 N.am  136  ASN136     -0.0877
    141  N         -3.5100  -14.1970  -10.5110 N.3   138  LEU138     -0.1245
    142  CA        -4.4410  -14.5210   -9.4260 C.3   138  LEU138      0.1561
    143  C         -5.8960  -14.2850   -9.8150 C.2   138  LEU138      0.2260
    144  O         -6.2120  -13.3590  -10.5690 O.2   138  LEU138     -0.2867
    145  CB        -4.1390  -13.6760   -8.1920 C.3   138  LEU138      0.0270
    146  CG        -2.7870  -13.8370   -7.5490 C.3   138  LEU138      0.0019
    147  CD1       -2.4710  -12.6360   -6.7710 C.3   138  LEU138      0.0001
    148  CD2       -2.7340  -15.0660   -6.6830 C.3   138  LEU138      0.0001
    149  N          0.1480  -10.7200  -10.8950 N.3   148  ALA148     -0.1231
    150  CA         0.9610  -10.6430   -9.6910 C.3   148  ALA148      0.1694
    151  C          2.4300  -11.0590   -9.9910 C.2   148  ALA148      0.2592
    152  O          2.7610  -11.2340  -11.1550 O.2   148  ALA148     -0.2718
    153  CB         0.3410  -11.4740   -8.5790 C.3   148  ALA148      0.0304
    154  N          3.3010  -11.1640   -8.9460 N.am  149  ASP149     -0.1974
    155  CA         4.7390  -11.4560   -8.9690 C.3   149  ASP149      0.1709
    156  C          5.5320  -10.3880   -9.7530 C.2   149  ASP149      0.2293
    157  O          5.7740  -10.5450  -10.9570 O.2   149  ASP149     -0.2864
    158  CB         5.0620  -12.8900   -9.4200 C.3   149  ASP149      0.1436
    159  CG         6.5320  -13.2950   -9.2980 C.2   149  ASP149      0.3671
    160  OD1        7.3190  -12.5400   -8.6550 O.co2 149  ASP149     -0.2456
    161  OD2        6.8960  -14.3700   -9.8290 O.co2 149  ASP149     -0.2456
@<TRIPOS>BOND
     1   131   130    1
     2   132   130    1
     3   130   129    2
     4   122   123    1
     5    97    96    1
     6    97    98    1
     7   129   128    1
     8    93    92    1
     9    93    96    1
    10    93    94    1
    11    95    94    2
    12   137   138    1
    13   137   134    1
    14   127   128    1
    15   127   126    1
    16    98    99    1
    17   140   138   am
    18   133   134    1
    19   133   124   am
    20   123   126    1
    21   123   124    1
    22    94   103   am
    23   135   134    1
    24   135   136    2
    25   138   139    2
    26   124   125    2
    27   152   151    2
    28   157   156    2
    29   149   150    1
    30   111   112    1
    31    99   100    2
    32   144   143    2
    33   101   100    1
    34   103   104    1
    35   141   142    1
    36   113   114    2
    37   113   112    1
    38   106   105    2
    39   151   150    1
    40   151   154   am
    41   100   102    1
    42   105   104    1
    43   112   115    1
    44   161   159   ar
    45   143   142    1
    46    88    89    2
    47    88    87    1
    48   156   155    1
    49   150   153    1
    50   104   107    1
    51   142   145    1
    52   158   159    1
    53   158   155    1
    54   159   160   ar
    55    25    26    1
    56   155   154    1
    57    90    87    1
    58    90    91    1
    59    87    86    1
    60   115   116    2
    61   109   108   ar
    62   107   108    1
    63   145   146    1
    64   108   110   ar
    65   116   117    1
    66    26    29    1
    67    26    27    1
    68    85    84    2
    69   146   147    1
    70   146   148    1
    71    86    84   am
    72    29    30    1
    73    29    31    1
    74    28    27    2
    75    84    83    1
    76    68    66    1
    77   117   118    1
    78   118   119    2
    79   119   121    1
    80   119   120    1
    81    80    81    1
    82    80    77    1
    83    79    78    2
    84    48    46   ar
    85    83    82    1
    86    78    82   am
    87    78    77    1
    88    66    65    1
    89    66    67    1
    90    77    76    1
    91    39    38    1
    92    65    62    1
    93    46    47   ar
    94    46    45    1
    95    76    71   am
    96    45    44    1
    97    64    63    2
    98    62    63    1
    99    62    61    1
   100    38    37    1
   101    63    69   am
   102    37    36    1
   103    71    72    2
   104    71    70    1
   105    61    51   am
   106     4     3    2
   107    19    17    1
   108    36    33    1
   109    10    11    1
   110    10     9    1
   111    69    70    1
   112    69    75    1
   113    43    42    2
   114    44    41    1
   115    70    73    1
   116    75    74    1
   117     3     9   am
   118     3     2    1
   119    51    52    2
   120    51    50    1
   121    11    12    2
   122    40    41    1
   123    40    34   am
   124    17    18    1
   125    17    14    1
   126    42    41    1
   127    42    49   am
   128    33    34    1
   129    33    32    1
   130    73    74    1
   131     5     2    1
   132     5     6    1
   133    50    49    1
   134    50    53    1
   135    34    35    2
   136     2     1    1
   137    24    21    1
   138    13    14    1
   139     7     6    1
   140    14    15    1
   141     8     6    1
   142    55    57   ar
   143    55    54   ar
   144    57    59   ar
   145    54    53    1
   146    54    56   ar
   147    59    60    1
   148    59    58   ar
   149    16    15    2
   150    23    22    2
   151    21    22    1
   152    21    20    1
   153    56    58   ar
