@<TRIPOS>MOLECULE
tmp/5vofA00.pdb
 174 173 0 0 0
SMALL
GASTEIGER

@<TRIPOS>ATOM
      1  N         -7.6290  -18.7520  -14.1840 N.3    42  HIS42      -0.1241
      2  CA        -6.1610  -18.7860  -14.2140 C.3    42  HIS42       0.1621
      3  C         -5.6070  -20.0690  -14.8630 C.2    42  HIS42       0.2264
      4  O         -4.4900  -20.0650  -15.3780 O.2    42  HIS42      -0.2867
      5  CB        -5.5540  -18.5450  -12.8180 C.3    42  HIS42       0.0745
      6  CG        -5.4830  -19.7680  -11.9550 C.ar   42  HIS42       0.0817
      7  ND1       -4.3800  -20.5960  -11.9230 N.ar   42  HIS42      -0.2268
      8  CD2       -6.3660  -20.2900  -11.0770 C.ar   42  HIS42       0.1154
      9  CE1       -4.5940  -21.5810  -11.0690 C.ar   42  HIS42       0.1986
     10  NE2       -5.7930  -21.4190  -10.5420 N.ar   42  HIS42      -0.2212
     11  N         -4.9900  -11.7190  -12.6550 N.3    82  LYS82      -0.1231
     12  CA        -3.9260  -12.5420  -12.0440 C.3    82  LYS82       0.1693
     13  C         -3.2070  -11.8370  -10.8830 C.2    82  LYS82       0.2592
     14  O         -2.5920  -12.5050  -10.0590 O.2    82  LYS82      -0.2718
     15  CB        -2.9140  -13.1380  -13.0580 C.3    82  LYS82       0.0285
     16  CG        -2.7780  -12.4870  -14.4250 C.3    82  LYS82       0.0035
     17  CD        -1.7540  -13.2400  -15.2620 C.3    82  LYS82       0.0206
     18  CE        -1.7360  -12.7640  -16.7010 C.3    82  LYS82       0.1093
     19  NZ        -1.2020  -11.3780  -16.8380 N.3    82  LYS82      -0.1314
     20  N         -3.2860  -10.5060  -10.8170 N.am   83  GLU83      -0.1966
     21  CA        -2.7160   -9.7540   -9.6920 C.3    83  GLU83       0.1733
     22  C         -3.4010  -10.0640   -8.3570 C.2    83  GLU83       0.2617
     23  O         -2.7440  -10.0350   -7.3220 O.2    83  GLU83      -0.2715
     24  CB        -2.7370   -8.2370   -9.9490 C.3    83  GLU83       0.0429
     25  CG        -1.5540   -7.7120  -10.7620 C.3    83  GLU83       0.1163
     26  CD        -1.5940   -8.1000  -12.2360 C.2    83  GLU83       0.3649
     27  OE1       -2.7010   -8.1200  -12.8290 O.co2  83  GLU83      -0.2457
     28  OE2       -0.5100   -8.3730  -12.8080 O.co2  83  GLU83      -0.2457
     29  N         -4.7080  -10.3400   -8.3780 N.am   84  THR84      -0.1937
     30  CA        -5.4500  -10.7300   -7.1650 C.3    84  THR84       0.2028
     31  C         -6.1160  -12.0930   -7.1930 C.2    84  THR84       0.2642
     32  O         -6.5860  -12.5360   -6.1530 O.2    84  THR84      -0.2714
     33  CB        -6.5480   -9.7010   -6.8320 C.3    84  THR84       0.1808
     34  OG1       -7.4760   -9.6130   -7.9250 O.3    84  THR84      -0.2208
     35  CG2       -5.9170   -8.3340   -6.5530 C.3    84  THR84       0.0379
     36  N         -6.1650  -12.7590   -8.3500 N.am   85  TYR85      -0.1973
     37  CA        -6.9710  -13.9990   -8.5490 C.3    85  TYR85       0.1639
     38  C         -8.4770  -13.8010   -8.2490 C.2    85  TYR85       0.2290
     39  O         -9.2060  -14.7660   -7.9630 O.2    85  TYR85      -0.2864
     40  CB        -6.3860  -15.2090   -7.7780 C.3    85  TYR85       0.0560
     41  CG        -5.2850  -15.9510   -8.5180 C.ar   85  TYR85      -0.0198
     42  CD1       -4.2150  -15.2640   -9.0980 C.ar   85  TYR85      -0.0009
     43  CD2       -5.3040  -17.3500   -8.6370 C.ar   85  TYR85      -0.0009
     44  CE1       -3.2110  -15.9340   -9.7850 C.ar   85  TYR85       0.0417
     45  CE2       -4.3010  -18.0290   -9.3220 C.ar   85  TYR85       0.0417
     46  CZ        -3.2620  -17.3150   -9.8990 C.ar   85  TYR85       0.1957
     47  OH        -2.2500  -17.9660  -10.5600 O.3    85  TYR85      -0.2866
     48  N          3.4320  -30.0350   -1.0960 N.3   135  GLU135     -0.1245
     49  CA         3.8550  -28.8290   -1.7370 C.3   135  GLU135      0.1567
     50  C          5.0100  -29.0480   -2.6750 C.2   135  GLU135      0.2260
     51  O          4.8960  -28.7500   -3.8440 O.2   135  GLU135     -0.2867
     52  CB         4.2300  -27.8280   -0.6780 C.3   135  GLU135      0.0388
     53  CG         4.1590  -26.4120   -1.1460 C.3   135  GLU135      0.1160
     54  CD         4.4730  -25.4680   -0.0610 C.2   135  GLU135      0.3649
     55  OE1        5.2190  -24.5450   -0.2870 O.co2 135  GLU135     -0.2457
     56  OE2        4.0020  -25.6560    1.0260 O.co2 135  GLU135     -0.2457
     57  N         -2.6380  -12.1050    0.8500 N.3   160  PHE160     -0.1241
     58  CA        -3.3030  -11.4630   -0.2870 C.3   160  PHE160      0.1605
     59  C         -4.7290  -11.1210    0.0960 C.2   160  PHE160      0.2264
     60  O         -5.2760  -11.6590    1.0610 O.2   160  PHE160     -0.2867
     61  CB        -3.2980  -12.3890   -1.5030 C.3   160  PHE160      0.0534
     62  CG        -1.9210  -12.8410   -1.9170 C.ar  160  PHE160     -0.0203
     63  CD1       -1.3190  -13.9400   -1.3110 C.ar  160  PHE160     -0.0042
     64  CD2       -1.2150  -12.1590   -2.9060 C.ar  160  PHE160     -0.0042
     65  CE1       -0.0490  -14.3520   -1.6880 C.ar  160  PHE160     -0.0003
     66  CE2        0.0570  -12.5680   -3.2870 C.ar  160  PHE160     -0.0003
     67  CZ         0.6410  -13.6670   -2.6770 C.ar  160  PHE160     -0.0000
     68  N         -5.0530  -30.3390    2.4470 N.3   177  ASP177     -0.1225
     69  CA        -5.3570  -29.1600    1.6330 C.3   177  ASP177      0.1805
     70  C         -5.4000  -29.6220    0.1920 C.2   177  ASP177      0.2598
     71  O         -4.9520  -30.7280   -0.1290 O.2   177  ASP177     -0.2718
     72  CB        -4.2400  -28.0990    1.7880 C.3   177  ASP177      0.1424
     73  CG        -4.6690  -26.6770    1.3880 C.2   177  ASP177      0.3668
     74  OD1       -5.8030  -26.4650    0.9150 O.co2 177  ASP177     -0.2456
     75  OD2       -3.8230  -25.7540    1.5420 O.co2 177  ASP177     -0.2456
     76  N         -5.9150  -28.7670   -0.6810 N.am  178  ALA178     -0.1966
     77  CA        -5.6710  -28.9110   -2.1110 C.3   178  ALA178      0.1728
     78  C         -4.2380  -28.4580   -2.3750 C.2   178  ALA178      0.2616
     79  O         -3.5610  -27.9610   -1.4750 O.2   178  ALA178     -0.2715
     80  CB        -6.6580  -28.0810   -2.9120 C.3   178  ALA178      0.0334
     81  N         -3.7720  -28.6490   -3.6010 N.am  179  CYS179     -0.1954
     82  CA        -2.4120  -28.2740   -3.9690 C.3   179  CYS179      0.1843
     83  C         -2.3070  -27.9780   -5.4660 C.2   179  CYS179      0.2625
     84  O         -3.3040  -28.0600   -6.2050 O.2   179  CYS179     -0.2714
     85  CB        -1.4290  -29.3880   -3.5540 C.3   179  CYS179      0.1000
     86  SG         0.2910  -28.8820   -3.2440 S.3   179  CYS179     -0.0756
     87  N         -1.0950  -27.6170   -5.8870 N.am  180  GLN180     -0.1977
     88  CA        -0.7650  -27.3940   -7.2910 C.3   180  GLN180      0.1601
     89  C         -1.2780  -28.5470   -8.1430 C.2   180  GLN180      0.2287
     90  O         -0.9810  -29.7050   -7.8640 O.2   180  GLN180     -0.2864
     91  CB         0.7500  -27.3020   -7.4600 C.3   180  GLN180      0.0394
     92  CG         1.2150  -26.8970   -8.8470 C.3   180  GLN180      0.0908
     93  CD         1.1710  -25.4020   -9.0380 C.2   180  GLN180      0.2608
     94  OE1        1.9450  -24.6690   -8.4180 O.2   180  GLN180     -0.2717
     95  NE2        0.2720  -24.9370   -9.9000 N.am  180  GLN180     -0.0878
     96  N         -6.2490  -26.9000   -8.9910 N.3   183  ALA183     -0.1245
     97  CA        -6.9420  -25.6780   -9.4190 C.3   183  ALA183      0.1562
     98  C         -7.9300  -25.8980  -10.5420 C.2   183  ALA183      0.2260
     99  O         -7.6560  -26.6230  -11.5030 O.2   183  ALA183     -0.2867
    100  CB        -5.9440  -24.6140   -9.8490 C.3   183  ALA183      0.0290
    101  N        -11.4970  -24.7240   -6.8730 N.3   201  VAL201     -0.1231
    102  CA       -10.1410  -24.6650   -6.3280 C.3   201  VAL201      0.1692
    103  C         -9.4410  -23.5210   -7.0510 C.2   201  VAL201      0.2593
    104  O         -9.3660  -23.5220   -8.2850 O.2   201  VAL201     -0.2718
    105  CB        -9.3580  -25.9770   -6.5560 C.3   201  VAL201      0.0266
    106  CG1       -7.9660  -25.9020   -5.9300 C.3   201  VAL201      0.0020
    107  CG2      -10.1170  -27.1660   -5.9830 C.3   201  VAL201      0.0020
    108  N         -8.9670  -22.5370   -6.2940 N.am  202  SER202     -0.1938
    109  CA        -8.4120  -21.3290   -6.8900 C.3   202  SER202      0.2055
    110  C         -6.9290  -21.1890   -6.5830 C.2   202  SER202      0.2643
    111  O         -6.1190  -21.2180   -7.4990 O.2   202  SER202     -0.2714
    112  CB        -9.2000  -20.0880   -6.4430 C.3   202  SER202      0.2130
    113  OG        -8.8200  -18.9680   -7.2070 O.3   202  SER202     -0.2179
    114  N         -6.5910  -21.0310   -5.3020 N.am  203  TRP203     -0.1959
    115  CA        -5.2170  -20.7700   -4.8790 C.3   203  TRP203      0.1771
    116  C         -5.0100  -20.9450   -3.3830 C.2   203  TRP203      0.2620
    117  O         -5.9500  -21.0590   -2.6120 O.2   203  TRP203     -0.2715
    118  CB        -4.7620  -19.3640   -5.2910 C.3   203  TRP203      0.0590
    119  CG        -5.4960  -18.2460   -4.6180 C.ar  203  TRP203      0.0006
    120  CD1       -6.6940  -17.7200   -4.9890 C.ar  203  TRP203      0.0946
    121  CD2       -5.0770  -17.5180   -3.4590 C.ar  203  TRP203      0.0152
    122  NE1       -7.0500  -16.7080   -4.1380 N.ar  203  TRP203     -0.2442
    123  CE2       -6.0700  -16.5540   -3.1940 C.ar  203  TRP203      0.0810
    124  CE3       -3.9530  -17.5790   -2.6260 C.ar  203  TRP203      0.0012
    125  CZ2       -5.9840  -15.6600   -2.1210 C.ar  203  TRP203      0.0191
    126  CZ3       -3.8640  -16.6830   -1.5530 C.ar  203  TRP203      0.0001
    127  CH2       -4.8790  -15.7460   -1.3090 C.ar  203  TRP203      0.0015
    128  N         -3.7420  -20.9870   -3.0070 N.am  204  GLY204     -0.1940
    129  CA        -3.3150  -21.0820   -1.6180 C.3   204  GLY204      0.2014
    130  C         -1.8550  -20.6960   -1.5830 C.2   204  GLY204      0.2639
    131  O         -1.1890  -20.7430   -2.6100 O.2   204  GLY204     -0.2714
    132  N         -1.3570  -20.3070   -0.4350 N.am  205  GLU205     -0.1963
    133  CA         0.0320  -19.9510   -0.2810 C.3   205  GLU205      0.1733
    134  C          0.7410  -21.2440    0.0610 C.2   205  GLU205      0.2617
    135  O          0.8450  -21.6220    1.1960 O.2   205  GLU205     -0.2715
    136  CB         0.1730  -18.9410    0.8240 C.3   205  GLU205      0.0429
    137  CG        -0.5040  -17.6190    0.5360 C.3   205  GLU205      0.1163
    138  CD        -0.2740  -16.6220    1.6240 C.2   205  GLU205      0.3649
    139  OE1        0.8710  -16.2930    1.8650 O.co2 205  GLU205     -0.2457
    140  OE2       -1.2140  -16.1770    2.2550 O.co2 205  GLU205     -0.2457
    141  N          1.2050  -21.9300   -0.9530 N.am  206  GLY206     -0.1940
    142  CA         1.7910  -23.2210   -0.7550 C.3   206  GLY206      0.2014
    143  C          0.6760  -24.2480   -0.7040 C.2   206  GLY206      0.2642
    144  O         -0.2370  -24.1670   -1.4660 O.2   206  GLY206     -0.2714
    145  N          0.7770  -25.2090    0.1990 N.am  207  CYS207     -0.1925
    146  CA        -0.1730  -26.2760    0.3680 C.3   207  CYS207      0.1884
    147  C         -0.0860  -26.7760    1.8100 C.2   207  CYS207      0.2338
    148  O          0.9710  -27.0460    2.2750 O.2   207  CYS207     -0.2860
    149  CB         0.1510  -27.4460   -0.5620 C.2   207  CYS207      0.0448
    150  SG         0.1590  -27.3360   -2.3640 S.3   207  CYS207     -0.0571
    151  N         -6.9210  -23.1650    2.1220 N.3   214  GLY214     -0.1210
    152  CA        -7.2360  -23.2150    0.7010 C.3   214  GLY214      0.1956
    153  C         -8.1960  -22.0900    0.3630 C.2   214  GLY214      0.2612
    154  O         -9.1510  -21.8580    1.1010 O.2   214  GLY214     -0.2717
    155  N         -7.9370  -21.3890   -0.7410 N.am  215  ILE215     -0.1965
    156  CA        -8.8090  -20.3160   -1.2040 C.3   215  ILE215      0.1727
    157  C         -9.5680  -20.8280   -2.4270 C.2   215  ILE215      0.2616
    158  O         -8.9630  -21.3430   -3.3820 O.2   215  ILE215     -0.2715
    159  CB        -8.0390  -19.0330   -1.5620 C.3   215  ILE215      0.0290
    160  CG1       -6.9060  -18.7700   -0.5500 C.3   215  ILE215      0.0022
    161  CG2       -8.9980  -17.8490   -1.6770 C.3   215  ILE215      0.0023
    162  CD1       -7.3430  -18.6730    0.8930 C.3   215  ILE215      0.0001
    163  N        -10.8940  -20.6910   -2.3670 N.am  216  TYR216     -0.1974
    164  CA       -11.8200  -21.2200   -3.3690 C.3   216  TYR216      0.1639
    165  C        -12.6580  -20.0750   -3.9390 C.2   216  TYR216      0.2290
    166  O        -12.9950  -19.1410   -3.2140 O.2   216  TYR216     -0.2864
    167  CB       -12.7200  -22.2710   -2.7280 C.3   216  TYR216      0.0560
    168  CG       -11.9510  -23.4680   -2.2190 C.ar  216  TYR216     -0.0198
    169  CD1      -11.2680  -23.4230   -0.9980 C.ar  216  TYR216     -0.0009
    170  CD2      -11.8800  -24.6430   -2.9640 C.ar  216  TYR216     -0.0009
    171  CE1      -10.5370  -24.5140   -0.5360 C.ar  216  TYR216      0.0417
    172  CE2      -11.1580  -25.7390   -2.5070 C.ar  216  TYR216      0.0417
    173  CZ       -10.4860  -25.6700   -1.2930 C.ar  216  TYR216      0.1957
    174  OH        -9.7730  -26.7600   -0.8440 O.3   216  TYR216     -0.2866
@<TRIPOS>BOND
     1    19    18    1
     2    18    17    1
     3     4     3    2
     4    17    16    1
     5     3     2    1
     6    16    15    1
     7     2     1    1
     8     2     5    1
     9    15    12    1
    10    27    26   ar
    11     5     6    1
    12    28    26   ar
    13    11    12    1
    14    26    25    1
    15    12    13    1
    16     6     7   ar
    17     6     8   ar
    18     7     9   ar
    19    99    98    2
    20     8    10   ar
    21     9    10   ar
    22    13    20   am
    23    13    14    2
    24    20    21    1
    25    25    24    1
    26    47    46    1
    27    98    97    1
    28    24    21    1
    29    95    93   am
    30    46    44   ar
    31    46    45   ar
    32   100    97    1
    33    44    42   ar
    34    21    22    1
    35    97    96    1
    36    45    43   ar
    37    42    41   ar
    38    93    92    1
    39    93    94    2
    40    92    91    1
    41    43    41   ar
    42    37    36    1
    43    37    38    1
    44    37    40    1
    45    41    40    1
    46    29    22   am
    47    29    30    1
    48    22    23    2
    49    36    31   am
    50   104   103    2
    51    38    39    2
    52    89    90    2
    53    89    88    1
    54    34    33    1
    55   111   110    2
    56    91    88    1
    57    88    87    1
    58   113   112    1
    59    31    30    1
    60    31    32    2
    61    30    33    1
    62   103   102    1
    63   103   108   am
    64   109   110    1
    65   109   112    1
    66   109   108    1
    67   101   102    1
    68    33    35    1
    69   110   114   am
    70   105   102    1
    71   105   107    1
    72   105   106    1
    73    84    83    2
    74    87    83   am
    75    83    82    1
    76   114   115    1
    77   118   115    1
    78   118   119    1
    79   120   119   ar
    80   120   122   ar
    81   115   116    1
    82   119   121   ar
    83   122   123   ar
    84    82    81    1
    85    82    85    1
    86   165   164    1
    87   165   166    2
    88    51    50    2
    89    81    78   am
    90    85    86    1
    91   121   123   ar
    92   121   124   ar
    93   116   128   am
    94   116   117    2
    95   158   157    2
    96   164   167    1
    97   164   163    1
    98    66    64   ar
    99    66    67   ar
   100    86   150    1
   101   123   125   ar
   102   128   129    1
   103   170   172   ar
   104   170   168   ar
   105    80    77    1
   106    64    62   ar
   107   167   168    1
   108    67    65   ar
   109    50    49    1
   110   124   126   ar
   111   131   130    2
   112   172   173   ar
   113   157   163   am
   114   157   156    1
   115    78    77    1
   116    78    79    2
   117   150   149    2
   118   168   169   ar
   119   125   127   ar
   120    77    76    1
   121    62    61    1
   122    62    63   ar
   123    49    48    1
   124    49    52    1
   125    65    63   ar
   126   161   159    1
   127   129   130    1
   128   130   132   am
   129   159   156    1
   130   159   160    1
   131   126   127   ar
   132    61    58    1
   133   144   143    2
   134   173   174    1
   135   173   171   ar
   136   156   155    1
   137    53    52    1
   138    53    54    1
   139   169   171   ar
   140   141   142    1
   141   141   134   am
   142   142   143    1
   143   155   153   am
   144   143   145   am
   145    76    70   am
   146   149   146    1
   147   160   162    1
   148   132   133    1
   149    58    59    1
   150    58    57    1
   151    55    54   ar
   152   133   134    1
   153   133   136    1
   154    71    70    2
   155    54    56   ar
   156   134   135    2
   157    59    60    2
   158    70    69    1
   159   145   146    1
   160   153   152    1
   161   153   154    2
   162   146   147    1
   163   137   136    1
   164   137   138    1
   165   152   151    1
   166    74    73   ar
   167    73    75   ar
   168    73    72    1
   169   138   139   ar
   170   138   140   ar
   171    69    72    1
   172    69    68    1
   173   147   148    2
