@<TRIPOS>MOLECULE
tmp/5vogA00.pdb
 189 187 0 0 0
SMALL
GASTEIGER

@<TRIPOS>ATOM
      1  N         19.4150    8.9400   19.3040 N.3    38  ILE38      -0.1231
      2  CA        18.0470    9.4470   19.2770 C.3    38  ILE38       0.1692
      3  C         17.2160    8.5690   20.2090 C.2    38  ILE38       0.2593
      4  O         16.8860    7.4340   19.8660 O.2    38  ILE38      -0.2718
      5  CB        17.4640    9.4530   17.8590 C.3    38  ILE38       0.0266
      6  CG1       18.3680   10.2250   16.8930 C.3    38  ILE38       0.0019
      7  CG2       16.0580   10.0470   17.8770 C.3    38  ILE38       0.0020
      8  CD1       17.9770   10.0260   15.4150 C.3    38  ILE38       0.0001
      9  N         16.8640    9.0870   21.3900 N.am   39  GLY39      -0.1942
     10  CA        16.0240    8.3200   22.2860 C.3    39  GLY39       0.2014
     11  C         14.5720    8.3210   21.8360 C.2    39  GLY39       0.2639
     12  O         14.1460    9.1870   21.0750 O.2    39  GLY39      -0.2714
     13  N         13.7910    7.3420   22.3000 N.am   40  GLY40      -0.1939
     14  CA        14.2390    6.3090   23.2200 C.3    40  GLY40       0.2014
     15  C         14.8480    5.0940   22.5390 C.2    40  GLY40       0.2639
     16  O         15.5820    4.3330   23.1770 O.2    40  GLY40      -0.2714
     17  N         14.5600    4.9280   21.2440 N.am   41  GLY41      -0.1954
     18  CA        14.9490    3.7120   20.5460 C.3    41  GLY41       0.1869
     19  C         16.4420    3.5870   20.3120 C.2    41  GLY41       0.2309
     20  O         16.9660    2.4720   20.2140 O.2    41  GLY41      -0.2863
     21  N         16.0830   13.4760   21.9060 N.3    61  THR61      -0.1203
     22  CA        14.9070   12.6160   21.8350 C.3    61  THR61       0.1994
     23  C         13.8430   13.3050   20.9980 C.2    61  THR61       0.2619
     24  O         13.6410   14.5200   21.0990 O.2    61  THR61      -0.2717
     25  CB        14.3380   12.2520   23.2290 C.3    61  THR61       0.1784
     26  OG1       15.2210   11.3390   23.8870 O.3    61  THR61      -0.2211
     27  CG2       12.9580   11.5780   23.1110 C.3    61  THR61       0.0376
     28  N         13.1740   12.5190   20.1640 N.am   62  THR62      -0.1938
     29  CA        12.0390   12.9750   19.3840 C.3    62  THR62       0.2028
     30  C         10.8300   12.1150   19.7150 C.2    62  THR62       0.2642
     31  O         10.9590   10.9930   20.2110 O.2    62  THR62      -0.2714
     32  CB        12.3160   12.8830   17.8770 C.3    62  THR62       0.1808
     33  OG1       12.6770   11.5320   17.5550 O.3    62  THR62      -0.2208
     34  CG2       13.4450   13.8130   17.4880 C.3    62  THR62       0.0379
     35  N          9.6500   12.6430   19.4090 N.am   63  ALA63      -0.1963
     36  CA         8.4230   11.8740   19.5350 C.3    63  ALA63       0.1728
     37  C          7.4250   12.3940   18.5160 C.2    63  ALA63       0.2616
     38  O          7.5490   13.5130   18.0150 O.2    63  ALA63      -0.2715
     39  CB         7.8460   11.9530   20.9560 C.3    63  ALA63       0.0334
     40  N          6.4460   11.5580   18.1880 N.am   64  TYR64      -0.1974
     41  CA         5.3480   11.9980   17.3470 C.3    64  TYR64       0.1639
     42  C          4.2560   12.6090   18.2120 C.2    64  TYR64       0.2290
     43  O          3.9760   12.1300   19.3170 O.2    64  TYR64      -0.2864
     44  CB         4.7900   10.8380   16.5240 C.3    64  TYR64       0.0560
     45  CG         5.6320   10.4590   15.3190 C.ar   64  TYR64      -0.0198
     46  CD1        5.2730   10.8690   14.0430 C.ar   64  TYR64      -0.0009
     47  CD2        6.7730    9.6770   15.4550 C.ar   64  TYR64      -0.0009
     48  CE1        6.0230   10.5080   12.9370 C.ar   64  TYR64       0.0417
     49  CE2        7.5370    9.3100   14.3480 C.ar   64  TYR64       0.0417
     50  CZ         7.1520    9.7300   13.0940 C.ar   64  TYR64       0.1957
     51  OH         7.8920    9.3770   11.9860 O.3    64  TYR64      -0.2866
     52  N         20.2660    5.2250   15.7700 N.3    99  ASP99      -0.1225
     53  CA        18.8770    4.8970   16.0760 C.3    99  ASP99       0.1805
     54  C         18.6680    3.3990   15.8940 C.2    99  ASP99       0.2598
     55  O         19.5350    2.7000   15.3650 O.2    99  ASP99      -0.2718
     56  CB        17.9020    5.7140   15.2200 C.3    99  ASP99       0.1424
     57  CG        16.6480    6.1080   15.9770 C.2    99  ASP99       0.3668
     58  OD1       16.2840    5.4030   16.9390 O.co2  99  ASP99      -0.2456
     59  OD2       16.0140    7.1200   15.6050 O.co2  99  ASP99      -0.2456
     60  N         17.5190    2.8870   16.3640 N.am  100  GLU100     -0.1965
     61  CA        17.3440    1.4320   16.3010 C.3   100  GLU100      0.1733
     62  C         16.7460    0.9510   14.9780 C.2   100  GLU100      0.2616
     63  O         17.1490   -0.1080   14.4880 O.2   100  GLU100     -0.2715
     64  CB        16.5130    0.9100   17.4930 C.3   100  GLU100      0.0429
     65  CG        15.0070    0.6950   17.2870 C.3   100  GLU100      0.1163
     66  CD        14.1960    1.9850   17.3550 C.2   100  GLU100      0.3649
     67  OE1       14.6750    3.0230   16.8680 O.co2 100  GLU100     -0.2457
     68  OE2       13.0710    1.9600   17.8970 O.co2 100  GLU100     -0.2457
     69  N         15.8090    1.6830   14.3720 N.am  101  VAL101     -0.1963
     70  CA        15.1280    1.1750   13.1830 C.3   101  VAL101      0.1727
     71  C         14.9560    2.2850   12.1580 C.2   101  VAL101      0.2616
     72  O         14.6150    3.4250   12.4960 O.2   101  VAL101     -0.2715
     73  CB        13.7740    0.5020   13.5120 C.3   101  VAL101      0.0290
     74  CG1       12.7220    1.4920   14.0120 C.3   101  VAL101      0.0023
     75  CG2       13.2490   -0.2600   12.2860 C.3   101  VAL101      0.0023
     76  N         15.2570    1.9460   10.9040 N.am  102  ASP102     -0.1957
     77  CA        14.9840    2.7500    9.7190 C.3   102  ASP102      0.1840
     78  C         13.7030    2.1770    9.1170 C.2   102  ASP102      0.2622
     79  O         13.7250    1.1480    8.4280 O.2   102  ASP102     -0.2715
     80  CB        16.1780    2.6740    8.7680 C.3   102  ASP102      0.1450
     81  CG        15.9610    3.4060    7.4610 C.2   102  ASP102      0.3671
     82  OD1       14.8100    3.7200    7.0990 O.co2 102  ASP102     -0.2456
     83  OD2       16.9780    3.6440    6.7770 O.co2 102  ASP102     -0.2456
     84  N         12.5810    2.8280    9.4190 N.am  103  ASP103     -0.1957
     85  CA        11.2650    2.3900    8.9700 C.3   103  ASP103      0.1840
     86  C         10.7310    3.3500    7.9150 C.2   103  ASP103      0.2623
     87  O         10.7140    3.0130    6.7290 O.2   103  ASP103     -0.2715
     88  CB        10.3080    2.2830   10.1630 C.3   103  ASP103      0.1450
     89  CG         8.9630    1.6980    9.7870 C.2   103  ASP103      0.3671
     90  OD1        8.9350    0.5720    9.2590 O.co2 103  ASP103     -0.2456
     91  OD2        7.9290    2.3490   10.0460 O.co2 103  ASP103     -0.2456
     92  N         10.3110    4.5550    8.3080 N.am  104  SER104     -0.1936
     93  CA         9.8160    5.5450    7.3540 C.3   104  SER104      0.2055
     94  C         10.8430    6.6080    6.9890 C.2   104  SER104      0.2643
     95  O         10.6470    7.3180    5.9990 O.2   104  SER104     -0.2714
     96  CB         8.5750    6.2560    7.9120 C.3   104  SER104      0.2130
     97  OG         8.9430    7.1900    8.9290 O.3   104  SER104     -0.2179
     98  N         11.9070    6.7500    7.7770 N.am  105  ARG105     -0.1963
     99  CA        12.9290    7.7940    7.6840 C.3   105  ARG105      0.1729
    100  C         12.4170    9.1880    8.0140 C.2   105  ARG105      0.2616
    101  O         13.1630   10.1600    7.8420 O.2   105  ARG105     -0.2715
    102  CB        13.6100    7.8280    6.3130 C.3   105  ARG105      0.0348
    103  CG        14.6160    6.7480    6.1650 C.3   105  ARG105      0.0492
    104  CD        15.2520    6.6950    4.7880 C.3   105  ARG105      0.2205
    105  NE        16.0800    5.5070    4.7570 N.pl3 105  ARG105     -0.0865
    106  CZ        16.6350    4.9930    3.6710 C.cat 105  ARG105      0.5346
    107  NH1       16.4590    5.5690    2.4850 N.pl3 105  ARG105      0.1354
    108  NH2       17.3710    3.8970    3.7780 N.pl3 105  ARG105      0.1354
    109  N         11.1860    9.3200    8.5140 N.am  106  VAL106     -0.1963
    110  CA        10.6820   10.6440    8.8630 C.3   106  VAL106      0.1727
    111  C         11.4470   11.2170   10.0550 C.2   106  VAL106      0.2617
    112  O         11.8400   12.3900   10.0420 O.2   106  VAL106     -0.2715
    113  CB         9.1600   10.5890    9.0990 C.3   106  VAL106      0.0290
    114  CG1        8.6470   11.8960    9.6780 C.3   106  VAL106      0.0023
    115  CG2        8.4480   10.2980    7.7670 C.3   106  VAL106      0.0023
    116  N         11.7080   10.4060   11.0870 N.am  107  THR107     -0.1937
    117  CA        12.4940   10.9200   12.2090 C.3   107  THR107      0.2028
    118  C         13.9280   11.1750   11.7850 C.2   107  THR107      0.2642
    119  O         14.5280   12.1960   12.1560 O.2   107  THR107     -0.2714
    120  CB        12.4770    9.9420   13.3820 C.3   107  THR107      0.1808
    121  OG1       11.1410    9.8000   13.8620 O.3   107  THR107     -0.2208
    122  CG2       13.3770   10.4480   14.5310 C.3   107  THR107      0.0379
    123  N         14.4940   10.2420   11.0160 N.am  108  MET108     -0.1976
    124  CA        15.8810   10.3630   10.5910 C.3   108  MET108      0.1605
    125  C         16.1010   11.6400    9.7870 C.2   108  MET108      0.2287
    126  O         17.0570   12.3840   10.0340 O.2   108  MET108     -0.2864
    127  CB        16.2700    9.1330    9.7780 C.3   108  MET108      0.0413
    128  CG        17.7480    9.0310    9.4750 C.3   108  MET108      0.0598
    129  SD        18.0680    7.6140    8.4060 S.3   108  MET108     -0.1393
    130  CE        17.5660    6.2930    9.5030 C.3   108  MET108      0.0692
    131  N         14.7360   -1.4710    7.4160 N.3   131  LYS131     -0.1245
    132  CA        13.6330   -2.1420    6.7400 C.3   131  LYS131      0.1561
    133  C         13.5970   -1.7670    5.2640 C.2   131  LYS131      0.2260
    134  O         13.6960   -0.5880    4.9070 O.2   131  LYS131     -0.2867
    135  CB        12.3020   -1.7850    7.3800 C.3   131  LYS131      0.0271
    136  CG        12.1030   -2.3140    8.7740 C.3   131  LYS131      0.0035
    137  CD        10.6970   -1.9320    9.1780 C.3   131  LYS131      0.0206
    138  CE        10.3060   -2.4590   10.4980 C.3   131  LYS131      0.1093
    139  NZ         8.8910   -2.0870   10.7510 N.3   131  LYS131     -0.1314
    140  N          7.2570   -6.4870   11.2400 N.3   155  TRP155     -0.1227
    141  CA         7.2570   -5.8220   12.5340 C.3   155  TRP155      0.1737
    142  C          8.3060   -6.4650   13.4300 C.2   155  TRP155      0.2595
    143  O          8.2640   -7.6750   13.6840 O.2   155  TRP155     -0.2718
    144  CB         5.8880   -5.8780   13.1980 C.3   155  TRP155      0.0564
    145  CG         5.8750   -4.9860   14.3970 C.ar  155  TRP155      0.0003
    146  CD1        5.9400   -5.3600   15.7100 C.ar  155  TRP155      0.0946
    147  CD2        5.8450   -3.5570   14.3850 C.ar  155  TRP155      0.0152
    148  NE1        5.9340   -4.2450   16.5160 N.ar  155  TRP155     -0.2442
    149  CE2        5.8760   -3.1260   15.7270 C.ar  155  TRP155      0.0810
    150  CE3        5.7870   -2.5970   13.3670 C.ar  155  TRP155      0.0012
    151  CZ2        5.8440   -1.7750   16.0800 C.ar  155  TRP155      0.0191
    152  CZ3        5.7580   -1.2550   13.7190 C.ar  155  TRP155      0.0001
    153  CH2        5.7870   -0.8580   15.0630 C.ar  155  TRP155      0.0015
    154  N          9.2400   -5.6560   13.9070 N.am  156  ILE156     -0.1966
    155  CA        10.3250   -6.1290   14.7570 C.3   156  ILE156      0.1727
    156  C          9.9170   -5.9660   16.2110 C.2   156  ILE156      0.2616
    157  O          9.5380   -4.8680   16.6410 O.2   156  ILE156     -0.2715
    158  CB        11.6250   -5.3660   14.4640 C.3   156  ILE156      0.0290
    159  CG1       12.0400   -5.5600   13.0030 C.3   156  ILE156      0.0022
    160  CG2       12.7250   -5.8000   15.4230 C.3   156  ILE156      0.0023
    161  CD1       13.1300   -4.5810   12.5490 C.3   156  ILE156      0.0001
    162  N          9.9970   -7.0550   16.9710 N.am  157  ASN157     -0.1958
    163  CA         9.7270   -7.0260   18.4060 C.3   157  ASN157      0.1819
    164  C         11.0560   -7.0110   19.1470 C.2   157  ASN157      0.2621
    165  O         11.8210   -7.9790   19.0800 O.2   157  ASN157     -0.2715
    166  CB         8.8730   -8.2230   18.8070 C.3   157  ASN157      0.1195
    167  CG         7.5200   -8.1910   18.1530 C.2   157  ASN157      0.2630
    168  OD1        6.6240   -7.4940   18.6130 O.2   157  ASN157     -0.2716
    169  ND2        7.3740   -8.9130   17.0420 N.am  157  ASN157     -0.0877
    170  N         11.3410   -5.8890   19.8400 N.am  158  TYR158     -0.1974
    171  CA        12.5920   -5.6820   20.5530 C.3   158  TYR158      0.1639
    172  C         12.5190   -6.2580   21.9590 C.2   158  TYR158      0.2290
    173  O         11.4700   -6.2040   22.6040 O.2   158  TYR158     -0.2864
    174  CB        12.9290   -4.1890   20.6220 C.3   158  TYR158      0.0560
    175  CG        13.3210   -3.6730   19.2610 C.ar  158  TYR158     -0.0198
    176  CD1       14.5620   -3.9770   18.7300 C.ar  158  TYR158     -0.0009
    177  CD2       12.4280   -2.9430   18.4800 C.ar  158  TYR158     -0.0009
    178  CE1       14.9270   -3.5430   17.4670 C.ar  158  TYR158      0.0417
    179  CE2       12.7800   -2.5020   17.2130 C.ar  158  TYR158      0.0417
    180  CZ        14.0320   -2.8170   16.7100 C.ar  158  TYR158      0.1957
    181  OH        14.3970   -2.4000   15.4420 O.3   158  TYR158     -0.2866
    182  N         11.1310   -4.2250   24.8800 N.3   161  ASP161     -0.1239
    183  CA         9.6870   -4.0710   25.0080 C.3   161  ASP161      0.1674
    184  C          9.0120   -5.3200   25.5680 C.2   161  ASP161      0.2266
    185  O          7.7760   -5.3890   25.5950 O.2   161  ASP161     -0.2867
    186  CB         9.0590   -3.7260   23.6560 C.3   161  ASP161      0.1410
    187  CG         9.3960   -2.3290   23.1890 C.2   161  ASP161      0.3668
    188  OD1        9.4170   -1.3980   24.0290 O.co2 161  ASP161     -0.2456
    189  OD2        9.6470   -2.1690   21.9690 O.co2 161  ASP161     -0.2456
@<TRIPOS>BOND
     1   107   106    1
     2   106   108    1
     3   106   105    2
     4   105   104    1
     5   104   103    1
     6   134   133    2
     7   133   132    1
     8    95    94    2
     9   103   102    1
    10   102    99    1
    11    87    86    2
    12   132   135    1
    13   132   131    1
    14    83    81   ar
    15    94    93    1
    16    94    98   am
    17    82    81   ar
    18    93    96    1
    19    93    92    1
    20   135   136    1
    21    81    80    1
    22    99    98    1
    23    99   100    1
    24   115   113    1
    25   101   100    2
    26    96    97    1
    27    86    92   am
    28    86    85    1
    29   100   109   am
    30   129   128    1
    31   129   130    1
    32    79    78    2
    33   109   110    1
    34    80    77    1
    35   136   137    1
    36   110   113    1
    37   110   111    1
    38    85    84    1
    39    85    88    1
    40   113   114    1
    41    78    84   am
    42    78    77    1
    43   137   138    1
    44    90    89   ar
    45   128   127    1
    46    77    76    1
    47   127   124    1
    48   125   126    2
    49   125   124    1
    50    89    91   ar
    51    89    88    1
    52   112   111    2
    53   111   116   am
    54   138   139    1
    55   124   123    1
    56    76    71   am
    57   123   118   am
    58   116   117    1
    59   140   141    1
    60   118   119    2
    61   118   117    1
    62    51    50    1
    63    71    72    2
    64    71    70    1
    65   117   120    1
    66    75    73    1
    67   141   144    1
    68   141   142    1
    69   161   159    1
    70    48    50   ar
    71    48    46   ar
    72   159   158    1
    73    50    49   ar
    74    70    73    1
    75    70    69    1
    76   144   145    1
    77   150   152   ar
    78   150   147   ar
    79   120   121    1
    80   120   122    1
    81   142   143    2
    82   142   154   am
    83    73    74    1
    84   152   153   ar
    85   154   155    1
    86    46    45   ar
    87    49    47   ar
    88    69    62   am
    89   147   145   ar
    90   147   149   ar
    91   145   146   ar
    92   158   155    1
    93   158   160    1
    94    63    62    2
    95   155   156    1
    96    62    61    1
    97   153   151   ar
    98    56    57    1
    99    56    53    1
   100    45    47   ar
   101    45    44    1
   102    55    54    2
   103     8     6    1
   104   181   180    1
   105    59    57   ar
   106   146   148   ar
   107   149   151   ar
   108   149   148   ar
   109    52    53    1
   110    54    53    1
   111    54    60   am
   112    57    58   ar
   113   156   157    2
   114   156   162   am
   115    61    60    1
   116    61    64    1
   117    44    41    1
   118   180   179   ar
   119   180   178   ar
   120    67    66   ar
   121     6     5    1
   122   162   163    1
   123   169   167   am
   124   179   177   ar
   125    65    66    1
   126    65    64    1
   127    41    40    1
   128    41    42    1
   129    66    68   ar
   130   178   176   ar
   131    34    32    1
   132    33    32    1
   133     5     7    1
   134     5     2    1
   135    32    29    1
   136    38    37    2
   137   167   168    2
   138   167   166    1
   139    40    37   am
   140    42    43    2
   141   163   166    1
   142   163   164    1
   143   177   175   ar
   144    37    36    1
   145   176   175   ar
   146   165   164    2
   147   164   170   am
   148   175   174    1
   149     2     1    1
   150     2     3    1
   151    29    30    1
   152    29    28    1
   153    35    36    1
   154    35    30   am
   155    36    39    1
   156    30    31    2
   157   170   171    1
   158     4     3    2
   159    28    23   am
   160     3     9   am
   161    20    19    2
   162    19    18    1
   163    18    17    1
   164   171   174    1
   165   171   172    1
   166    23    24    2
   167    23    22    1
   168    12    11    2
   169    17    15   am
   170     9    10    1
   171    22    21    1
   172    22    25    1
   173    11    10    1
   174    11    13   am
   175   172   173    2
   176   189   187   ar
   177    13    14    1
   178    15    16    2
   179    15    14    1
   180    27    25    1
   181   187   186    1
   182   187   188   ar
   183    25    26    1
   184   186   183    1
   185   182   183    1
   186   183   184    1
   187   184   185    2
