@<TRIPOS>MOLECULE
tmp/5vojA00.pdb
 190 186 0 0 0
SMALL
GASTEIGER

@<TRIPOS>ATOM
      1  N         -2.3160  -23.0780   22.0670 N.3    59  GLN59      -0.1231
      2  CA        -3.2380  -23.3880   20.9830 C.3    59  GLN59       0.1698
      3  C         -2.4940  -24.0840   19.8530 C.2    59  GLN59       0.2593
      4  O         -1.2820  -23.9240   19.6900 O.2    59  GLN59      -0.2718
      5  CB        -3.9230  -22.1140   20.4630 C.3    59  GLN59       0.0381
      6  CG        -4.8670  -21.4740   21.4640 C.3    59  GLN59       0.0905
      7  CD        -5.6380  -20.2960   20.8850 C.2    59  GLN59       0.2608
      8  OE1       -5.0580  -19.3960   20.2780 O.2    59  GLN59      -0.2717
      9  NE2       -6.9530  -20.2960   21.0770 N.am   59  GLN59      -0.0878
     10  N         -3.2290  -24.8790   19.0810 N.am   60  THR60      -0.1939
     11  CA        -2.6780  -25.4580   17.8630 C.3    60  THR60       0.2028
     12  C         -3.7070  -25.2940   16.7520 C.2    60  THR60       0.2642
     13  O         -4.9140  -25.3960   16.9880 O.2    60  THR60      -0.2714
     14  CB        -2.2800  -26.9370   18.0430 C.3    60  THR60       0.1808
     15  OG1       -1.6850  -27.4280   16.8330 O.3    60  THR60      -0.2208
     16  CG2       -3.4830  -27.7980   18.4060 C.3    60  THR60       0.0379
     17  N         -3.2210  -24.9860   15.5570 N.am   61  PHE61      -0.1973
     18  CA        -4.0820  -24.6800   14.4240 C.3    61  PHE61       0.1639
     19  C         -3.2480  -24.8680   13.1600 C.2    61  PHE61       0.2290
     20  O         -2.1890  -25.5060   13.1910 O.2    61  PHE61      -0.2864
     21  CB        -4.7010  -23.2780   14.5710 C.3    61  PHE61       0.0560
     22  CG        -3.7250  -22.1970   14.9880 C.ar   61  PHE61      -0.0200
     23  CD1       -3.3120  -22.0770   16.3010 C.ar   61  PHE61      -0.0042
     24  CD2       -3.2550  -21.2780   14.0610 C.ar   61  PHE61      -0.0042
     25  CE1       -2.4270  -21.0880   16.6770 C.ar   61  PHE61      -0.0003
     26  CE2       -2.3600  -20.2860   14.4250 C.ar   61  PHE61      -0.0003
     27  CZ        -1.9480  -20.1860   15.7320 C.ar   61  PHE61      -0.0000
     28  N         -5.9440  -14.6730   13.1490 N.3    74  TYR74      -0.1227
     29  CA        -5.5410  -13.8390   14.2760 C.3    74  TYR74       0.1736
     30  C         -5.9510  -14.4540   15.6100 C.2    74  TYR74       0.2595
     31  O         -5.2310  -14.3030   16.6060 O.2    74  TYR74      -0.2718
     32  CB        -6.1390  -12.4340   14.1110 C.3    74  TYR74       0.0548
     33  CG        -5.6850  -11.4480   15.1590 C.ar   74  TYR74      -0.0200
     34  CD1       -6.3500  -11.3400   16.3740 C.ar   74  TYR74      -0.0009
     35  CD2       -4.5800  -10.6320   14.9430 C.ar   74  TYR74      -0.0009
     36  CE1       -5.9290  -10.4460   17.3390 C.ar   74  TYR74       0.0417
     37  CE2       -4.1540   -9.7360   15.9110 C.ar   74  TYR74       0.0417
     38  CZ        -4.8380   -9.6480   17.0990 C.ar   74  TYR74       0.1957
     39  OH        -4.4180   -8.7670   18.0630 O.3    74  TYR74      -0.2866
     40  N         -7.0950  -15.1510   15.6610 N.am   75  HIS75      -0.1961
     41  CA        -7.5250  -15.7260   16.9300 C.3    75  HIS75       0.1787
     42  C         -6.6520  -16.8970   17.3610 C.2    75  HIS75       0.2620
     43  O         -6.7310  -17.3150   18.5230 O.2    75  HIS75      -0.2715
     44  CB        -9.0160  -16.1130   16.8700 C.3    75  HIS75       0.0785
     45  CG        -9.3180  -17.3990   16.1580 C.ar   75  HIS75       0.0821
     46  ND1       -9.7550  -17.4350   14.8510 N.ar   75  HIS75      -0.2267
     47  CD2       -9.3320  -18.6820   16.5930 C.ar   75  HIS75       0.1154
     48  CE1       -9.9830  -18.6880   14.4980 C.ar   75  HIS75       0.1986
     49  NE2       -9.7380  -19.4660   15.5370 N.ar   75  HIS75      -0.2212
     50  N         -5.8010  -17.4070   16.4750 N.am   76  GLY76      -0.1954
     51  CA        -4.7750  -18.3540   16.8600 C.3    76  GLY76       0.1869
     52  C         -3.4440  -17.6860   17.1540 C.2    76  GLY76       0.2309
     53  O         -2.8380  -17.9220   18.2020 O.2    76  GLY76      -0.2863
     54  N         -7.1630   -7.7640   12.2120 N.3    96  VAL96      -0.1231
     55  CA        -8.0490   -8.3420   13.2050 C.3    96  VAL96       0.1692
     56  C         -9.4830   -8.3230   12.7080 C.2    96  VAL96       0.2592
     57  O        -10.2850   -9.1830   13.0830 O.2    96  VAL96      -0.2718
     58  CB        -7.8880   -7.5850   14.5400 C.3    96  VAL96       0.0266
     59  CG1       -8.3590   -6.1400   14.4010 C.3    96  VAL96       0.0020
     60  CG2       -8.6350   -8.2940   15.6650 C.3    96  VAL96       0.0020
     61  N         -9.8260   -7.3590   11.8470 N.am   97  ASP97      -0.1960
     62  CA       -11.1900   -7.2760   11.3330 C.3    97  ASP97       0.1840
     63  C        -11.5260   -8.4580   10.4360 C.2    97  ASP97       0.2622
     64  O        -12.6990   -8.8190   10.3050 O.2    97  ASP97      -0.2715
     65  CB       -11.3900   -5.9710   10.5680 C.3    97  ASP97       0.1450
     66  CG       -11.3140   -4.7560   11.4680 C.2    97  ASP97       0.3671
     67  OD1      -11.7770   -4.8520   12.6220 O.co2  97  ASP97      -0.2456
     68  OD2      -10.8040   -3.7120   11.0220 O.co2  97  ASP97      -0.2456
     69  N        -10.5210   -9.0590    9.8060 N.am   98  LYS98      -0.1963
     70  CA       -10.7020  -10.2470    8.9870 C.3    98  LYS98       0.1728
     71  C        -10.2660  -11.5230    9.6940 C.2    98  LYS98       0.2616
     72  O        -10.3690  -12.6010    9.1070 O.2    98  LYS98      -0.2715
     73  CB        -9.9100  -10.1160    7.6840 C.3    98  LYS98       0.0311
     74  CG       -10.2820   -8.9320    6.8030 C.3    98  LYS98       0.0038
     75  CD        -9.4250   -8.9550    5.5400 C.3    98  LYS98       0.0206
     76  CE        -9.6290   -7.7290    4.6640 C.3    98  LYS98       0.1093
     77  NZ        -8.7330   -7.7520    3.4660 N.3    98  LYS98      -0.1314
     78  N         -9.7650  -11.4240   10.9260 N.am   99  ASP99      -0.1971
     79  CA        -9.2020  -12.5660   11.6410 C.3    99  ASP99       0.1709
     80  C         -8.0230  -13.1700   10.8820 C.2    99  ASP99       0.2293
     81  O         -7.8820  -14.3930   10.8040 O.2    99  ASP99      -0.2864
     82  CB       -10.2710  -13.6310   11.8960 C.3    99  ASP99       0.1436
     83  CG        -9.8600  -14.6210   12.9590 C.2    99  ASP99       0.3671
     84  OD1       -8.8910  -14.3310   13.6930 O.co2  99  ASP99      -0.2456
     85  OD2      -10.5110  -15.6890   13.0700 O.co2  99  ASP99      -0.2456
     86  N        -18.9340  -18.1970    2.8120 N.3   141  ARG141     -0.1245
     87  CA       -19.6200  -19.3180    3.4360 C.3   141  ARG141      0.1563
     88  C        -19.6540  -20.5140    2.4950 C.2   141  ARG141      0.2260
     89  O        -19.7490  -20.3700    1.2740 O.2   141  ARG141     -0.2867
     90  CB       -21.0620  -18.9630    3.8290 C.3   141  ARG141      0.0307
     91  CG       -21.1930  -17.9100    4.9140 C.3   141  ARG141      0.0489
     92  CD       -20.6560  -18.4040    6.2520 C.3   141  ARG141      0.2205
     93  NE       -20.8130  -17.3990    7.3000 N.pl3 141  ARG141     -0.0865
     94  CZ       -21.8570  -17.3130    8.1220 C.cat 141  ARG141      0.5346
     95  NH1      -22.8600  -18.1800    8.0430 N.pl3 141  ARG141      0.1354
     96  NH2      -21.8930  -16.3500    9.0350 N.pl3 141  ARG141      0.1354
     97  N        -18.5540  -30.3500   15.6550 N.3   150  ILE150     -0.1245
     98  CA       -17.5160  -29.3230   15.5760 C.3   150  ILE150      0.1561
     99  C        -16.1790  -29.8370   16.0960 C.2   150  ILE150      0.2260
    100  O        -15.1270  -29.2800   15.7570 O.2   150  ILE150     -0.2867
    101  CB       -17.9430  -28.0400   16.3250 C.3   150  ILE150      0.0252
    102  CG1      -18.3960  -28.3520   17.7550 C.3   150  ILE150      0.0019
    103  CG2      -19.0430  -27.3220   15.5400 C.3   150  ILE150      0.0019
    104  CD1      -18.6410  -27.1200   18.5980 C.3   150  ILE150      0.0001
    105  N        -13.6190  -30.3420   13.4080 N.3   153  LEU153     -0.1231
    106  CA       -13.0640  -29.1560   12.7750 C.3   153  LEU153      0.1693
    107  C        -12.1940  -28.3370   13.7120 C.2   153  LEU153      0.2592
    108  O        -11.4200  -27.5010   13.2360 O.2   153  LEU153     -0.2718
    109  CB       -14.1940  -28.2720   12.2310 C.3   153  LEU153      0.0284
    110  CG       -15.1230  -28.9530   11.2260 C.3   153  LEU153      0.0019
    111  CD1      -16.1830  -27.9890   10.7130 C.3   153  LEU153      0.0001
    112  CD2      -14.3370  -29.5380   10.0600 C.3   153  LEU153      0.0001
    113  N        -12.2890  -28.5630   15.0210 N.am  154  LYS154     -0.1966
    114  CA       -11.5000  -27.7960   15.9720 C.3   154  LYS154      0.1728
    115  C        -10.0170  -27.9940   15.6950 C.2   154  LYS154      0.2617
    116  O         -9.5520  -29.1210   15.5270 O.2   154  LYS154     -0.2715
    117  CB       -11.8350  -28.2250   17.4000 C.3   154  LYS154      0.0311
    118  CG       -11.0680  -27.4830   18.4770 C.3   154  LYS154      0.0038
    119  CD       -11.5410  -27.8760   19.8680 C.3   154  LYS154      0.0206
    120  CE       -10.8790  -27.0410   20.9540 C.3   154  LYS154      0.1093
    121  NZ        -9.4130  -27.2850   21.0800 N.3   154  LYS154     -0.1314
    122  N         -9.2720  -26.8940   15.6580 N.am  155  GLY155     -0.1940
    123  CA        -7.8530  -26.9430   15.3750 C.3   155  GLY155      0.2014
    124  C         -7.4890  -26.8130   13.9110 C.2   155  GLY155      0.2640
    125  O         -6.3030  -26.9150   13.5720 O.2   155  GLY155     -0.2714
    126  N         -8.4620  -26.5860   13.0330 N.am  156  SER156     -0.1935
    127  CA        -8.2090  -26.5210   11.6020 C.3   156  SER156      0.2055
    128  C         -8.3190  -25.1090   11.0440 C.2   156  SER156      0.2643
    129  O         -8.0930  -24.9150    9.8450 O.2   156  SER156     -0.2714
    130  CB        -9.1670  -27.4540   10.8540 C.3   156  SER156      0.2130
    131  OG        -8.8260  -28.8200   11.0690 O.3   156  SER156     -0.2179
    132  N         -8.6480  -24.1150   11.8690 N.am  157  SER157     -0.1949
    133  CA        -8.5890  -22.7400   11.3970 C.3   157  SER157      0.1924
    134  C         -7.2040  -22.4740   10.8340 C.2   157  SER157      0.2314
    135  O         -6.2040  -22.9940   11.3350 O.2   157  SER157     -0.2863
    136  CB        -8.9100  -21.7490   12.5160 C.3   157  SER157      0.2116
    137  OG        -7.8830  -21.6820   13.4890 O.3   157  SER157     -0.2180
    138  N         -9.9120  -21.2090    6.1690 N.3   172  PHE172     -0.1227
    139  CA       -10.9390  -21.5860    7.1390 C.3   172  PHE172      0.1736
    140  C        -10.8380  -20.7190    8.3910 C.2   172  PHE172      0.2595
    141  O         -9.7790  -20.6410    9.0220 O.2   172  PHE172     -0.2718
    142  CB       -10.7610  -23.0730    7.4740 C.3   172  PHE172      0.0547
    143  CG       -11.7620  -23.6430    8.4380 C.ar  172  PHE172     -0.0202
    144  CD1      -13.0460  -23.1320    8.5670 C.ar  172  PHE172     -0.0042
    145  CD2      -11.4120  -24.7450    9.1940 C.ar  172  PHE172     -0.0042
    146  CE1      -13.9540  -23.7080    9.4550 C.ar  172  PHE172     -0.0003
    147  CE2      -12.3050  -25.3230   10.0800 C.ar  172  PHE172     -0.0003
    148  CZ       -13.5800  -24.7990   10.2170 C.ar  172  PHE172     -0.0000
    149  N        -11.9450  -20.0630    8.7520 N.am  173  ARG173     -0.1966
    150  CA       -11.9710  -19.1050    9.8500 C.3   173  ARG173      0.1729
    151  C        -12.8320  -19.5500   11.0250 C.2   173  ARG173      0.2616
    152  O        -12.3770  -19.4930   12.1690 O.2   173  ARG173     -0.2715
    153  CB       -12.4650  -17.7460    9.3400 C.3   173  ARG173      0.0348
    154  CG       -12.6220  -16.6950   10.4270 C.3   173  ARG173      0.0492
    155  CD       -12.7470  -15.2940    9.8280 C.3   173  ARG173      0.2205
    156  NE       -13.8520  -15.1980    8.8770 N.pl3 173  ARG173     -0.0865
    157  CZ       -13.9960  -14.2180    7.9900 C.cat 173  ARG173      0.5346
    158  NH1      -13.1080  -13.2380    7.9220 N.pl3 173  ARG173      0.1354
    159  NH2      -15.0310  -14.2170    7.1630 N.pl3 173  ARG173      0.1354
    160  N        -14.0660  -19.9880   10.7770 N.am  174  ALA174     -0.1963
    161  CA       -14.9950  -20.3020   11.8560 C.3   174  ALA174      0.1728
    162  C        -16.0160  -21.3280   11.3790 C.2   174  ALA174      0.2616
    163  O        -16.3020  -21.4290   10.1830 O.2   174  ALA174     -0.2715
    164  CB       -15.7080  -19.0360   12.3520 C.3   174  ALA174      0.0334
    165  N        -16.5610  -22.0940   12.3250 N.am  175  ALA175     -0.1963
    166  CA       -17.5700  -23.1010   12.0210 C.3   175  ALA175      0.1728
    167  C        -18.9620  -22.5870   12.3620 C.2   175  ALA175      0.2616
    168  O        -19.1660  -21.9560   13.4020 O.2   175  ALA175     -0.2715
    169  CB       -17.3090  -24.3960   12.7910 C.3   175  ALA175      0.0334
    170  N        -19.9200  -22.8820   11.4890 N.am  176  VAL176     -0.1963
    171  CA       -21.3220  -22.5450   11.7000 C.3   176  VAL176      0.1727
    172  C        -22.0000  -23.8070   12.1960 C.2   176  VAL176      0.2616
    173  O        -22.1150  -24.7850   11.4500 O.2   176  VAL176     -0.2715
    174  CB       -21.9800  -22.0370   10.4100 C.3   176  VAL176      0.0290
    175  CG1      -23.4340  -21.6580   10.6650 C.3   176  VAL176      0.0023
    176  CG2      -21.2020  -20.8600    9.8380 C.3   176  VAL176      0.0023
    177  N        -22.4390  -23.8120   13.4530 N.am  177  SER177     -0.1950
    178  CA       -22.9600  -25.0310   14.0480 C.3   177  SER177      0.1924
    179  C        -24.2940  -24.7880   14.7350 C.2   177  SER177      0.2314
    180  O        -24.5740  -23.6970   15.2400 O.2   177  SER177     -0.2863
    181  CB       -21.9710  -25.6360   15.0590 C.3   177  SER177      0.2116
    182  OG       -21.9150  -24.8780   16.2510 O.3   177  SER177     -0.2180
    183  N        -17.2930  -20.7130    7.7320 N.3   186  ASP186     -0.1239
    184  CA       -16.9830  -19.3390    7.3770 C.3   186  ASP186      0.1674
    185  C        -15.5010  -19.2800    7.0230 C.2   186  ASP186      0.2266
    186  O        -14.6740  -19.8670    7.7260 O.2   186  ASP186     -0.2867
    187  CB       -17.3290  -18.4320    8.5670 C.3   186  ASP186      0.1410
    188  CG       -16.6420  -17.0900    8.5260 C.2   186  ASP186      0.3668
    189  OD1      -16.7340  -16.3940    7.4970 O.co2 186  ASP186     -0.2456
    190  OD2      -16.0420  -16.7100    9.5610 O.co2 186  ASP186     -0.2456
@<TRIPOS>BOND
     1    89    88    2
     2    88    87    1
     3    86    87    1
     4    87    90    1
     5    77    76    1
     6    90    91    1
     7    76    75    1
     8    91    92    1
     9    75    74    1
    10   138   139    1
    11    92    93    1
    12    74    73    1
    13   185   184    1
    14   185   186    2
    15   139   142    1
    16   139   140    1
    17   159   157    1
    18    93    94    2
    19   184   183    1
    20   184   187    1
    21   142   143    1
    22   189   188   ar
    23    73    70    1
    24   158   157    1
    25   157   156    2
    26    95    94    1
    27    94    96    1
    28   140   149   am
    29   140   141    2
    30   143   144   ar
    31   143   145   ar
    32   188   187    1
    33   188   190   ar
    34   144   146   ar
    35   149   150    1
    36   156   155    1
    37    70    71    1
    38    70    69    1
    39    72    71    2
    40   145   147   ar
    41   153   150    1
    42   153   154    1
    43   146   148   ar
    44    71    78   am
    45    69    63   am
    46   155   154    1
    47   176   174    1
    48   129   128    2
    49   150   151    1
    50   112   110    1
    51   147   148   ar
    52   163   162    2
    53    64    63    2
    54   174   175    1
    55   174   171    1
    56    63    62    1
    57    65    62    1
    58    65    66    1
    59   111   110    1
    60   160   151   am
    61   160   161    1
    62    81    80    2
    63   134   135    2
    64   134   133    1
    65   130   131    1
    66   130   127    1
    67    80    79    1
    68    78    79    1
    69    68    66   ar
    70   151   152    2
    71   128   127    1
    72   128   132   am
    73   110   109    1
    74    62    61    1
    75   162   161    1
    76   162   165   am
    77   133   132    1
    78   133   136    1
    79   173   172    2
    80    66    67   ar
    81   170   171    1
    82   170   167   am
    83   127   126    1
    84    79    82    1
    85   171   172    1
    86    61    56   am
    87   161   164    1
    88    82    83    1
    89   166   165    1
    90   166   167    1
    91   166   169    1
    92   172   177   am
    93    54    55    1
    94   109   106    1
    95   167   168    2
    96   136   137    1
    97    56    57    2
    98    56    55    1
    99   106   105    1
   100   106   107    1
   101    83    85   ar
   102    83    84   ar
   103   126   124   am
   104    28    29    1
   105    19    20    2
   106    19    18    1
   107    55    58    1
   108   108   107    2
   109   177   178    1
   110   125   124    2
   111   107   113   am
   112   124   123    1
   113   178   179    1
   114   178   181    1
   115    24    26   ar
   116    24    22   ar
   117    32    29    1
   118    32    33    1
   119    29    30    1
   120    59    58    1
   121    18    21    1
   122    18    17    1
   123    26    27   ar
   124    48    46   ar
   125    48    49   ar
   126    58    60    1
   127    21    22    1
   128   179   180    2
   129    46    45   ar
   130    35    33   ar
   131    35    37   ar
   132    22    23   ar
   133   113   114    1
   134   181   182    1
   135    33    34   ar
   136   123   122    1
   137   116   115    2
   138    49    47   ar
   139   103   101    1
   140    17    12   am
   141    98    97    1
   142    98    99    1
   143    98   101    1
   144    30    40   am
   145    30    31    2
   146   122   115   am
   147    40    41    1
   148   115   114    1
   149    27    25   ar
   150   100    99    2
   151    37    38   ar
   152   114   117    1
   153    45    47   ar
   154    45    44    1
   155    23    25   ar
   156   101   102    1
   157    34    36   ar
   158    50    51    1
   159    50    42   am
   160    12    13    2
   161    12    11    1
   162    15    14    1
   163    51    52    1
   164    44    41    1
   165    41    42    1
   166    38    36   ar
   167    38    39    1
   168    52    53    2
   169    42    43    2
   170   117   118    1
   171   102   104    1
   172    11    14    1
   173    11    10    1
   174    14    16    1
   175   118   119    1
   176    10     3   am
   177     4     3    2
   178     3     2    1
   179   119   120    1
   180     8     7    2
   181     5     2    1
   182     5     6    1
   183     7     9   am
   184     7     6    1
   185   120   121    1
   186     2     1    1
