@<TRIPOS>MOLECULE
tmp/5vomA00.pdb
 150 148 0 0 0
SMALL
GASTEIGER

@<TRIPOS>ATOM
      1  N          3.7080   12.0350   -5.1460 N.3    40  TRP40      -0.1228
      2  CA         3.3620   13.4560   -5.2610 C.3    40  TRP40       0.1722
      3  C          4.2520   14.3420   -6.1940 C.2    40  TRP40       0.2437
      4  O          3.6780   15.1300   -6.9730 O.2    40  TRP40      -0.2733
      5  CB         3.1500   14.0900   -3.8620 C.3    40  TRP40       0.0563
      6  CG         4.4020   14.1110   -2.9850 C.ar   40  TRP40       0.0003
      7  CD1        4.8320   13.1320   -2.1300 C.ar   40  TRP40       0.0946
      8  CD2        5.3290   15.1860   -2.8540 C.ar   40  TRP40       0.0152
      9  NE1        5.9900   13.5210   -1.5040 N.ar   40  TRP40      -0.2442
     10  CE2        6.3180   14.7770   -1.9300 C.ar   40  TRP40       0.0810
     11  CE3        5.4310   16.4510   -3.4340 C.ar   40  TRP40       0.0012
     12  CZ2        7.3860   15.5980   -1.5630 C.ar   40  TRP40       0.0191
     13  CZ3        6.5140   17.2750   -3.0680 C.ar   40  TRP40       0.0001
     14  CH2        7.4700   16.8340   -2.1450 C.ar   40  TRP40       0.0015
     15  N          5.6170   14.1780   -6.1980 N.am   41  PRO41      -0.2718
     16  CA         6.3700   15.0870   -7.0880 C.3    41  PRO41       0.1535
     17  C          6.1610   14.7900   -8.5570 C.2    41  PRO41       0.2598
     18  O          6.5150   15.6130   -9.4080 O.2    41  PRO41      -0.2715
     19  CB         7.8430   14.8030   -6.7270 C.3    41  PRO41       0.0310
     20  CG         7.7960   14.2140   -5.3570 C.3    41  PRO41       0.0237
     21  CD         6.5490   13.3500   -5.4060 C.3    41  PRO41       0.0939
     22  N          5.5880   13.6250   -8.8330 N.am   42  PHE42      -0.1974
     23  CA         5.4790   13.0970  -10.1890 C.3    42  PHE42       0.1639
     24  C          4.0440   13.2190  -10.7120 C.2    42  PHE42       0.2290
     25  O          3.7410   12.7300  -11.8050 O.2    42  PHE42      -0.2864
     26  CB         5.9120   11.6140  -10.2070 C.3    42  PHE42       0.0560
     27  CG         7.3150   11.4050   -9.7420 C.ar   42  PHE42      -0.0200
     28  CD1        8.3950   11.6520  -10.5980 C.ar   42  PHE42      -0.0042
     29  CD2        7.5630   10.9800   -8.4500 C.ar   42  PHE42      -0.0042
     30  CE1        9.6960   11.4880  -10.1700 C.ar   42  PHE42      -0.0003
     31  CE2        8.8690   10.8160   -7.9900 C.ar   42  PHE42      -0.0003
     32  CZ         9.9470   11.0770   -8.8550 C.ar   42  PHE42      -0.0000
     33  N          2.3910   15.8500  -11.5440 N.3    44  GLN44      -0.1231
     34  CA         2.2120   16.9680  -12.4970 C.3    44  GLN44       0.1683
     35  C          3.5920   17.3310  -13.0390 C.2    44  GLN44       0.2434
     36  O          4.6180   16.8820  -12.4830 O.2    44  GLN44      -0.2733
     37  CB         1.5740   18.1810  -11.7970 C.3    44  GLN44       0.0380
     38  CG         2.3810   18.7500  -10.6290 C.3    44  GLN44       0.0905
     39  CD         2.2940   17.8840   -9.3750 C.2    44  GLN44       0.2608
     40  OE1        1.1870   17.5320   -8.9250 O.2    44  GLN44      -0.2717
     41  NE2        3.4420   17.5400   -8.8010 N.am   44  GLN44      -0.0878
     42  N          3.6410   18.1290  -14.1240 N.am   45  PRO45      -0.2718
     43  CA         4.9410   18.4960  -14.6750 C.3    45  PRO45       0.1535
     44  C          5.8370   19.1830  -13.6410 C.2    45  PRO45       0.2598
     45  O          5.3320   19.8690  -12.7340 O.2    45  PRO45      -0.2715
     46  CB         4.5690   19.4540  -15.8230 C.3    45  PRO45       0.0310
     47  CG         3.2360   18.9450  -16.2740 C.3    45  PRO45       0.0237
     48  CD         2.5360   18.5840  -14.9900 C.3    45  PRO45       0.0939
     49  N          7.1500   19.0100  -13.7990 N.am   46  VAL46      -0.1964
     50  CA         8.1300   19.7580  -13.0120 C.3    46  VAL46       0.1727
     51  C          7.9230   21.2390  -13.3150 C.2    46  VAL46       0.2616
     52  O          8.0200   21.6810  -14.4830 O.2    46  VAL46      -0.2715
     53  CB         9.5690   19.3250  -13.3430 C.3    46  VAL46       0.0290
     54  CG1       10.5850   20.2930  -12.7290 C.3    46  VAL46       0.0023
     55  CG2        9.8270   17.9080  -12.8600 C.3    46  VAL46       0.0023
     56  N          7.5590   21.9850  -12.2760 N.am   47  ASP47      -0.1971
     57  CA         7.4140   23.4380  -12.4050 C.3    47  ASP47       0.1709
     58  C          8.7510   24.0850  -12.0550 C.2    47  ASP47       0.2293
     59  O          9.0150   24.4230  -10.9010 O.2    47  ASP47      -0.2864
     60  CB         6.2530   23.9640  -11.5500 C.3    47  ASP47       0.1436
     61  CG         5.9260   25.4370  -11.8390 C.2    47  ASP47       0.3671
     62  OD1        6.8440   26.1910  -12.2550 O.co2  47  ASP47      -0.2456
     63  OD2        4.7600   25.8220  -11.6280 O.co2  47  ASP47      -0.2456
     64  N          8.6370   27.7670  -10.4590 N.3    50  LYS50      -0.1231
     65  CA         8.3770   27.6940   -9.0220 C.3    50  LYS50       0.1693
     66  C          9.5720   27.1510   -8.2480 C.2    50  LYS50       0.2591
     67  O          9.8620   27.6230   -7.1660 O.2    50  LYS50      -0.2718
     68  CB         7.1610   26.8240   -8.7050 C.3    50  LYS50       0.0285
     69  CG         5.8410   27.5580   -8.5170 C.3    50  LYS50       0.0035
     70  CD         4.6960   26.5860   -8.7420 C.3    50  LYS50       0.0206
     71  CE         3.3570   27.1030   -8.2590 C.3    50  LYS50       0.1093
     72  NZ         3.0500   26.5780   -6.9010 N.3    50  LYS50      -0.1314
     73  N         10.2620   26.1540   -8.7980 N.am   51  LEU51      -0.1980
     74  CA        11.3730   25.5200   -8.0660 C.3    51  LEU51       0.1596
     75  C         12.7290   26.2120   -8.2690 C.2    51  LEU51       0.2287
     76  O         13.7530   25.7480   -7.7490 O.2    51  LEU51      -0.2864
     77  CB        11.4780   24.0460   -8.4680 C.3    51  LEU51       0.0297
     78  CG        10.3740   23.0670   -8.0750 C.3    51  LEU51       0.0022
     79  CD1       10.5900   21.7850   -8.8680 C.3    51  LEU51       0.0001
     80  CD2       10.3440   22.7750   -6.5730 C.3    51  LEU51       0.0001
     81  N         14.6480   26.2780  -10.9860 N.3    53  LEU53      -0.1245
     82  CA        15.5390   25.3570  -11.6760 C.3    53  LEU53       0.1561
     83  C         15.6360   25.7360  -13.1500 C.2    53  LEU53       0.2260
     84  O         15.1560   25.0070  -14.0060 O.2    53  LEU53      -0.2867
     85  CB        15.0250   23.9120  -11.5570 C.3    53  LEU53       0.0270
     86  CG        14.8090   23.3550  -10.1500 C.3    53  LEU53       0.0019
     87  CD1       14.1290   21.9970  -10.2460 C.3    53  LEU53       0.0001
     88  CD2       16.1310   23.2240   -9.4240 C.3    53  LEU53       0.0001
     89  N         16.4780   23.0600  -15.7600 N.3    56  TYR56      -0.1241
     90  CA        15.7420   21.7900  -15.8380 C.3    56  TYR56       0.1605
     91  C         15.3520   21.4590  -17.2800 C.2    56  TYR56       0.2264
     92  O         15.5990   20.3510  -17.7790 O.2    56  TYR56      -0.2867
     93  CB        14.4980   21.7520  -14.9280 C.3    56  TYR56       0.0534
     94  CG        13.8540   20.3780  -14.9620 C.ar   56  TYR56      -0.0201
     95  CD1       14.2950   19.3660  -14.1230 C.ar   56  TYR56      -0.0009
     96  CD2       12.8390   20.0670  -15.8810 C.ar   56  TYR56      -0.0009
     97  CE1       13.7260   18.0870  -14.1630 C.ar   56  TYR56       0.0417
     98  CE2       12.2870   18.7890  -15.9370 C.ar   56  TYR56       0.0417
     99  CZ        12.7260   17.8080  -15.0710 C.ar   56  TYR56       0.1957
    100  OH        12.1780   16.5380  -15.1180 O.3    56  TYR56      -0.2866
    101  N         14.2570   11.7810  -14.0340 N.3    95  CYS95      -0.1235
    102  CA        14.5430   12.0580  -12.6450 C.3    95  CYS95       0.1677
    103  C         15.9890   11.6720  -12.3100 C.2    95  CYS95       0.2270
    104  O         16.6790   12.4060  -11.6150 O.2    95  CYS95      -0.2867
    105  CB        13.5300   11.3260  -11.7630 C.3    95  CYS95       0.0956
    106  SG        13.7510   11.6820  -10.0110 S.3    95  CYS95      -0.0801
    107  N         18.4390   14.3260  -14.2060 N.3    98  TYR98      -0.1227
    108  CA        18.5380   15.6700  -13.6610 C.3    98  TYR98       0.1736
    109  C         19.1050   15.7370  -12.2360 C.2    98  TYR98       0.2595
    110  O         19.9690   16.5890  -11.9380 O.2    98  TYR98      -0.2718
    111  CB        17.1970   16.4140  -13.7310 C.3    98  TYR98       0.0548
    112  CG        17.3750   17.8240  -13.2610 C.ar   98  TYR98      -0.0200
    113  CD1       17.9210   18.7960  -14.1040 C.ar   98  TYR98      -0.0009
    114  CD2       17.0310   18.1890  -11.9650 C.ar   98  TYR98      -0.0009
    115  CE1       18.1230   20.0990  -13.6610 C.ar   98  TYR98       0.0417
    116  CE2       17.2460   19.4750  -11.5080 C.ar   98  TYR98       0.0417
    117  CZ        17.7760   20.4320  -12.3650 C.ar   98  TYR98       0.1957
    118  OH        17.9580   21.7180  -11.8880 O.3    98  TYR98      -0.2866
    119  N         18.6060   14.8630  -11.3660 N.am   99  ASN99      -0.1974
    120  CA        18.8970   14.9190   -9.9280 C.3    99  ASN99       0.1688
    121  C         20.1350   14.1260   -9.5660 C.2    99  ASN99       0.2292
    122  O         20.5870   13.2870  -10.3570 O.2    99  ASN99      -0.2864
    123  CB        17.6950   14.4240   -9.1400 C.3    99  ASN99       0.1181
    124  CG        16.4760   15.2830   -9.3730 C.2    99  ASN99       0.2629
    125  OD1       16.3840   16.4100   -8.8580 O.2    99  ASN99      -0.2716
    126  ND2       15.5160   14.7560  -10.1350 N.am   99  ASN99      -0.0877
    127  N         17.0720   12.3310   -2.2080 N.3   104  ASP104     -0.1225
    128  CA        15.7620   11.7700   -1.8700 C.3   104  ASP104      0.1805
    129  C         14.8690   11.5090   -3.0890 C.2   104  ASP104      0.2597
    130  O         14.2550   10.4400   -3.2030 O.2   104  ASP104     -0.2718
    131  CB        15.0280   12.6370   -0.8150 C.3   104  ASP104      0.1424
    132  CG        14.8050   14.1050   -1.2490 C.2   104  ASP104      0.3668
    133  OD1       14.0920   14.8130   -0.4860 O.co2 104  ASP104     -0.2456
    134  OD2       15.3000   14.5630   -2.3230 O.co2 104  ASP104     -0.2456
    135  N         14.8100   12.4690   -4.0040 N.am  105  ILE105     -0.1980
    136  CA        13.8930   12.3600   -5.1370 C.3   105  ILE105      0.1595
    137  C         14.3210   11.1750   -6.0230 C.2   105  ILE105      0.2287
    138  O         13.4760   10.5130   -6.6080 O.2   105  ILE105     -0.2864
    139  CB        13.7600   13.6910   -5.9300 C.3   105  ILE105      0.0276
    140  CG1       12.6930   13.5950   -7.0270 C.3   105  ILE105      0.0022
    141  CG2       15.0960   14.1480   -6.5250 C.3   105  ILE105      0.0022
    142  CD1       11.3130   13.2900   -6.4550 C.3   105  ILE105      0.0001
    143  N         13.1770    8.0740   -4.2940 N.3   108  MET108     -0.1245
    144  CA        11.7350    8.0350   -4.5040 C.3   108  MET108      0.1570
    145  C         11.3900    7.4520   -5.8690 C.2   108  MET108      0.2261
    146  O         10.5460    6.5430   -5.9680 O.2   108  MET108     -0.2867
    147  CB        11.1100    9.4180   -4.3040 C.3   108  MET108      0.0387
    148  CG        11.1550    9.9050   -2.8600 C.3   108  MET108      0.0595
    149  SD        10.7430   11.6570   -2.7970 S.3   108  MET108     -0.1393
    150  CE         8.9610   11.5800   -2.8920 C.3   108  MET108      0.0692
@<TRIPOS>BOND
     1    92    91    2
     2    91    90    1
     3    47    46    1
     4    47    48    1
     5    98    96   ar
     6    98    99   ar
     7    96    94   ar
     8    90    89    1
     9    90    93    1
    10    46    43    1
    11   100    99    1
    12    99    97   ar
    13    48    42    1
    14    94    93    1
    15    94    95   ar
    16    43    42    1
    17    43    44    1
    18    52    51    2
    19   107   108    1
    20    97    95   ar
    21    42    35   am
    22   113   115   ar
    23   113   112   ar
    24   101   102    1
    25    84    83    2
    26    49    44   am
    27    49    50    1
    28   111   108    1
    29   111   112    1
    30   108   109    1
    31   115   117   ar
    32    44    45    2
    33    53    50    1
    34    53    55    1
    35    53    54    1
    36    51    50    1
    37    51    56   am
    38   112   114   ar
    39    83    82    1
    40    35    34    1
    41    35    36    2
    42   102   103    1
    43   102   105    1
    44    34    37    1
    45    34    33    1
    46    57    56    1
    47    57    58    1
    48    57    60    1
    49   117   118    1
    50   117   116   ar
    51   103   104    2
    52    62    61   ar
    53   109   110    2
    54   109   119   am
    55    58    59    2
    56   114   116   ar
    57    61    63   ar
    58    61    60    1
    59    25    24    2
    60    37    38    1
    61   105   106    1
    62    82    85    1
    63    82    81    1
    64    85    86    1
    65   119   120    1
    66    24    23    1
    67    38    39    1
    68    28    30   ar
    69    28    27   ar
    70    64    65    1
    71   122   121    2
    72    87    86    1
    73    26    23    1
    74    26    27    1
    75    23    22    1
    76    30    32   ar
    77    86    88    1
    78   126   124   am
    79   120   121    1
    80   120   123    1
    81    27    29   ar
    82    18    17    2
    83    39    40    2
    84    39    41   am
    85   124   123    1
    86   124   125    2
    87    65    68    1
    88    65    66    1
    89    79    78    1
    90    32    31   ar
    91    22    17   am
    92    73    66   am
    93    73    74    1
    94    70    69    1
    95    70    71    1
    96    68    69    1
    97    17    16    1
    98    77    78    1
    99    77    74    1
   100    29    31   ar
   101    75    74    1
   102    75    76    2
   103    71    72    1
   104    66    67    2
   105    78    80    1
   106    16    19    1
   107    16    15    1
   108   140   142    1
   109   140   139    1
   110     4     3    2
   111    19    20    1
   112   138   137    2
   113   141   139    1
   114    15     3   am
   115    15    21    1
   116     3     2    1
   117   137   136    1
   118   146   145    2
   119   139   136    1
   120   145   144    1
   121    21    20    1
   122     2     1    1
   123     2     5    1
   124   136   135    1
   125   144   147    1
   126   144   143    1
   127   147   148    1
   128   135   129   am
   129     5     6    1
   130    11    13   ar
   131    11     8   ar
   132   130   129    2
   133   129   128    1
   134    13    14   ar
   135     6     8   ar
   136     6     7   ar
   137   150   149    1
   138   148   149    1
   139     8    10   ar
   140   134   132   ar
   141   127   128    1
   142    14    12   ar
   143     7     9   ar
   144    10    12   ar
   145    10     9   ar
   146   128   131    1
   147   132   131    1
   148   132   133   ar
