@<TRIPOS>MOLECULE
tmp/5vp0C00.pdb
 229 219 0 0 0
SMALL
GASTEIGER

@<TRIPOS>ATOM
      1  N          0.8400  -44.1700  -25.8410 N.3    66  TYR66      -0.1227
      2  CA         1.9030  -43.1890  -25.5960 C.3    66  TYR66       0.1736
      3  C          2.7430  -43.4630  -24.3650 C.2    66  TYR66       0.2595
      4  O          3.9660  -43.4540  -24.4510 O.2    66  TYR66      -0.2718
      5  CB         1.3200  -41.7940  -25.4670 C.3    66  TYR66       0.0548
      6  CG         2.3730  -40.7370  -25.2970 C.ar   66  TYR66      -0.0200
      7  CD1        3.2140  -40.3990  -26.3490 C.ar   66  TYR66      -0.0009
      8  CD2        2.5560  -40.0960  -24.0850 C.ar   66  TYR66      -0.0009
      9  CE1        4.1960  -39.4260  -26.2080 C.ar   66  TYR66       0.0417
     10  CE2        3.5430  -39.1240  -23.9300 C.ar   66  TYR66       0.0417
     11  CZ         4.3580  -38.7900  -25.0050 C.ar   66  TYR66       0.1957
     12  OH         5.3290  -37.8240  -24.8950 O.3    66  TYR66      -0.2866
     13  N          2.0990  -43.6790  -23.2230 N.am   67  HIS67      -0.1975
     14  CA         2.8110  -43.7620  -21.9370 C.3    67  HIS67       0.1656
     15  C          3.3620  -45.1550  -21.6630 C.2    67  HIS67       0.2291
     16  O          2.9510  -45.8310  -20.7170 O.2    67  HIS67      -0.2864
     17  CB         1.9150  -43.2950  -20.8040 C.3    67  HIS67       0.0771
     18  CG         1.6740  -41.8260  -20.8080 C.ar   67  HIS67       0.0820
     19  ND1        0.4460  -41.2710  -21.0880 N.ar   67  HIS67      -0.2267
     20  CD2        2.4970  -40.7920  -20.5290 C.ar   67  HIS67       0.1154
     21  CE1        0.5200  -39.9570  -20.9880 C.ar   67  HIS67       0.1986
     22  NE2        1.7560  -39.6400  -20.6510 N.ar   67  HIS67      -0.2212
     23  N          8.3900  -44.1130  -24.4970 N.3    71  HIS71      -0.1241
     24  CA         8.2790  -42.7320  -24.0220 C.3    71  HIS71       0.1621
     25  C          9.3520  -42.4370  -22.9630 C.2    71  HIS71       0.2264
     26  O         10.1130  -41.4730  -23.0820 O.2    71  HIS71      -0.2867
     27  CB         6.8910  -42.4520  -23.4530 C.3    71  HIS71       0.0745
     28  CG         6.7860  -41.1410  -22.7430 C.ar   71  HIS71       0.0817
     29  ND1        7.1010  -39.9490  -23.3500 N.ar   71  HIS71      -0.2268
     30  CD2        6.4010  -40.8320  -21.4830 C.ar   71  HIS71       0.1154
     31  CE1        6.9120  -38.9560  -22.5000 C.ar   71  HIS71       0.1986
     32  NE2        6.4850  -39.4660  -21.3610 N.ar   71  HIS71      -0.2212
     33  N          1.9230  -46.3360  -15.8210 N.3   111  HIS111     -0.1241
     34  CA         0.8860  -45.4760  -16.3970 C.3   111  HIS111      0.1621
     35  C         -0.1300  -46.3730  -17.1150 C.2   111  HIS111      0.2264
     36  O          0.2600  -47.3600  -17.7460 O.2   111  HIS111     -0.2867
     37  CB         1.5010  -44.4850  -17.3930 C.3   111  HIS111      0.0745
     38  CG         0.7270  -43.2130  -17.5310 C.ar  111  HIS111      0.0817
     39  ND1       -0.3980  -43.1010  -18.3140 N.ar  111  HIS111     -0.2268
     40  CD2        0.9340  -41.9880  -16.9940 C.ar  111  HIS111      0.1154
     41  CE1       -0.8620  -41.8710  -18.2430 C.ar  111  HIS111      0.1986
     42  NE2       -0.0670  -41.1720  -17.4540 N.ar  111  HIS111     -0.2212
     43  N         -5.5290  -40.2070  -16.9870 N.3   115  ASN115     -0.1240
     44  CA        -5.0180  -39.0330  -16.2400 C.3   115  ASN115      0.1653
     45  C         -5.4210  -38.9930  -14.7540 C.2   115  ASN115      0.2266
     46  O         -6.0640  -39.9370  -14.2620 O.2   115  ASN115     -0.2867
     47  CB        -5.3880  -37.7360  -16.9780 C.3   115  ASN115      0.1155
     48  CG        -6.8510  -37.3380  -16.8230 C.2   115  ASN115      0.2627
     49  OD1       -7.6790  -38.0510  -16.2470 O.2   115  ASN115     -0.2716
     50  ND2       -7.1850  -36.1990  -17.3900 N.am  115  ASN115     -0.0877
     51  N          7.2720  -32.8990  -10.4130 N.3   162  ALA162     -0.1231
     52  CA         7.3220  -31.7820  -11.3490 C.3   162  ALA162      0.1694
     53  C          6.7910  -32.0960  -12.7540 C.2   162  ALA162      0.2593
     54  O          6.5620  -31.1640  -13.5270 O.2   162  ALA162     -0.2718
     55  CB         8.7210  -31.2080  -11.4320 C.3   162  ALA162      0.0304
     56  N          6.5620  -33.3720  -13.0740 N.am  163  THR163     -0.1939
     57  CA         5.9200  -33.7650  -14.3450 C.3   163  THR163      0.2028
     58  C          4.3830  -33.5810  -14.3850 C.2   163  THR163      0.2642
     59  O          3.7740  -33.7620  -15.4390 O.2   163  THR163     -0.2714
     60  CB         6.2410  -35.2230  -14.7280 C.3   163  THR163      0.1808
     61  OG1        5.7420  -36.1170  -13.7240 O.3   163  THR163     -0.2208
     62  CG2        7.7110  -35.4110  -14.8960 C.3   163  THR163      0.0379
     63  N          3.7560  -33.2600  -13.2530 N.am  164  ASP164     -0.1957
     64  CA         2.3420  -32.8650  -13.2250 C.3   164  ASP164      0.1840
     65  C          2.2330  -31.4380  -13.7560 C.2   164  ASP164      0.2621
     66  O          2.8560  -30.5260  -13.2070 O.2   164  ASP164     -0.2715
     67  CB         1.7960  -32.9330  -11.7790 C.3   164  ASP164      0.1450
     68  CG         0.2990  -32.5910  -11.6690 C.2   164  ASP164      0.3671
     69  OD1       -0.3410  -32.2540  -12.6770 O.co2 164  ASP164     -0.2456
     70  OD2       -0.2620  -32.6710  -10.5620 O.co2 164  ASP164     -0.2456
     71  N          1.4240  -31.2300  -14.7920 N.am  165  LEU165     -0.1977
     72  CA         1.2110  -29.8860  -15.3340 C.3   165  LEU165      0.1596
     73  C          0.7790  -28.8620  -14.2800 C.2   165  LEU165      0.2287
     74  O          1.1820  -27.6950  -14.3310 O.2   165  LEU165     -0.2864
     75  CB         0.1820  -29.9270  -16.4630 C.3   165  LEU165      0.0297
     76  CG        -0.2260  -28.6140  -17.1390 C.3   165  LEU165      0.0022
     77  CD1        0.9810  -27.8490  -17.6790 C.3   165  LEU165      0.0001
     78  CD2       -1.2230  -28.9580  -18.2440 C.3   165  LEU165      0.0001
     79  N          3.8740  -27.4640  -12.6490 N.3   168  HIS168     -0.1241
     80  CA         4.5370  -26.5430  -13.5680 C.3   168  HIS168      0.1621
     81  C          3.8610  -25.1770  -13.6020 C.2   168  HIS168      0.2264
     82  O          4.5290  -24.1490  -13.5560 O.2   168  HIS168     -0.2867
     83  CB         4.6090  -27.1520  -14.9690 C.3   168  HIS168      0.0745
     84  CG         4.9920  -26.1720  -16.0260 C.ar  168  HIS168      0.0817
     85  ND1        6.2810  -25.7170  -16.1880 N.ar  168  HIS168     -0.2268
     86  CD2        4.2460  -25.5280  -16.9530 C.ar  168  HIS168      0.1154
     87  CE1        6.3170  -24.8480  -17.1790 C.ar  168  HIS168      0.1986
     88  NE2        5.0950  -24.7140  -17.6570 N.ar  168  HIS168     -0.2212
     89  N         10.4510  -31.1390  -17.2460 N.3   200  THR200     -0.1218
     90  CA         9.3380  -30.8730  -18.1590 C.3   200  THR200      0.1862
     91  C          9.8430  -30.7590  -19.5900 C.2   200  THR200      0.2287
     92  O          9.1650  -31.2160  -20.5040 O.2   200  THR200     -0.2866
     93  CB         8.5190  -29.6240  -17.7850 C.3   200  THR200      0.1770
     94  OG1        9.3600  -28.4750  -17.7460 O.3   200  THR200     -0.2211
     95  CG2        7.8490  -29.8120  -16.4450 C.3   200  THR200      0.0375
     96  N         10.1950  -34.2570  -20.7620 N.3   203  ASP203     -0.1225
     97  CA         8.8960  -34.9040  -20.8860 C.3   203  ASP203      0.1805
     98  C          8.2140  -34.5130  -22.2070 C.2   203  ASP203      0.2597
     99  O          7.5470  -35.3610  -22.8230 O.2   203  ASP203     -0.2718
    100  CB         7.9970  -34.5490  -19.6870 C.3   203  ASP203      0.1424
    101  CG         7.0290  -35.6680  -19.2910 C.2   203  ASP203      0.3668
    102  OD1        6.9660  -36.7230  -19.9510 O.co2 203  ASP203     -0.2456
    103  OD2        6.3060  -35.4640  -18.2890 O.co2 203  ASP203     -0.2456
    104  N          8.3980  -33.2550  -22.6390 N.am  204  LEU204     -0.1979
    105  CA         7.8130  -32.7580  -23.8810 C.3   204  LEU204      0.1596
    106  C          8.7680  -32.7810  -25.0690 C.2   204  LEU204      0.2287
    107  O          8.4560  -32.1980  -26.1100 O.2   204  LEU204     -0.2864
    108  CB         7.2790  -31.3370  -23.6840 C.3   204  LEU204      0.0297
    109  CG         6.3080  -31.1240  -22.5290 C.3   204  LEU204      0.0022
    110  CD1        5.7870  -29.6960  -22.5540 C.3   204  LEU204      0.0001
    111  CD2        5.1470  -32.1000  -22.5560 C.3   204  LEU204      0.0001
    112  N          8.2760  -32.7680  -29.0630 N.3   207  GLN207     -0.1245
    113  CA         7.9810  -31.5000  -29.7580 C.3   207  GLN207      0.1566
    114  C          9.2060  -30.8120  -30.4010 C.2   207  GLN207      0.2260
    115  O          9.0330  -29.9030  -31.2150 O.2   207  GLN207     -0.2867
    116  CB         7.2670  -30.5030  -28.8190 C.3   207  GLN207      0.0367
    117  CG         5.9910  -31.0030  -28.1510 C.3   207  GLN207      0.0905
    118  CD         5.0710  -31.7430  -29.1110 C.2   207  GLN207      0.2608
    119  OE1        4.6990  -31.2110  -30.1540 O.2   207  GLN207     -0.2717
    120  NE2        4.6850  -32.9680  -28.7540 N.am  207  GLN207     -0.0878
    121  N          6.2890  -35.2870  -34.1340 N.3   214  THR214     -0.1218
    122  CA         5.1590  -34.6030  -33.4580 C.3   214  THR214      0.1862
    123  C          3.7950  -35.1390  -33.8880 C.2   214  THR214      0.2287
    124  O          2.9100  -35.3310  -33.0490 O.2   214  THR214     -0.2866
    125  CB         5.1620  -33.0730  -33.6620 C.3   214  THR214      0.1770
    126  OG1        5.3190  -32.7500  -35.0510 O.3   214  THR214     -0.2211
    127  CG2        6.2880  -32.4740  -32.9160 C.3   214  THR214      0.0375
    128  N          3.3610  -38.6850  -32.3350 N.3   217  ILE217     -0.1231
    129  CA         3.1410  -38.5570  -30.8910 C.3   217  ILE217      0.1692
    130  C          1.7730  -37.9560  -30.5880 C.2   217  ILE217      0.2591
    131  O          1.0910  -38.4200  -29.6740 O.2   217  ILE217     -0.2718
    132  CB         4.2990  -37.7980  -30.2040 C.3   217  ILE217      0.0266
    133  CG1        5.3890  -38.7970  -29.8050 C.3   217  ILE217      0.0019
    134  CG2        3.8530  -37.0390  -28.9500 C.3   217  ILE217      0.0020
    135  CD1        5.9130  -39.7020  -30.9080 C.3   217  ILE217      0.0001
    136  N          1.3610  -36.9590  -31.3650 N.am  218  ALA218     -0.1980
    137  CA         0.0030  -36.4290  -31.2560 C.3   218  ALA218      0.1597
    138  C         -1.0400  -37.5380  -31.4400 C.2   218  ALA218      0.2287
    139  O         -1.9240  -37.7030  -30.6150 O.2   218  ALA218     -0.2864
    140  CB        -0.2230  -35.3130  -32.2590 C.3   218  ALA218      0.0319
    141  N         -1.1690  -39.7210  -28.3370 N.3   221  ILE221     -0.1231
    142  CA        -1.7760  -38.9800  -27.2310 C.3   221  ILE221      0.1692
    143  C         -3.3000  -38.9870  -27.3480 C.2   221  ILE221      0.2592
    144  O         -4.0030  -39.3080  -26.3930 O.2   221  ILE221     -0.2718
    145  CB        -1.2470  -37.5160  -27.1840 C.3   221  ILE221      0.0266
    146  CG1        0.2110  -37.4920  -26.7030 C.3   221  ILE221      0.0019
    147  CG2       -2.1210  -36.6120  -26.3060 C.3   221  ILE221      0.0020
    148  CD1        0.3930  -37.6340  -25.2100 C.3   221  ILE221      0.0001
    149  N         -3.8080  -38.6150  -28.5190 N.am  222  TYR222     -0.1976
    150  CA        -5.2690  -38.5660  -28.7360 C.3   222  TYR222      0.1639
    151  C         -5.9090  -39.9560  -28.6680 C.2   222  TYR222      0.2290
    152  O         -7.0010  -40.1010  -28.1350 O.2   222  TYR222     -0.2864
    153  CB        -5.6260  -37.7970  -30.0280 C.3   222  TYR222      0.0560
    154  CG        -5.2610  -36.3400  -29.9020 C.ar  222  TYR222     -0.0198
    155  CD1       -5.9290  -35.5190  -28.9840 C.ar  222  TYR222     -0.0009
    156  CD2       -4.2110  -35.7890  -30.6320 C.ar  222  TYR222     -0.0009
    157  CE1       -5.5580  -34.1990  -28.8040 C.ar  222  TYR222      0.0417
    158  CE2       -3.8520  -34.4580  -30.4750 C.ar  222  TYR222      0.0417
    159  CZ        -4.5330  -33.6690  -29.5590 C.ar  222  TYR222      0.1957
    160  OH        -4.1710  -32.3540  -29.3950 O.3   222  TYR222     -0.2866
    161  N         -6.3320  -40.4150  -24.9890 N.3   225  PHE225     -0.1241
    162  CA        -7.3710  -39.5320  -24.4860 C.3   225  PHE225      0.1605
    163  C         -8.7610  -40.0530  -24.8270 C.2   225  PHE225      0.2264
    164  O         -9.6690  -40.0090  -23.9820 O.2   225  PHE225     -0.2867
    165  CB        -7.1910  -38.1220  -25.0690 C.3   225  PHE225      0.0534
    166  CG        -6.0540  -37.3190  -24.4680 C.ar  225  PHE225     -0.0203
    167  CD1       -5.1710  -37.8450  -23.5190 C.ar  225  PHE225     -0.0042
    168  CD2       -5.8570  -36.0080  -24.8810 C.ar  225  PHE225     -0.0042
    169  CE1       -4.1520  -37.0750  -22.9920 C.ar  225  PHE225     -0.0003
    170  CE2       -4.8290  -35.2410  -24.3460 C.ar  225  PHE225     -0.0003
    171  CZ        -3.9870  -35.7730  -23.3960 C.ar  225  PHE225     -0.0000
    172  N        -11.6670  -32.5360  -24.7450 N.3   242  MET242     -0.1245
    173  CA       -10.4430  -33.1230  -25.3200 C.3   242  MET242      0.1570
    174  C        -10.3280  -34.6450  -25.1860 C.2   242  MET242      0.2261
    175  O         -9.5250  -35.2430  -25.8870 O.2   242  MET242     -0.2867
    176  CB        -9.1790  -32.4560  -24.7760 C.3   242  MET242      0.0387
    177  CG        -8.9630  -32.5640  -23.2740 C.3   242  MET242      0.0595
    178  SD        -7.3250  -31.9540  -22.8420 S.3   242  MET242     -0.1393
    179  CE        -6.4880  -33.4360  -22.2950 C.3   242  MET242      0.0692
    180  N         -6.7960  -28.0790  -30.2070 N.3   253  LEU253     -0.1231
    181  CA        -6.1890  -28.6460  -29.0120 C.3   253  LEU253      0.1693
    182  C         -4.6520  -28.7200  -29.0980 C.2   253  LEU253      0.2591
    183  O         -3.9820  -28.4020  -28.1120 O.2   253  LEU253     -0.2718
    184  CB        -6.7960  -30.0350  -28.7030 C.3   253  LEU253      0.0284
    185  CG        -8.3080  -30.0750  -28.4020 C.3   253  LEU253      0.0019
    186  CD1       -8.8340  -31.5060  -28.4120 C.3   253  LEU253      0.0001
    187  CD2       -8.6430  -29.3880  -27.0800 C.3   253  LEU253      0.0001
    188  N         -4.0940  -29.1420  -30.2370 N.am  254  GLN254     -0.1979
    189  CA        -2.6150  -29.1680  -30.4200 C.3   254  GLN254      0.1601
    190  C         -2.0000  -27.7850  -30.3630 C.2   254  GLN254      0.2287
    191  O         -0.9830  -27.5840  -29.7150 O.2   254  GLN254     -0.2864
    192  CB        -2.1820  -29.7600  -31.7720 C.3   254  GLN254      0.0394
    193  CG        -1.9990  -31.2540  -31.8090 C.3   254  GLN254      0.0908
    194  CD        -1.0540  -31.7750  -30.7480 C.2   254  GLN254      0.2608
    195  OE1       -1.5070  -32.3330  -29.7520 O.2   254  GLN254     -0.2717
    196  NE2        0.2520  -31.6110  -30.9570 N.am  254  GLN254     -0.0878
    197  N         -3.2020  -25.1160  -28.9950 N.3   256  SER256     -0.1202
    198  CA        -3.2640  -24.6500  -27.6000 C.3   256  SER256      0.2020
    199  C         -2.1610  -25.2450  -26.7490 C.2   256  SER256      0.2618
    200  O         -1.4130  -24.5280  -26.0800 O.2   256  SER256     -0.2717
    201  CB        -4.6040  -24.9690  -26.9360 C.3   256  SER256      0.2103
    202  OG        -5.4900  -23.9230  -27.1500 O.3   256  SER256     -0.2182
    203  N         -2.0660  -26.5700  -26.7850 N.am  257  PHE257     -0.1975
    204  CA        -1.0010  -27.2570  -26.0980 C.3   257  PHE257      0.1639
    205  C          0.3630  -26.6510  -26.4500 C.2   257  PHE257      0.2290
    206  O          1.1540  -26.3530  -25.5610 O.2   257  PHE257     -0.2864
    207  CB        -1.0160  -28.7440  -26.4030 C.3   257  PHE257      0.0560
    208  CG         0.2260  -29.4300  -25.9670 C.ar  257  PHE257     -0.0200
    209  CD1        0.4630  -29.6540  -24.6180 C.ar  257  PHE257     -0.0042
    210  CD2        1.2000  -29.7890  -26.8950 C.ar  257  PHE257     -0.0042
    211  CE1        1.6470  -30.2470  -24.2050 C.ar  257  PHE257     -0.0003
    212  CE2        2.3790  -30.3880  -26.4890 C.ar  257  PHE257     -0.0003
    213  CZ         2.6010  -30.6180  -25.1450 C.ar  257  PHE257     -0.0000
    214  N          1.7500  -24.3420  -23.4010 N.3   261  ILE261     -0.1245
    215  CA         2.4820  -25.2750  -22.5510 C.3   261  ILE261      0.1561
    216  C          3.8970  -25.4980  -23.0900 C.2   261  ILE261      0.2260
    217  O          4.8680  -25.1020  -22.4340 O.2   261  ILE261     -0.2867
    218  CB         1.6850  -26.5890  -22.3780 C.3   261  ILE261      0.0252
    219  CG1        0.4250  -26.2990  -21.5600 C.3   261  ILE261      0.0019
    220  CG2        2.5100  -27.6540  -21.6750 C.3   261  ILE261      0.0019
    221  CD1       -0.6700  -27.3320  -21.7110 C.3   261  ILE261      0.0001
    222  N          7.8570  -23.3850  -22.1440 N.3   265  ILE265     -0.1245
    223  CA         8.8930  -24.2320  -21.5430 C.3   265  ILE265      0.1561
    224  C         10.2230  -24.0770  -22.2850 C.2   265  ILE265      0.2260
    225  O         11.2460  -23.8040  -21.6540 O.2   265  ILE265     -0.2867
    226  CB         8.4260  -25.7050  -21.4250 C.3   265  ILE265      0.0252
    227  CG1        7.5100  -25.8300  -20.2090 C.3   265  ILE265      0.0019
    228  CG2        9.5930  -26.6740  -21.2990 C.3   265  ILE265      0.0019
    229  CD1        6.6290  -27.0650  -20.2030 C.3   265  ILE265      0.0001
@<TRIPOS>BOND
     1   126   125    1
     2   121   122    1
     3   123   122    1
     4   123   124    2
     5   125   122    1
     6   125   127    1
     7   128   129    1
     8   140   137    1
     9   193   192    1
    10   193   194    1
    11   192   189    1
    12   138   137    1
    13   138   139    2
    14   136   137    1
    15   136   130   am
    16   115   114    2
    17   196   194   am
    18   135   133    1
    19   129   130    1
    20   129   132    1
    21   194   195    2
    22   156   158   ar
    23   156   154   ar
    24   130   131    2
    25   158   159   ar
    26   189   190    1
    27   189   188    1
    28   114   113    1
    29   190   191    2
    30   188   182   am
    31   180   181    1
    32   132   133    1
    33   132   134    1
    34   119   118    2
    35   153   154    1
    36   153   150    1
    37   154   155   ar
    38   113   112    1
    39   113   116    1
    40   159   160    1
    41   159   157   ar
    42   118   120   am
    43   118   117    1
    44   182   181    1
    45   182   183    2
    46   181   184    1
    47   197   198    1
    48   155   157   ar
    49   116   117    1
    50   150   151    1
    51   150   149    1
    52   184   185    1
    53   151   152    2
    54   149   143   am
    55   186   185    1
    56   185   187    1
    57   141   142    1
    58   198   201    1
    59   198   199    1
    60   143   142    1
    61   143   144    2
    62   142   145    1
    63   145   146    1
    64   145   147    1
    65   202   201    1
    66   210   212   ar
    67   210   208   ar
    68   203   199   am
    69   203   204    1
    70   199   200    2
    71   146   148    1
    72   212   213   ar
    73   205   204    1
    74   205   206    2
    75   207   204    1
    76   207   208    1
    77     7     9   ar
    78     7     6   ar
    79     9    11   ar
    80   107   106    2
    81   208   209   ar
    82   175   174    2
    83     1     2    1
    84     2     5    1
    85     2     3    1
    86     5     6    1
    87   173   174    1
    88   173   176    1
    89   173   172    1
    90     6     8   ar
    91   213   211   ar
    92   165   162    1
    93   165   166    1
    94   106   105    1
    95    11    12    1
    96    11    10   ar
    97   161   162    1
    98   168   166   ar
    99   168   170   ar
   100   163   162    1
   101   163   164    2
   102   176   177    1
   103   209   211   ar
   104    23    24    1
   105   166   167   ar
   106     4     3    2
   107     3    13   am
   108   170   171   ar
   109     8    10   ar
   110    24    27    1
   111    24    25    1
   112   105   108    1
   113   105   104    1
   114   108   109    1
   115   167   169   ar
   116    27    28    1
   117   214   215    1
   118   171   169   ar
   119    29    28   ar
   120    29    31   ar
   121   177   178    1
   122    13    14    1
   123   216   215    1
   124   216   217    2
   125    26    25    2
   126   178   179    1
   127    99    98    2
   128    28    30   ar
   129   104    98   am
   130   111   109    1
   131   110   109    1
   132   215   218    1
   133    31    32   ar
   134   218   220    1
   135   218   219    1
   136   224   225    2
   137   224   223    1
   138    98    97    1
   139   222   223    1
   140    14    15    1
   141    14    17    1
   142   221   219    1
   143    15    16    2
   144   223   226    1
   145    30    32   ar
   146   226   228    1
   147   226   227    1
   148    19    21   ar
   149    19    18   ar
   150    21    22   ar
   151    97    96    1
   152    97   100    1
   153    18    17    1
   154    18    20   ar
   155    22    20   ar
   156    92    91    2
   157   227   229    1
   158   102   101   ar
   159   100   101    1
   160    91    90    1
   161   101   103   ar
   162    39    41   ar
   163    39    38   ar
   164    78    76    1
   165    41    42   ar
   166    90    93    1
   167    90    89    1
   168    93    94    1
   169    93    95    1
   170    36    35    2
   171    77    76    1
   172    88    87   ar
   173    88    86   ar
   174    38    37    1
   175    38    40   ar
   176    42    40   ar
   177    37    34    1
   178    50    48   am
   179    87    85   ar
   180    76    75    1
   181    35    34    1
   182    43    44    1
   183    47    48    1
   184    47    44    1
   185    86    84   ar
   186    48    49    2
   187    75    72    1
   188    34    33    1
   189    44    45    1
   190    85    84   ar
   191    84    83    1
   192    59    58    2
   193    72    71    1
   194    72    73    1
   195    83    80    1
   196    62    60    1
   197    71    65   am
   198    45    46    2
   199    60    57    1
   200    60    61    1
   201    58    57    1
   202    58    63   am
   203    57    56    1
   204    74    73    2
   205    65    64    1
   206    65    66    2
   207    81    80    1
   208    81    82    2
   209    80    79    1
   210    54    53    2
   211    63    64    1
   212    64    67    1
   213    56    53   am
   214    53    52    1
   215    69    68   ar
   216    67    68    1
   217    68    70   ar
   218    55    52    1
   219    52    51    1
