@<TRIPOS>MOLECULE
tmp/5vp1C00.pdb
 206 195 0 0 0
SMALL
GASTEIGER

@<TRIPOS>ATOM
      1  N        -14.5800  -43.2610   17.3720 N.3    66  TYR66      -0.1227
      2  CA       -13.4540  -42.3290   17.5290 C.3    66  TYR66       0.1736
      3  C        -12.6060  -42.5710   18.7700 C.2    66  TYR66       0.2595
      4  O        -11.3810  -42.6580   18.6740 O.2    66  TYR66      -0.2718
      5  CB       -13.9570  -40.8840   17.5290 C.3    66  TYR66       0.0548
      6  CG       -12.8500  -39.8610   17.6450 C.ar   66  TYR66      -0.0200
      7  CD1      -11.9740  -39.6210   16.5830 C.ar   66  TYR66      -0.0009
      8  CD2      -12.6580  -39.1550   18.8240 C.ar   66  TYR66      -0.0009
      9  CE1      -10.9470  -38.6880   16.6990 C.ar   66  TYR66       0.0417
     10  CE2      -11.6400  -38.2200   18.9470 C.ar   66  TYR66       0.0417
     11  CZ       -10.7860  -37.9880   17.8870 C.ar   66  TYR66       0.1957
     12  OH        -9.7850  -37.0540   18.0290 O.3    66  TYR66      -0.2866
     13  N        -13.2430  -42.6730   19.9330 N.am   67  HIS67      -0.1975
     14  CA       -12.5080  -42.7070   21.2070 C.3    67  HIS67       0.1656
     15  C        -11.9860  -44.0940   21.5540 C.2    67  HIS67       0.2291
     16  O        -12.3650  -44.7040   22.5560 O.2    67  HIS67      -0.2864
     17  CB       -13.3700  -42.1380   22.3240 C.3    67  HIS67       0.0771
     18  CG       -13.4990  -40.6520   22.2720 C.ar   67  HIS67       0.0820
     19  ND1      -14.6630  -40.0190   21.9100 N.ar   67  HIS67      -0.2267
     20  CD2      -12.5970  -39.6730   22.5160 C.ar   67  HIS67       0.1154
     21  CE1      -14.4860  -38.7130   21.9600 C.ar   67  HIS67       0.1986
     22  NE2      -13.2400  -38.4750   22.3280 N.ar   67  HIS67      -0.2212
     23  N        -13.3740  -44.8510   27.4790 N.3   111  HIS111     -0.1241
     24  CA       -14.3900  -44.0080   26.8460 C.3   111  HIS111      0.1621
     25  C        -15.4450  -44.9200   26.1900 C.2   111  HIS111      0.2264
     26  O        -15.1080  -45.9620   25.6340 O.2   111  HIS111     -0.2867
     27  CB       -13.7590  -43.0860   25.7930 C.3   111  HIS111      0.0745
     28  CG       -14.5000  -41.8020   25.5820 C.ar  111  HIS111      0.0817
     29  ND1      -15.6700  -41.7260   24.8690 N.ar  111  HIS111     -0.2268
     30  CD2      -14.2170  -40.5380   25.9710 C.ar  111  HIS111      0.1154
     31  CE1      -16.0960  -40.4750   24.8460 C.ar  111  HIS111      0.1986
     32  NE2      -15.2290  -39.7320   25.5090 N.ar  111  HIS111     -0.2212
     33  N        -20.4590  -38.5120   25.9700 N.3   115  ASN115     -0.1240
     34  CA       -19.8450  -37.3200   26.5610 C.3   115  ASN115      0.1653
     35  C        -20.2560  -37.1470   28.0340 C.2   115  ASN115      0.2266
     36  O        -20.9610  -37.9980   28.5920 O.2   115  ASN115     -0.2867
     37  CB       -20.1750  -36.0810   25.7160 C.3   115  ASN115      0.1155
     38  CG       -21.6210  -35.6300   25.8480 C.2   115  ASN115      0.2627
     39  OD1      -22.4590  -36.3000   26.4500 O.2   115  ASN115     -0.2716
     40  ND2      -21.9190  -34.4830   25.2740 N.am  115  ASN115     -0.0877
     41  N         -7.3870  -31.4350   32.0300 N.3   164  ALA164     -0.1231
     42  CA        -7.2820  -30.3780   31.0300 C.3   164  ALA164      0.1694
     43  C         -7.8810  -30.7420   29.6680 C.2   164  ALA164      0.2592
     44  O         -8.0830  -29.8490   28.8530 O.2   164  ALA164     -0.2718
     45  CB        -5.8350  -29.9510   30.8580 C.3   164  ALA164      0.0304
     46  N         -8.1670  -32.0230   29.4250 N.am  165  THR165     -0.1953
     47  CA        -8.8080  -32.4580   28.1750 C.3   165  THR165      0.1897
     48  C        -10.3300  -32.2030   28.1310 C.2   165  THR165      0.2313
     49  O        -10.9580  -32.4520   27.1050 O.2   165  THR165     -0.2863
     50  CB        -8.5570  -33.9480   27.8880 C.3   165  THR165      0.1794
     51  OG1       -9.1260  -34.7430   28.9280 O.3   165  THR165     -0.2208
     52  CG2       -7.0780  -34.2430   27.7490 C.3   165  THR165      0.0378
     53  N        -13.1620  -29.7350   27.6170 N.3   167  LEU167     -0.1245
     54  CA       -13.3390  -28.4160   26.9980 C.3   167  LEU167      0.1561
     55  C        -13.7150  -27.3310   28.0040 C.2   167  LEU167      0.2260
     56  O        -13.2500  -26.2020   27.8970 O.2   167  LEU167     -0.2867
     57  CB       -14.4020  -28.4870   25.8960 C.3   167  LEU167      0.0270
     58  CG       -14.7420  -27.1830   25.1800 C.3   167  LEU167      0.0019
     59  CD1      -13.5050  -26.5700   24.5280 C.3   167  LEU167      0.0001
     60  CD2      -15.8230  -27.4630   24.1570 C.3   167  LEU167      0.0001
     61  N        -10.5390  -26.0380   29.6190 N.3   170  HIS170     -0.1241
     62  CA        -9.8460  -25.1940   28.6450 C.3   170  HIS170      0.1621
     63  C        -10.4620  -23.7970   28.5320 C.2   170  HIS170      0.2264
     64  O         -9.7510  -22.7880   28.5050 O.2   170  HIS170     -0.2867
     65  CB        -9.8390  -25.8740   27.2740 C.3   170  HIS170      0.0745
     66  CG        -9.3890  -24.9790   26.1690 C.ar  170  HIS170      0.0817
     67  ND1       -8.0830  -24.5660   26.0410 N.ar  170  HIS170     -0.2268
     68  CD2      -10.0720  -24.3950   25.1600 C.ar  170  HIS170      0.1154
     69  CE1       -7.9770  -23.7620   25.0010 C.ar  170  HIS170      0.1986
     70  NE2       -9.1690  -23.6460   24.4450 N.ar  170  HIS170     -0.2212
     71  N         -4.2540  -30.2410   25.1350 N.3   202  THR202     -0.1218
     72  CA        -5.3740  -29.9340   24.2260 C.3   202  THR202      0.1862
     73  C         -4.9180  -29.8960   22.7590 C.2   202  THR202      0.2287
     74  O         -5.6430  -30.3640   21.8920 O.2   202  THR202     -0.2866
     75  CB        -6.1600  -28.6720   24.6300 C.3   202  THR202      0.1770
     76  OG1       -5.3010  -27.5330   24.6460 O.3   202  THR202     -0.2211
     77  CG2       -6.7840  -28.8310   25.9790 C.3   202  THR202      0.0375
     78  N         -4.7750  -33.5210   21.8300 N.3   205  ASP205     -0.1225
     79  CA        -6.1260  -34.0880   21.7330 C.3   205  ASP205      0.1805
     80  C         -6.7980  -33.7580   20.3760 C.2   205  ASP205      0.2597
     81  O         -7.4840  -34.6110   19.8020 O.2   205  ASP205     -0.2718
     82  CB        -6.9990  -33.5870   22.8870 C.3   205  ASP205      0.1424
     83  CG        -8.0100  -34.6150   23.3830 C.2   205  ASP205      0.3668
     84  OD1       -8.1660  -35.7140   22.8070 O.co2 205  ASP205     -0.2456
     85  OD2       -8.6680  -34.2940   24.3880 O.co2 205  ASP205     -0.2456
     86  N         -6.5740  -32.5430   19.8740 N.am  206  LEU206     -0.1979
     87  CA        -7.1690  -32.0650   18.6220 C.3   206  LEU206      0.1596
     88  C         -6.2530  -32.1880   17.3990 C.2   206  LEU206      0.2287
     89  O         -6.5910  -31.6580   16.3270 O.2   206  LEU206     -0.2864
     90  CB        -7.5950  -30.6020   18.7950 C.3   206  LEU206      0.0297
     91  CG        -8.5720  -30.3260   19.9450 C.3   206  LEU206      0.0022
     92  CD1       -8.9970  -28.8700   19.9550 C.3   206  LEU206      0.0001
     93  CD2       -9.7930  -31.2370   19.8510 C.3   206  LEU206      0.0001
     94  N         -6.7670  -32.3930   13.4450 N.3   209  GLN209     -0.1245
     95  CA        -7.0650  -31.1910   12.6670 C.3   209  GLN209      0.1566
     96  C         -5.8410  -30.5490   12.0060 C.2   209  GLN209      0.2260
     97  O         -6.0120  -29.6630   11.1680 O.2   209  GLN209     -0.2867
     98  CB        -7.7960  -30.1640   13.5480 C.3   209  GLN209      0.0367
     99  CG        -9.0480  -30.6850   14.2610 C.3   209  GLN209      0.0905
    100  CD        -9.9910  -31.4220   13.3220 C.2   209  GLN209      0.2608
    101  OE1      -10.2240  -30.9700   12.2130 O.2   209  GLN209     -0.2717
    102  NE2      -10.5280  -32.5580   13.7590 N.am  209  GLN209     -0.0878
    103  N        -11.7700  -38.3430   10.3190 N.3   219  ILE219     -0.1231
    104  CA       -12.0140  -38.2000   11.7640 C.3   219  ILE219      0.1692
    105  C        -13.3830  -37.5800   12.0260 C.2   219  ILE219      0.2591
    106  O        -14.0690  -38.0000   12.9510 O.2   219  ILE219     -0.2718
    107  CB       -10.8560  -37.4560   12.4820 C.3   219  ILE219      0.0266
    108  CG1       -9.7810  -38.4700   12.8990 C.3   219  ILE219      0.0019
    109  CG2      -11.3200  -36.7350   13.7460 C.3   219  ILE219      0.0020
    110  CD1       -9.2200  -39.3480   11.7970 C.3   219  ILE219      0.0001
    111  N        -13.7830  -36.6050   11.2100 N.am  220  ALA220     -0.1980
    112  CA       -15.1380  -36.0390   11.2980 C.3   220  ALA220      0.1597
    113  C        -16.1900  -37.1370   11.1880 C.2   220  ALA220      0.2287
    114  O        -17.0900  -37.2190   12.0140 O.2   220  ALA220     -0.2864
    115  CB       -15.3580  -34.9810   10.2340 C.3   220  ALA220      0.0319
    116  N        -16.2130  -39.0530   14.4530 N.3   223  ILE223     -0.1231
    117  CA       -16.7690  -38.1640   15.4690 C.3   223  ILE223      0.1692
    118  C        -18.2990  -38.1110   15.3740 C.2   223  ILE223      0.2592
    119  O        -18.9890  -38.3500   16.3580 O.2   223  ILE223     -0.2718
    120  CB       -16.1490  -36.7450   15.3600 C.3   223  ILE223      0.0266
    121  CG1      -14.6750  -36.7620   15.8370 C.3   223  ILE223      0.0019
    122  CG2      -16.9660  -35.7030   16.1240 C.3   223  ILE223      0.0020
    123  CD1      -14.4890  -36.7440   17.3270 C.3   223  ILE223      0.0001
    124  N        -18.8180  -37.8070   14.1890 N.am  224  TYR224     -0.1976
    125  CA       -20.2660  -37.6950   14.0260 C.3   224  TYR224      0.1639
    126  C        -20.9900  -39.0460   14.2100 C.2   224  TYR224      0.2290
    127  O        -22.0680  -39.0650   14.7940 O.2   224  TYR224     -0.2864
    128  CB       -20.6270  -37.0010   12.7050 C.3   224  TYR224      0.0560
    129  CG       -20.2070  -35.5520   12.7130 C.ar  224  TYR224     -0.0198
    130  CD1      -20.8120  -34.6400   13.5760 C.ar  224  TYR224     -0.0009
    131  CD2      -19.1570  -35.0960   11.9110 C.ar  224  TYR224     -0.0009
    132  CE1      -20.4010  -33.3150   13.6170 C.ar  224  TYR224      0.0417
    133  CE2      -18.7330  -33.7790   11.9520 C.ar  224  TYR224      0.0417
    134  CZ       -19.3660  -32.8830   12.7930 C.ar  224  TYR224      0.1957
    135  OH       -18.9260  -31.5730   12.8340 O.3   224  TYR224     -0.2866
    136  N        -21.2340  -39.1950   17.9780 N.3   227  PHE227     -0.1241
    137  CA       -22.2290  -38.2320   18.4390 C.3   227  PHE227      0.1605
    138  C        -23.6560  -38.7000   18.1710 C.2   227  PHE227      0.2264
    139  O        -24.5130  -38.6400   19.0580 O.2   227  PHE227     -0.2867
    140  CB       -22.0300  -36.8630   17.7730 C.3   227  PHE227      0.0534
    141  CG       -20.8170  -36.0810   18.2540 C.ar  227  PHE227     -0.0203
    142  CD1      -20.0080  -36.5050   19.3090 C.ar  227  PHE227     -0.0042
    143  CD2      -20.5230  -34.8670   17.6500 C.ar  227  PHE227     -0.0042
    144  CE1      -18.9220  -35.7500   19.7160 C.ar  227  PHE227     -0.0003
    145  CE2      -19.4470  -34.1000   18.0630 C.ar  227  PHE227     -0.0003
    146  CZ       -18.6450  -34.5430   19.0960 C.ar  227  PHE227     -0.0000
    147  N        -29.0530  -32.8450   22.3390 N.3   242  MET242     -0.1245
    148  CA       -28.5600  -31.6140   21.6870 C.3   242  MET242      0.1570
    149  C        -28.5760  -31.7710   20.1760 C.2   242  MET242      0.2261
    150  O        -28.3960  -32.8810   19.6750 O.2   242  MET242     -0.2867
    151  CB       -27.1170  -31.3160   22.1100 C.3   242  MET242      0.0387
    152  CG       -26.9720  -30.6670   23.4700 C.3   242  MET242      0.0595
    153  SD       -25.2900  -30.7440   24.1040 S.3   242  MET242     -0.1393
    154  CE       -24.3360  -30.0490   22.7480 C.3   242  MET242      0.0692
    155  N        -26.3440  -31.2260   17.9460 N.3   244  MET244     -0.1245
    156  CA       -25.1340  -31.8620   17.3890 C.3   244  MET244      0.1570
    157  C        -25.0890  -33.3850   17.6130 C.2   244  MET244      0.2261
    158  O        -24.3130  -34.0580   16.9460 O.2   244  MET244     -0.2867
    159  CB       -23.8290  -31.1480   17.8320 C.3   244  MET244      0.0387
    160  CG       -23.2070  -31.5700   19.1510 C.3   244  MET244      0.0595
    161  SD       -21.4480  -31.1500   19.2720 S.3   244  MET244     -0.1393
    162  CE       -21.0100  -32.1760   20.6530 C.3   244  MET244      0.0692
    163  N        -21.5430  -27.1980   12.2970 N.3   255  LEU255     -0.1231
    164  CA       -20.9440  -27.7530   13.5170 C.3   255  LEU255      0.1693
    165  C        -19.4090  -27.8640   13.4040 C.2   255  LEU255      0.2591
    166  O        -18.6800  -27.4670   14.3120 O.2   255  LEU255     -0.2718
    167  CB       -21.5620  -29.1230   13.8290 C.3   255  LEU255      0.0284
    168  CG       -23.0670  -29.1280   14.1670 C.3   255  LEU255      0.0019
    169  CD1      -23.6130  -30.5530   14.1480 C.3   255  LEU255      0.0001
    170  CD2      -23.3360  -28.4610   15.5110 C.3   255  LEU255      0.0001
    171  N        -18.9370  -28.3830   12.2740 N.am  256  GLN256     -0.1979
    172  CA       -17.5010  -28.5780   12.0230 C.3   256  GLN256      0.1601
    173  C        -16.7310  -27.2660   11.9270 C.2   256  GLN256      0.2287
    174  O        -15.6730  -27.1060   12.5440 O.2   256  GLN256     -0.2864
    175  CB       -17.3010  -29.3750   10.7400 C.3   256  GLN256      0.0394
    176  CG       -15.8820  -29.8770   10.5030 C.3   256  GLN256      0.0908
    177  CD       -15.4190  -30.8940   11.5200 C.2   256  GLN256      0.2608
    178  OE1      -16.2280  -31.6430   12.0780 O.2   256  GLN256     -0.2717
    179  NE2      -14.1010  -30.9150   11.7890 N.am  256  GLN256     -0.0878
    180  N        -16.6140  -25.5550   15.4230 N.3   259  PHE259     -0.1241
    181  CA       -15.5880  -26.2590   16.1980 C.3   259  PHE259      0.1605
    182  C        -14.1750  -25.8280   15.7850 C.2   259  PHE259      0.2264
    183  O        -13.3320  -25.5280   16.6300 O.2   259  PHE259     -0.2867
    184  CB       -15.7430  -27.7800   16.0690 C.3   259  PHE259      0.0534
    185  CG       -14.4870  -28.5510   16.3800 C.ar  259  PHE259     -0.0203
    186  CD1      -14.0490  -28.6840   17.6920 C.ar  259  PHE259     -0.0042
    187  CD2      -13.7320  -29.1340   15.3600 C.ar  259  PHE259     -0.0042
    188  CE1      -12.8930  -29.3890   17.9870 C.ar  259  PHE259     -0.0003
    189  CE2      -12.5710  -29.8360   15.6480 C.ar  259  PHE259     -0.0003
    190  CZ       -12.1470  -29.9590   16.9660 C.ar  259  PHE259     -0.0000
    191  N        -12.8410  -23.3860   18.6610 N.3   263  ILE263     -0.1245
    192  CA       -12.1870  -24.2850   19.6070 C.3   263  ILE263      0.1561
    193  C        -10.7820  -24.6530   19.1170 C.2   263  ILE263      0.2260
    194  O         -9.8010  -24.3110   19.7740 O.2   263  ILE263     -0.2867
    195  CB       -13.0220  -25.5620   19.8870 C.3   263  ILE263      0.0252
    196  CG1      -14.3710  -25.1850   20.5120 C.3   263  ILE263      0.0019
    197  CG2      -12.2560  -26.5010   20.8210 C.3   263  ILE263      0.0019
    198  CD1      -15.3930  -26.3080   20.5420 C.3   263  ILE263      0.0001
    199  N         -6.5210  -22.6520   19.9250 N.3   267  ILE267     -0.1245
    200  CA        -5.5070  -23.4830   20.6000 C.3   267  ILE267      0.1561
    201  C         -4.1960  -23.4550   19.8160 C.2   267  ILE267      0.2260
    202  O         -3.1390  -23.1740   20.3940 O.2   267  ILE267     -0.2867
    203  CB        -6.0210  -24.9290   20.8270 C.3   267  ILE267      0.0252
    204  CG1       -6.9730  -24.9480   22.0290 C.3   267  ILE267      0.0019
    205  CG2       -4.8740  -25.9060   21.0440 C.3   267  ILE267      0.0019
    206  CD1       -7.9980  -26.0600   21.9940 C.3   267  ILE267      0.0001
@<TRIPOS>BOND
     1   115   112    1
     2   103   104    1
     3   176   175    1
     4   176   177    1
     5   175   172    1
     6    97    96    2
     7   113   112    1
     8   113   114    2
     9   111   112    1
    10   111   105   am
    11   177   179   am
    12   177   178    2
    13   104   105    1
    14   104   107    1
    15   110   108    1
    16   131   133   ar
    17   131   129   ar
    18   173   172    1
    19   173   174    2
    20   133   134   ar
    21    96    95    1
    22   172   171    1
    23   105   106    2
    24   101   100    2
    25   171   165   am
    26   163   164    1
    27   107   108    1
    28   107   109    1
    29    95    94    1
    30    95    98    1
    31   128   129    1
    32   128   125    1
    33   129   130   ar
    34   134   135    1
    35   134   132   ar
    36   100   102   am
    37   100    99    1
    38   165   164    1
    39   165   166    2
    40   164   167    1
    41    98    99    1
    42   130   132   ar
    43   167   168    1
    44   125   124    1
    45   125   126    1
    46   169   168    1
    47   168   170    1
    48   124   118   am
    49   126   127    2
    50   116   117    1
    51   187   189   ar
    52   187   185   ar
    53   120   117    1
    54   120   121    1
    55   120   122    1
    56   118   117    1
    57   118   119    2
    58   180   181    1
    59   189   190   ar
    60   182   181    1
    61   182   183    2
    62   121   123    1
    63   184   181    1
    64   184   185    1
    65    89    88    2
    66   185   186   ar
    67     7     9   ar
    68     7     6   ar
    69     9    11   ar
    70   158   157    2
    71   190   188   ar
    72     1     2    1
    73   156   157    1
    74   156   159    1
    75   156   155    1
    76    88    87    1
    77     5     2    1
    78     5     6    1
    79     2     3    1
    80     6     8   ar
    81   143   145   ar
    82   143   141   ar
    83   186   188   ar
    84   140   141    1
    85   140   137    1
    86   159   160    1
    87    11    12    1
    88    11    10   ar
    89   136   137    1
    90   145   146   ar
    91   138   137    1
    92   138   139    2
    93   141   142   ar
    94    87    90    1
    95    87    86    1
    96   191   192    1
    97     4     3    2
    98     3    13   am
    99    90    91    1
   100     8    10   ar
   101   146   144   ar
   102   193   192    1
   103   193   194    2
   104   160   161    1
   105   161   162    1
   106   142   144   ar
   107   192   195    1
   108   150   149    2
   109    81    80    2
   110   201   202    2
   111   201   200    1
   112    93    91    1
   113    86    80   am
   114   195   196    1
   115   195   197    1
   116   199   200    1
   117    13    14    1
   118    91    92    1
   119   149   148    1
   120    80    79    1
   121   196   198    1
   122   200   203    1
   123   203   205    1
   124   203   204    1
   125    14    15    1
   126    14    17    1
   127    15    16    2
   128   148   151    1
   129   148   147    1
   130    79    78    1
   131    79    82    1
   132    74    73    2
   133    19    21   ar
   134    19    18   ar
   135    21    22   ar
   136   206   204    1
   137   151   152    1
   138    18    17    1
   139    18    20   ar
   140    22    20   ar
   141   154   153    1
   142    73    72    1
   143    84    83   ar
   144    82    83    1
   145    83    85   ar
   146   152   153    1
   147    60    58    1
   148    72    75    1
   149    72    71    1
   150    70    69   ar
   151    70    68   ar
   152    59    58    1
   153    75    76    1
   154    75    77    1
   155    31    29   ar
   156    31    32   ar
   157    29    28   ar
   158    69    67   ar
   159    68    66   ar
   160    58    57    1
   161    40    38   am
   162    32    30   ar
   163    28    27    1
   164    28    30   ar
   165    26    25    2
   166    37    38    1
   167    37    34    1
   168    27    24    1
   169    38    39    2
   170    57    54    1
   171    33    34    1
   172    67    66   ar
   173    66    65    1
   174    25    24    1
   175    34    35    1
   176    24    23    1
   177    54    53    1
   178    54    55    1
   179    49    48    2
   180    65    62    1
   181    52    50    1
   182    50    47    1
   183    50    51    1
   184    56    55    2
   185    35    36    2
   186    48    47    1
   187    47    46    1
   188    64    63    2
   189    63    62    1
   190    62    61    1
   191    44    43    2
   192    46    43   am
   193    43    42    1
   194    45    42    1
   195    42    41    1
