@<TRIPOS>MOLECULE
tmp/5vp8A00.pdb
 106 99 0 0 0
SMALL
GASTEIGER

@<TRIPOS>ATOM
      1  N         34.0260  119.5220  275.7010 N.3    13  ASN13      -0.1240
      2  CA        34.9530  120.3000  275.0430 C.3    13  ASN13       0.1653
      3  C         35.7820  119.4300  274.0120 C.2    13  ASN13       0.2266
      4  O         36.1240  118.2850  274.3040 O.2    13  ASN13      -0.2867
      5  CB        35.8250  120.9980  276.1290 C.3    13  ASN13       0.1155
      6  CG        36.9950  121.6000  275.5530 C.2    13  ASN13       0.2627
      7  OD1       38.0250  120.8850  275.3660 O.2    13  ASN13      -0.2716
      8  ND2       36.8030  122.7980  274.9750 N.am   13  ASN13      -0.0877
      9  N         38.9540  119.4980  273.1260 N.3    15  MET15      -0.1230
     10  CA        40.1820  118.9500  273.6660 C.3    15  MET15       0.1702
     11  C         39.9110  117.6700  274.5420 C.2    15  MET15       0.2592
     12  O         40.6250  116.7120  274.5140 O.2    15  MET15      -0.2718
     13  CB        40.8600  120.0320  274.4770 C.3    15  MET15       0.0401
     14  CG        42.1430  119.6210  275.2180 C.3    15  MET15       0.0596
     15  SD        42.7420  120.5790  276.7270 S.3    15  MET15      -0.1393
     16  CE        42.0030  119.6120  278.0070 C.3    15  MET15       0.0692
     17  N         38.8650  117.7020  275.3590 N.am   16  ILE16      -0.1980
     18  CA        38.4960  116.5410  276.1520 C.3    16  ILE16       0.1595
     19  C         38.0960  115.4050  275.2390 C.2    16  ILE16       0.2287
     20  O         38.5470  114.3540  275.4360 O.2    16  ILE16      -0.2864
     21  CB        37.4440  116.9560  277.1950 C.3    16  ILE16       0.0276
     22  CG1       38.2540  117.8410  278.1770 C.3    16  ILE16       0.0022
     23  CG2       36.7280  115.7080  277.8580 C.3    16  ILE16       0.0022
     24  CD1       37.4540  118.3880  279.2600 C.3    16  ILE16       0.0001
     25  N         41.3870  113.8970  273.7570 N.3    19  LEU19      -0.1245
     26  CA        42.0890  113.0590  274.7640 C.3    19  LEU19       0.1561
     27  C         41.3300  111.7140  275.0630 C.2    19  LEU19       0.2260
     28  O         41.9420  110.6840  275.2010 O.2    19  LEU19      -0.2867
     29  CB        42.2340  113.8270  276.0860 C.3    19  LEU19       0.0270
     30  CG        43.0320  115.0870  276.0170 C.3    19  LEU19       0.0019
     31  CD1       43.0090  115.7720  277.3240 C.3    19  LEU19       0.0001
     32  CD2       44.4670  114.7340  275.6650 C.3    19  LEU19       0.0001
     33  N         36.9980  115.3590  282.3420 N.3    46  GLU46      -0.1245
     34  CA        36.5000  116.6530  282.7530 C.3    46  GLU46       0.1567
     35  C         36.5610  116.9330  284.2590 C.2    46  GLU46       0.2260
     36  O         37.0460  118.0040  284.7580 O.2    46  GLU46      -0.2867
     37  CB        35.0880  116.8770  282.2060 C.3    46  GLU46       0.0388
     38  CG        34.7190  118.3090  282.5360 C.3    46  GLU46       0.1160
     39  CD        33.5260  118.8720  281.8050 C.2    46  GLU46       0.3649
     40  OE1       32.8520  118.1320  281.1380 O.co2  46  GLU46      -0.2457
     41  OE2       33.1870  120.0850  281.8650 O.co2  46  GLU46      -0.2457
     42  N         40.0360  117.3780  285.5000 N.3    49  PHE49      -0.1227
     43  CA        40.5180  118.7110  285.2350 C.3    49  PHE49       0.1736
     44  C         39.8210  119.7670  286.0930 C.2    49  PHE49       0.2595
     45  O         40.4900  120.7230  286.5130 O.2    49  PHE49      -0.2718
     46  CB        40.4390  119.1190  283.7040 C.3    49  PHE49       0.0547
     47  CG        41.2510  118.2560  282.7980 C.ar   49  PHE49      -0.0202
     48  CD1       42.3330  117.5440  283.2620 C.ar   49  PHE49      -0.0042
     49  CD2       40.8710  118.0670  281.5220 C.ar   49  PHE49      -0.0042
     50  CE1       43.0260  116.6890  282.4550 C.ar   49  PHE49      -0.0003
     51  CE2       41.5970  117.2600  280.6600 C.ar   49  PHE49      -0.0003
     52  CZ        42.6760  116.5810  281.1250 C.ar   49  PHE49      -0.0000
     53  N         38.5010  119.6630  286.3040 N.am   50  MET50      -0.1979
     54  CA        37.8410  120.6430  287.2160 C.3    50  MET50       0.1605
     55  C         38.4340  120.4970  288.6290 C.2    50  MET50       0.2287
     56  O         38.6870  121.4650  289.2770 O.2    50  MET50      -0.2864
     57  CB        36.3560  120.4520  287.2300 C.3    50  MET50       0.0413
     58  CG        35.6290  120.6640  285.9110 C.3    50  MET50       0.0598
     59  SD        33.8430  120.1330  286.0390 S.3    50  MET50      -0.1393
     60  CE        33.3410  121.3960  287.1990 C.3    50  MET50       0.0692
     61  N         41.5830  119.5250  289.4890 N.3    52  SER52      -0.1202
     62  CA        42.9100  120.1900  289.5680 C.3    52  SER52       0.2020
     63  C         42.8360  121.7100  289.5810 C.2    52  SER52       0.2618
     64  O         43.6380  122.3260  290.1750 O.2    52  SER52      -0.2717
     65  CB        43.8960  119.7660  288.4430 C.3    52  SER52       0.2103
     66  OG        43.2260  120.0050  287.2260 O.3    52  SER52      -0.2182
     67  N         41.8240  122.2610  288.9820 N.am   53  ASP53      -0.1973
     68  CA        41.5860  123.6410  289.0030 C.3    53  ASP53       0.1709
     69  C         41.0440  124.1200  290.3600 C.2    53  ASP53       0.2293
     70  O         41.0160  125.3080  290.5430 O.2    53  ASP53      -0.2864
     71  CB        40.5880  123.9650  287.8340 C.3    53  ASP53       0.1436
     72  CG        40.3880  125.4480  287.6190 C.2    53  ASP53       0.3671
     73  OD1       41.4180  126.2100  287.4930 O.co2  53  ASP53      -0.2456
     74  OD2       39.1900  125.8950  287.6680 O.co2  53  ASP53      -0.2456
     75  N         48.9770  116.8520  287.2180 N.3    62  ILE62      -0.1245
     76  CA        47.9730  116.2010  286.4470 C.3    62  ILE62       0.1561
     77  C         48.5630  115.0240  285.7110 C.2    62  ILE62       0.2260
     78  O         49.3940  115.2100  284.8250 O.2    62  ILE62      -0.2867
     79  CB        47.3330  117.1730  285.4540 C.3    62  ILE62       0.0252
     80  CG1       46.7900  118.3670  286.2220 C.3    62  ILE62       0.0019
     81  CG2       46.1610  116.5010  284.7500 C.3    62  ILE62       0.0019
     82  CD1       46.1860  119.4800  285.3740 C.3    62  ILE62       0.0001
     83  N         46.4040  112.2030  284.7020 N.3    64  GLU64      -0.1231
     84  CA        45.3940  111.8200  283.7810 C.3    64  GLU64       0.1699
     85  C         45.3760  112.8270  282.5630 C.2    64  GLU64       0.2593
     86  O         45.5280  114.0460  282.6840 O.2    64  GLU64      -0.2718
     87  CB        44.1300  111.8520  284.6080 C.3    64  GLU64       0.0402
     88  CG        42.8240  111.8530  283.9440 C.3    64  GLU64       0.1161
     89  CD        42.5420  110.5790  283.2510 C.2    64  GLU64       0.3649
     90  OE1       43.2480  109.5660  283.3920 O.co2  64  GLU64      -0.2457
     91  OE2       41.5130  110.6030  282.5890 O.co2  64  GLU64      -0.2457
     92  N         45.1720  112.2550  281.3970 N.am   65  GLY65      -0.1942
     93  CA        45.1570  113.0190  280.1820 C.3    65  GLY65       0.2014
     94  C         46.4560  112.8610  279.4340 C.2    65  GLY65       0.2638
     95  O         46.4600  113.1990  278.3410 O.2    65  GLY65      -0.2714
     96  N         47.5290  112.3190  280.0110 N.am   66  ARG66      -0.1977
     97  CA        48.7710  112.1660  279.3180 C.3    66  ARG66       0.1597
     98  C         48.7460  110.8380  278.6710 C.2    66  ARG66       0.2287
     99  O         48.0300  109.9820  279.1440 O.2    66  ARG66      -0.2864
    100  CB        49.8970  112.1570  280.2920 C.3    66  ARG66       0.0334
    101  CG        49.9970  113.4590  280.9820 C.3    66  ARG66       0.0492
    102  CD        51.1610  113.3420  281.8730 C.3    66  ARG66       0.2205
    103  NE        51.2760  114.4810  282.7470 N.pl3  66  ARG66      -0.0865
    104  CZ        52.1390  115.4860  282.5510 C.cat  66  ARG66       0.5346
    105  NH1       52.9550  115.5450  281.5480 N.pl3  66  ARG66       0.1354
    106  NH2       52.1950  116.4300  283.4260 N.pl3  66  ARG66       0.1354
@<TRIPOS>BOND
     1     9    10    1
     2    10    13    1
     3    10    11    1
     4    25    26    1
     5     3     4    2
     6     3     2    1
     7    13    14    1
     8    12    11    2
     9    11    17   am
    10    26    27    1
    11    26    29    1
    12     8     6   am
    13     2     1    1
    14     2     5    1
    15    27    28    2
    16    14    15    1
    17    19    20    2
    18    19    18    1
    19    17    18    1
    20     7     6    2
    21     6     5    1
    22    32    30    1
    23    30    29    1
    24    30    31    1
    25    18    21    1
    26    15    16    1
    27    21    23    1
    28    21    22    1
    29    22    24    1
    30    95    94    2
    31    98    99    2
    32    98    97    1
    33    97    96    1
    34    97   100    1
    35    94    96   am
    36    94    93    1
    37    93    92    1
    38   100   101    1
    39    51    52   ar
    40    51    49   ar
    41   101   102    1
    42    52    50   ar
    43    40    39   ar
    44    92    85   am
    45    49    47   ar
    46   105   104    1
    47    39    41   ar
    48    39    38    1
    49   102   103    1
    50    37    38    1
    51    37    34    1
    52    33    34    1
    53    50    48   ar
    54   104   103    2
    55   104   106    1
    56    85    86    2
    57    85    84    1
    58    91    89   ar
    59    34    35    1
    60    47    48   ar
    61    47    46    1
    62    89    90   ar
    63    89    88    1
    64    46    43    1
    65    84    87    1
    66    84    83    1
    67    88    87    1
    68    35    36    2
    69    81    79    1
    70    78    77    2
    71    43    42    1
    72    43    44    1
    73    82    80    1
    74    79    80    1
    75    79    76    1
    76    77    76    1
    77    58    59    1
    78    58    57    1
    79    59    60    1
    80    44    53   am
    81    44    45    2
    82    53    54    1
    83    76    75    1
    84    54    57    1
    85    54    55    1
    86    66    65    1
    87    73    72   ar
    88    72    74   ar
    89    72    71    1
    90    71    68    1
    91    65    62    1
    92    55    56    2
    93    67    68    1
    94    67    63   am
    95    68    69    1
    96    61    62    1
    97    62    63    1
    98    63    64    2
    99    69    70    2
