@<TRIPOS>MOLECULE
tmp/5vp9A00.pdb
 181 176 0 0 0
SMALL
GASTEIGER

@<TRIPOS>ATOM
      1  N         -2.3570  -23.1190   22.1240 N.3    59  GLN59      -0.1231
      2  CA        -3.2540  -23.4860   21.0340 C.3    59  GLN59       0.1698
      3  C         -2.4710  -24.1690   19.9230 C.2    59  GLN59       0.2593
      4  O         -1.2740  -23.9420   19.7480 O.2    59  GLN59      -0.2718
      5  CB        -3.9710  -22.2530   20.4600 C.3    59  GLN59       0.0381
      6  CG        -5.0000  -21.6280   21.3790 C.3    59  GLN59       0.0905
      7  CD        -5.5310  -20.3060   20.8430 C.2    59  GLN59       0.2608
      8  OE1       -4.8000  -19.5420   20.2160 O.2    59  GLN59      -0.2717
      9  NE2       -6.8070  -20.0340   21.0870 N.am   59  GLN59      -0.0878
     10  N         -3.1700  -24.9970   19.1520 N.am   60  THR60      -0.1939
     11  CA        -2.6170  -25.5430   17.9240 C.3    60  THR60       0.2028
     12  C         -3.6440  -25.3840   16.8090 C.2    60  THR60       0.2642
     13  O         -4.8480  -25.5360   17.0370 O.2    60  THR60      -0.2714
     14  CB        -2.2010  -27.0160   18.0890 C.3    60  THR60       0.1808
     15  OG1       -1.5870  -27.4790   16.8800 O.3    60  THR60      -0.2208
     16  CG2       -3.4020  -27.8890   18.4210 C.3    60  THR60       0.0379
     17  N         -3.1620  -25.0520   15.6160 N.am   61  PHE61      -0.1973
     18  CA        -4.0230  -24.7660   14.4710 C.3    61  PHE61       0.1639
     19  C         -3.1690  -24.9040   13.2080 C.2    61  PHE61       0.2290
     20  O         -2.0900  -25.5060   13.2470 O.2    61  PHE61      -0.2864
     21  CB        -4.6990  -23.3930   14.6390 C.3    61  PHE61       0.0560
     22  CG        -3.7540  -22.2830   15.0370 C.ar   61  PHE61      -0.0200
     23  CD1       -3.3220  -22.1540   16.3440 C.ar   61  PHE61      -0.0042
     24  CD2       -3.3130  -21.3600   14.0990 C.ar   61  PHE61      -0.0042
     25  CE1       -2.4580  -21.1400   16.7070 C.ar   61  PHE61      -0.0003
     26  CE2       -2.4620  -20.3440   14.4550 C.ar   61  PHE61      -0.0003
     27  CZ        -2.0320  -20.2300   15.7610 C.ar   61  PHE61      -0.0000
     28  N         -5.9690  -14.6340   13.1650 N.3    74  TYR74      -0.1227
     29  CA        -5.5880  -13.8040   14.3010 C.3    74  TYR74       0.1736
     30  C         -6.0270  -14.4270   15.6190 C.2    74  TYR74       0.2595
     31  O         -5.3310  -14.2860   16.6300 O.2    74  TYR74      -0.2718
     32  CB        -6.1810  -12.3950   14.1450 C.3    74  TYR74       0.0548
     33  CG        -5.7480  -11.4130   15.2150 C.ar   74  TYR74      -0.0200
     34  CD1       -6.4010  -11.3500   16.4440 C.ar   74  TYR74      -0.0009
     35  CD2       -4.6840  -10.5470   15.0000 C.ar   74  TYR74      -0.0009
     36  CE1       -5.9980  -10.4640   17.4220 C.ar   74  TYR74       0.0417
     37  CE2       -4.2830   -9.6550   15.9770 C.ar   74  TYR74       0.0417
     38  CZ        -4.9410   -9.6190   17.1800 C.ar   74  TYR74       0.1957
     39  OH        -4.5350   -8.7370   18.1490 O.3    74  TYR74      -0.2866
     40  N         -7.1720  -15.1210   15.6450 N.am   75  HIS75      -0.1961
     41  CA        -7.6250  -15.6580   16.9230 C.3    75  HIS75       0.1787
     42  C         -6.7310  -16.7860   17.4160 C.2    75  HIS75       0.2620
     43  O         -6.7640  -17.1150   18.6080 O.2    75  HIS75      -0.2715
     44  CB        -9.0910  -16.0870   16.8300 C.3    75  HIS75       0.0785
     45  CG        -9.3350  -17.3780   16.1090 C.ar   75  HIS75       0.0821
     46  ND1       -9.7510  -17.4190   14.7970 N.ar   75  HIS75      -0.2267
     47  CD2       -9.3140  -18.6650   16.5370 C.ar   75  HIS75       0.1154
     48  CE1       -9.9360  -18.6750   14.4330 C.ar   75  HIS75       0.1986
     49  NE2       -9.6760  -19.4510   15.4700 N.ar   75  HIS75      -0.2212
     50  N         -5.8940  -17.3440   16.5470 N.am   76  GLY76      -0.1954
     51  CA        -4.8890  -18.2980   16.9680 C.3    76  GLY76       0.1869
     52  C         -3.5430  -17.6540   17.2500 C.2    76  GLY76       0.2309
     53  O         -2.9480  -17.8760   18.3090 O.2    76  GLY76      -0.2863
     54  N         -7.1480   -7.8030   12.3410 N.3    96  VAL96      -0.1231
     55  CA        -8.0620   -8.3640   13.3220 C.3    96  VAL96       0.1692
     56  C         -9.4820   -8.3680   12.7840 C.2    96  VAL96       0.2592
     57  O        -10.2830   -9.2430   13.1370 O.2    96  VAL96      -0.2718
     58  CB        -7.9660   -7.5860   14.6450 C.3    96  VAL96       0.0266
     59  CG1       -8.5140   -6.1620   14.4760 C.3    96  VAL96       0.0020
     60  CG2       -8.6910   -8.3250   15.7550 C.3    96  VAL96       0.0020
     61  N         -9.8200   -7.4010   11.9250 N.am   97  ASP97      -0.1974
     62  CA       -11.1790   -7.3200   11.3980 C.3    97  ASP97       0.1709
     63  C        -11.4820   -8.4810   10.4650 C.2    97  ASP97       0.2293
     64  O        -12.6370   -8.9050   10.3640 O.2    97  ASP97      -0.2864
     65  CB       -11.3930   -6.0030   10.6530 C.3    97  ASP97       0.1436
     66  CG       -11.3540   -4.7930   11.5640 C.2    97  ASP97       0.3671
     67  OD1      -11.8060   -4.8970   12.7130 O.co2  97  ASP97      -0.2456
     68  OD2      -10.8870   -3.7310   11.1110 O.co2  97  ASP97      -0.2456
     69  N         -9.7090  -11.3710   10.8800 N.3    99  ASP99      -0.1239
     70  CA        -9.1880  -12.5170   11.6180 C.3    99  ASP99       0.1674
     71  C         -8.0260  -13.1560   10.8650 C.2    99  ASP99       0.2266
     72  O         -7.9190  -14.3790   10.7800 O.2    99  ASP99      -0.2867
     73  CB       -10.2830  -13.5530   11.8960 C.3    99  ASP99       0.1410
     74  CG        -9.9000  -14.5290   12.9890 C.2    99  ASP99       0.3668
     75  OD1       -8.9140  -14.2610   13.7160 O.co2  99  ASP99      -0.2456
     76  OD2      -10.5860  -15.5710   13.1210 O.co2  99  ASP99      -0.2456
     77  N        -18.7100  -18.2150    2.7820 N.3   141  ARG141     -0.1245
     78  CA       -19.4070  -19.3320    3.4110 C.3   141  ARG141      0.1563
     79  C        -19.4560  -20.5300    2.4760 C.2   141  ARG141      0.2260
     80  O        -19.5520  -20.3860    1.2570 O.2   141  ARG141     -0.2867
     81  CB       -20.8450  -18.9550    3.7920 C.3   141  ARG141      0.0307
     82  CG       -20.9640  -17.9440    4.9080 C.3   141  ARG141      0.0489
     83  CD       -20.5880  -18.5550    6.2450 C.3   141  ARG141      0.2205
     84  NE       -20.8340  -17.6400    7.3560 N.pl3 141  ARG141     -0.0865
     85  CZ       -21.9580  -17.5920    8.0700 C.cat 141  ARG141      0.5346
     86  NH1      -22.9730  -18.4070    7.8060 N.pl3 141  ARG141      0.1354
     87  NH2      -22.0660  -16.7190    9.0610 N.pl3 141  ARG141      0.1354
     88  N        -18.5570  -30.1610   15.8640 N.3   150  ILE150     -0.1245
     89  CA       -17.5500  -29.1070   15.7800 C.3   150  ILE150      0.1561
     90  C        -16.2000  -29.6010   16.2760 C.2   150  ILE150      0.2260
     91  O        -15.1600  -29.0480   15.8980 O.2   150  ILE150     -0.2867
     92  CB       -17.9930  -27.8460   16.5500 C.3   150  ILE150      0.0252
     93  CG1      -18.3120  -28.1660   18.0090 C.3   150  ILE150      0.0019
     94  CG2      -19.1870  -27.2060   15.8550 C.3   150  ILE150      0.0019
     95  CD1      -18.5450  -26.9280   18.8580 C.3   150  ILE150      0.0001
     96  N        -13.6370  -30.1770   13.5710 N.3   153  LEU153     -0.1231
     97  CA       -13.0270  -29.0360   12.9030 C.3   153  LEU153      0.1693
     98  C        -12.1460  -28.2100   13.8230 C.2   153  LEU153      0.2592
     99  O        -11.3550  -27.3940   13.3320 O.2   153  LEU153     -0.2718
    100  CB       -14.1210  -28.1360   12.3150 C.3   153  LEU153      0.0284
    101  CG       -15.0450  -28.7990   11.2890 C.3   153  LEU153      0.0019
    102  CD1      -16.2020  -27.8720   10.9190 C.3   153  LEU153      0.0001
    103  CD2      -14.2830  -29.2290   10.0480 C.3   153  LEU153      0.0001
    104  N        -12.2700  -28.3910   15.1350 N.am  154  LYS154     -0.1966
    105  CA       -11.4820  -27.6110   16.0720 C.3   154  LYS154      0.1728
    106  C        -10.0030  -27.8120   15.7830 C.2   154  LYS154      0.2617
    107  O         -9.5380  -28.9430   15.6080 O.2   154  LYS154     -0.2715
    108  CB       -11.8160  -28.0240   17.5070 C.3   154  LYS154      0.0311
    109  CG       -11.1070  -27.2130   18.5810 C.3   154  LYS154      0.0038
    110  CD       -11.6060  -27.5890   19.9710 C.3   154  LYS154      0.0206
    111  CE       -10.9410  -26.7590   21.0590 C.3   154  LYS154      0.1093
    112  NZ        -9.4820  -27.0220   21.1420 N.3   154  LYS154     -0.1314
    113  N         -9.2670  -26.7070   15.7040 N.am  155  GLY155     -0.1940
    114  CA        -7.8550  -26.7650   15.4090 C.3   155  GLY155      0.2014
    115  C         -7.5070  -26.7110   13.9390 C.2   155  GLY155      0.2640
    116  O         -6.3310  -26.8530   13.5980 O.2   155  GLY155     -0.2714
    117  N         -8.4850  -26.5290   13.0570 N.am  156  SER156     -0.1935
    118  CA        -8.2360  -26.4730   11.6250 C.3   156  SER156      0.2055
    119  C         -8.2800  -25.0590   11.0610 C.2   156  SER156      0.2643
    120  O         -8.0070  -24.8800    9.8700 O.2   156  SER156     -0.2714
    121  CB        -9.2440  -27.3590   10.8760 C.3   156  SER156      0.2130
    122  OG        -8.9660  -28.7450   11.0690 O.3   156  SER156     -0.2179
    123  N         -8.6200  -24.0530   11.8670 N.am  157  SER157     -0.1949
    124  CA        -8.5540  -22.6840   11.3760 C.3   157  SER157      0.1924
    125  C         -7.1530  -22.4120   10.8500 C.2   157  SER157      0.2314
    126  O         -6.1640  -22.8990   11.4000 O.2   157  SER157     -0.2863
    127  CB        -8.9190  -21.6790   12.4750 C.3   157  SER157      0.2116
    128  OG        -7.9910  -21.6980   13.5480 O.3   157  SER157     -0.2180
    129  N         -9.8080  -21.2610    6.1290 N.3   172  PHE172     -0.1227
    130  CA       -10.8380  -21.6270    7.1010 C.3   172  PHE172      0.1736
    131  C        -10.7370  -20.7780    8.3670 C.2   172  PHE172      0.2595
    132  O         -9.6710  -20.6780    8.9790 O.2   172  PHE172     -0.2718
    133  CB       -10.6900  -23.1150    7.4310 C.3   172  PHE172      0.0547
    134  CG       -11.6860  -23.6380    8.4240 C.ar  172  PHE172     -0.0202
    135  CD1      -13.0060  -23.2230    8.4000 C.ar  172  PHE172     -0.0042
    136  CD2      -11.3040  -24.5880    9.3630 C.ar  172  PHE172     -0.0042
    137  CE1      -13.9220  -23.7290    9.3120 C.ar  172  PHE172     -0.0003
    138  CE2      -12.2110  -25.0990   10.2650 C.ar  172  PHE172     -0.0003
    139  CZ       -13.5230  -24.6740   10.2380 C.ar  172  PHE172     -0.0000
    140  N        -11.8590  -20.1800    8.7770 N.am  173  ARG173     -0.1966
    141  CA       -11.8700  -19.2300    9.8870 C.3   173  ARG173      0.1729
    142  C        -12.7740  -19.6380   11.0390 C.2   173  ARG173      0.2616
    143  O        -12.3730  -19.5240   12.1970 O.2   173  ARG173     -0.2715
    144  CB       -12.3010  -17.8340    9.3880 C.3   173  ARG173      0.0348
    145  CG       -12.4480  -16.7870   10.4740 C.3   173  ARG173      0.0492
    146  CD       -12.6010  -15.3990    9.8840 C.3   173  ARG173      0.2205
    147  NE       -13.6590  -15.3140    8.8810 N.pl3 173  ARG173     -0.0865
    148  CZ       -13.8540  -14.2630    8.0860 C.cat 173  ARG173      0.5346
    149  NH1      -13.0710  -13.1930    8.1740 N.pl3 173  ARG173      0.1354
    150  NH2      -14.8320  -14.2770    7.1950 N.pl3 173  ARG173      0.1354
    151  N        -13.9920  -20.0970   10.7630 N.am  174  ALA174     -0.1963
    152  CA       -14.9370  -20.3830   11.8330 C.3   174  ALA174      0.1728
    153  C        -15.9220  -21.4440   11.3670 C.2   174  ALA174      0.2616
    154  O        -16.2230  -21.5500   10.1750 O.2   174  ALA174     -0.2715
    155  CB       -15.6820  -19.1120   12.2690 C.3   174  ALA174      0.0334
    156  N        -16.4130  -22.2370   12.3160 N.am  175  ALA175     -0.1963
    157  CA       -17.4530  -23.2150   12.0270 C.3   175  ALA175      0.1728
    158  C        -18.8150  -22.6070   12.3150 C.2   175  ALA175      0.2616
    159  O        -18.9860  -21.8690   13.2890 O.2   175  ALA175     -0.2715
    160  CB       -17.2670  -24.4870   12.8560 C.3   175  ALA175      0.0334
    161  N        -19.7830  -22.9280   11.4660 N.am  176  VAL176     -0.1963
    162  CA       -21.1610  -22.5020   11.6510 C.3   176  VAL176      0.1727
    163  C        -21.8930  -23.7040   12.2150 C.2   176  VAL176      0.2616
    164  O        -22.0720  -24.7070   11.5210 O.2   176  VAL176     -0.2715
    165  CB       -21.7930  -22.0270   10.3370 C.3   176  VAL176      0.0290
    166  CG1      -23.2080  -21.5060   10.5860 C.3   176  VAL176      0.0023
    167  CG2      -20.9190  -20.9650    9.6770 C.3   176  VAL176      0.0023
    168  N        -22.2800  -23.6380   13.4810 N.am  177  SER177     -0.1950
    169  CA       -22.7960  -24.8180   14.1500 C.3   177  SER177      0.1924
    170  C        -24.1170  -24.5170   14.8390 C.2   177  SER177      0.2314
    171  O        -24.3750  -23.3950   15.2840 O.2   177  SER177     -0.2863
    172  CB       -21.7940  -25.3610   15.1720 C.3   177  SER177      0.2116
    173  OG       -21.6480  -24.4820   16.2680 O.3   177  SER177     -0.2180
    174  N        -17.1910  -20.8100    7.6600 N.3   186  ASP186     -0.1239
    175  CA       -16.8550  -19.4530    7.2690 C.3   186  ASP186      0.1674
    176  C        -15.3630  -19.3950    6.9650 C.2   186  ASP186      0.2266
    177  O        -14.5560  -19.9930    7.6810 O.2   186  ASP186     -0.2867
    178  CB       -17.2270  -18.4830    8.3900 C.3   186  ASP186      0.1410
    179  CG       -16.6860  -17.0900    8.1700 C.2   186  ASP186      0.3668
    180  OD1      -17.2970  -16.3330    7.3920 O.co2 186  ASP186     -0.2456
    181  OD2      -15.6550  -16.7530    8.7870 O.co2 186  ASP186     -0.2456
@<TRIPOS>BOND
     1    80    79    2
     2    79    78    1
     3    77    78    1
     4    78    81    1
     5    81    82    1
     6    82    83    1
     7   129   130    1
     8    83    84    1
     9   176   175    1
    10   176   177    2
    11   130   133    1
    12   130   131    1
    13   150   148    1
    14   175   174    1
    15   175   178    1
    16    84    85    2
    17   180   179   ar
    18   133   134    1
    19    86    85    1
    20    85    87    1
    21   148   149    1
    22   148   147    2
    23   179   178    1
    24   179   181   ar
    25   131   140   am
    26   131   132    2
    27   135   134   ar
    28   135   137   ar
    29   134   136   ar
    30   140   141    1
    31   147   146    1
    32   137   139   ar
    33   136   138   ar
    34   144   141    1
    35   144   145    1
    36   167   165    1
    37   120   119    2
    38   146   145    1
    39   141   142    1
    40   103   101    1
    41   154   153    2
    42   139   138   ar
    43   165   166    1
    44   165   162    1
    45    64    63    2
    46    63    62    1
    47    65    62    1
    48    65    66    1
    49   151   142   am
    50   151   152    1
    51    72    71    2
    52   125   124    1
    53   125   126    2
    54    71    70    1
    55   121   122    1
    56   121   118    1
    57    69    70    1
    58   102   101    1
    59   142   143    2
    60   119   118    1
    61   119   123   am
    62    68    66   ar
    63   101   100    1
    64   153   152    1
    65   153   156   am
    66   124   123    1
    67   124   127    1
    68    62    61    1
    69   161   162    1
    70   161   158   am
    71   164   163    2
    72    66    67   ar
    73    70    73    1
    74   118   117    1
    75   162   163    1
    76   152   155    1
    77    73    74    1
    78    61    56   am
    79   157   158    1
    80   157   156    1
    81   157   160    1
    82   163   168   am
    83   100    97    1
    84   158   159    2
    85    54    55    1
    86   127   128    1
    87    56    57    2
    88    56    55    1
    89    97    96    1
    90    97    98    1
    91    74    76   ar
    92    74    75   ar
    93   117   115   am
    94    28    29    1
    95    19    20    2
    96    19    18    1
    97    55    58    1
    98    99    98    2
    99   168   169    1
   100   116   115    2
   101    98   104   am
   102   115   114    1
   103    24    26   ar
   104    24    22   ar
   105    32    29    1
   106    32    33    1
   107   169   170    1
   108   169   172    1
   109    29    30    1
   110    48    46   ar
   111    48    49   ar
   112    26    27   ar
   113    18    21    1
   114    18    17    1
   115    59    58    1
   116    21    22    1
   117    58    60    1
   118    46    45   ar
   119   170   171    2
   120    35    33   ar
   121    35    37   ar
   122    22    23   ar
   123   104   105    1
   124   172   173    1
   125    33    34   ar
   126   114   113    1
   127    49    47   ar
   128   107   106    2
   129    17    12   am
   130    30    40   am
   131    30    31    2
   132    40    41    1
   133   113   106   am
   134    27    25   ar
   135    89    88    1
   136    89    90    1
   137    89    92    1
   138   106   105    1
   139    94    92    1
   140    91    90    2
   141    37    38   ar
   142   105   108    1
   143    45    47   ar
   144    45    44    1
   145    23    25   ar
   146    34    36   ar
   147    50    51    1
   148    50    42   am
   149    92    93    1
   150    12    13    2
   151    12    11    1
   152    44    41    1
   153    15    14    1
   154    41    42    1
   155    51    52    1
   156    38    36   ar
   157    38    39    1
   158    52    53    2
   159    42    43    2
   160   108   109    1
   161    11    14    1
   162    11    10    1
   163    93    95    1
   164    14    16    1
   165   109   110    1
   166    10     3   am
   167     4     3    2
   168     3     2    1
   169   110   111    1
   170     8     7    2
   171     5     2    1
   172     5     6    1
   173     7     9   am
   174     7     6    1
   175     2     1    1
   176   111   112    1
