@<TRIPOS>MOLECULE
tmp/5vpjD00.pdb
 129 121 0 0 0
SMALL
GASTEIGER

@<TRIPOS>ATOM
      1  N         51.3990    1.0910   11.5980 N.3     4  PHE4       -0.1241
      2  CA        51.5920    0.9040   13.0310 C.3     4  PHE4        0.1605
      3  C         50.3900    1.5050   13.7490 C.2     4  PHE4        0.2264
      4  O         50.1010    2.6900   13.5890 O.2     4  PHE4       -0.2867
      5  CB        52.8920    1.5590   13.5030 C.3     4  PHE4        0.0534
      6  CG        53.1360    1.4340   14.9820 C.ar    4  PHE4       -0.0203
      7  CD1       53.7390    0.3020   15.5030 C.ar    4  PHE4       -0.0042
      8  CD2       52.7650    2.4490   15.8500 C.ar    4  PHE4       -0.0042
      9  CE1       53.9660    0.1810   16.8610 C.ar    4  PHE4       -0.0003
     10  CE2       52.9880    2.3350   17.2110 C.ar    4  PHE4       -0.0003
     11  CZ        53.5900    1.1990   17.7170 C.ar    4  PHE4       -0.0000
     12  N         54.0290    8.1400   17.3900 N.3    34  ARG34      -0.1231
     13  CA        55.3880    8.1330   16.8570 C.3    34  ARG34       0.1694
     14  C         56.4150    7.7550   17.9220 C.2    34  ARG34       0.2591
     15  O         57.4440    7.1520   17.6190 O.2    34  ARG34      -0.2718
     16  CB        55.7370    9.5010   16.2600 C.3    34  ARG34       0.0321
     17  CG        55.9570   10.6000   17.2910 C.3    34  ARG34       0.0489
     18  CD        56.3220   11.9240   16.6510 C.3    34  ARG34       0.2205
     19  NE        56.7000   12.9220   17.6490 N.pl3  34  ARG34      -0.0865
     20  CZ        56.9540   14.1970   17.3720 C.cat  34  ARG34       0.5346
     21  NH1       56.8640   14.6400   16.1240 N.pl3  34  ARG34       0.1354
     22  NH2       57.2930   15.0330   18.3430 N.pl3  34  ARG34       0.1354
     23  N         56.1260    8.1020   19.1720 N.am   35  GLU35      -0.1979
     24  CA        57.0640    7.8740   20.2640 C.3    35  GLU35       0.1602
     25  C         56.8770    6.4920   20.8840 C.2    35  GLU35       0.2287
     26  O         57.7890    5.9690   21.5270 O.2    35  GLU35      -0.2864
     27  CB        56.9220    8.9690   21.3260 C.3    35  GLU35       0.0415
     28  CG        57.5600   10.2880   20.9160 C.3    35  GLU35       0.1163
     29  CD        56.8040   11.5020   21.4230 C.2    35  GLU35       0.3649
     30  OE1       56.1620   11.4080   22.4890 O.co2  35  GLU35      -0.2457
     31  OE2       56.8420   12.5500   20.7440 O.co2  35  GLU35      -0.2457
     32  N         56.1990    4.0220   18.8390 N.3    37  PHE37      -0.1227
     33  CA        56.9130    3.3130   17.7870 C.3    37  PHE37       0.1736
     34  C         58.4080    3.2860   18.0790 C.2    37  PHE37       0.2595
     35  O         59.0630    2.2550   17.9260 O.2    37  PHE37      -0.2718
     36  CB        56.6510    3.9690   16.4310 C.3    37  PHE37       0.0547
     37  CG        57.3570    3.3010   15.2860 C.ar   37  PHE37      -0.0202
     38  CD1       56.7760    2.2290   14.6310 C.ar   37  PHE37      -0.0042
     39  CD2       58.5980    3.7490   14.8590 C.ar   37  PHE37      -0.0042
     40  CE1       57.4190    1.6130   13.5760 C.ar   37  PHE37      -0.0003
     41  CE2       59.2460    3.1370   13.8060 C.ar   37  PHE37      -0.0003
     42  CZ        58.6570    2.0670   13.1630 C.ar   37  PHE37      -0.0000
     43  N         58.9390    4.4320   18.4950 N.am   38  LEU38      -0.1980
     44  CA        60.3500    4.5480   18.8460 C.3    38  LEU38       0.1596
     45  C         60.7130    3.6430   20.0160 C.2    38  LEU38       0.2287
     46  O         61.7430    2.9710   19.9940 O.2    38  LEU38      -0.2864
     47  CB        60.7020    5.9970   19.1840 C.3    38  LEU38       0.0297
     48  CG        60.9870    6.9250   18.0030 C.3    38  LEU38       0.0022
     49  CD1       61.2300    8.3440   18.4890 C.3    38  LEU38       0.0001
     50  CD2       62.1790    6.4170   17.2110 C.3    38  LEU38       0.0001
     51  N         65.9950   14.8120   17.4270 N.3    54  LEU54      -0.1245
     52  CA        64.8600   14.6290   16.5310 C.3    54  LEU54       0.1561
     53  C         63.8750   15.7810   16.6880 C.2    54  LEU54       0.2260
     54  O         63.2450   15.9370   17.7340 O.2    54  LEU54      -0.2867
     55  CB        64.1680   13.2890   16.7930 C.3    54  LEU54       0.0270
     56  CG        64.5680   12.1400   15.8620 C.3    54  LEU54       0.0019
     57  CD1       66.0670   11.8860   15.9130 C.3    54  LEU54       0.0001
     58  CD2       63.7960   10.8720   16.1970 C.3    54  LEU54       0.0001
     59  N         60.5870   18.0270   15.0970 N.3    56  THR56      -0.1218
     60  CA        59.4540   18.1400   14.1880 C.3    56  THR56       0.1862
     61  C         59.6360   19.3480   13.2720 C.2    56  THR56       0.2287
     62  O         59.7960   20.4730   13.7440 O.2    56  THR56      -0.2866
     63  CB        58.1240   18.2730   14.9510 C.3    56  THR56       0.1770
     64  OG1       58.0210   17.2290   15.9280 O.3    56  THR56      -0.2211
     65  CG2       56.9470   18.1840   13.9920 C.3    56  THR56       0.0375
     66  N         51.6460    5.4030    9.0000 N.3    77  SER77      -0.1202
     67  CA        52.3490    4.7610    7.8970 C.3    77  SER77       0.2020
     68  C         53.4970    5.6370    7.4050 C.2    77  SER77       0.2618
     69  O         53.4690    6.8580    7.5630 O.2    77  SER77      -0.2717
     70  CB        51.3850    4.4620    6.7480 C.3    77  SER77       0.2103
     71  OG        50.8320    5.6580    6.2240 O.3    77  SER77      -0.2182
     72  N         54.5050    5.0110    6.8060 N.am   78  LEU78      -0.1979
     73  CA        55.6540    5.7460    6.2900 C.3    78  LEU78       0.1596
     74  C         55.3550    6.3120    4.9080 C.2    78  LEU78       0.2287
     75  O         55.0870    5.5640    3.9680 O.2    78  LEU78      -0.2864
     76  CB        56.8920    4.8470    6.2360 C.3    78  LEU78       0.0297
     77  CG        58.1950    5.5020    5.7680 C.3    78  LEU78       0.0022
     78  CD1       58.5960    6.6230    6.7080 C.3    78  LEU78       0.0001
     79  CD2       59.3080    4.4690    5.6560 C.3    78  LEU78       0.0001
     80  N         62.0520   12.3800    7.9070 N.3    86  ILE86      -0.1231
     81  CA        61.0870   11.2890    7.8730 C.3    86  ILE86       0.1692
     82  C         59.6640   11.8360    7.8520 C.2    86  ILE86       0.2592
     83  O         59.2810   12.6180    8.7210 O.2    86  ILE86      -0.2718
     84  CB        61.2450   10.3520    9.0870 C.3    86  ILE86       0.0266
     85  CG1       62.6890    9.8590    9.2070 C.3    86  ILE86       0.0019
     86  CG2       60.2800    9.1790    8.9890 C.3    86  ILE86       0.0020
     87  CD1       62.9450    9.0300   10.4470 C.3    86  ILE86       0.0001
     88  N         58.8820   11.4260    6.8590 N.am   87  THR87      -0.1953
     89  CA        57.5000   11.8790    6.7470 C.3    87  THR87       0.1897
     90  C         56.5210   10.7540    7.0570 C.2    87  THR87       0.2313
     91  O         56.5760    9.6860    6.4500 O.2    87  THR87      -0.2863
     92  CB        57.2010   12.4350    5.3450 C.3    87  THR87       0.1794
     93  OG1       58.1050   13.5080    5.0540 O.3    87  THR87      -0.2208
     94  CG2       55.7710   12.9500    5.2700 C.3    87  THR87       0.0378
     95  N         59.6250   14.8230   10.5760 N.3   109  VAL109     -0.1245
     96  CA        60.6560   15.0450   11.5830 C.3   109  VAL109      0.1561
     97  C         62.0350   15.0590   10.9330 C.2   109  VAL109      0.2260
     98  O         62.2570   14.4030    9.9170 O.2   109  VAL109     -0.2867
     99  CB        60.6200   13.9700   12.6890 C.3   109  VAL109      0.0252
    100  CG1       59.3530   14.1020   13.5220 C.3   109  VAL109      0.0019
    101  CG2       60.7280   12.5800   12.0850 C.3   109  VAL109      0.0019
    102  N         67.0220    3.0600   13.6040 N.3   125  LEU125     -0.1245
    103  CA        65.7280    3.6030   13.2170 C.3   125  LEU125      0.1561
    104  C         65.4590    3.3280   11.7430 C.2   125  LEU125      0.2260
    105  O         64.3160    3.1210   11.3390 O.2   125  LEU125     -0.2867
    106  CB        65.6680    5.1060   13.4980 C.3   125  LEU125      0.0270
    107  CG        64.3690    5.8230   13.1220 C.3   125  LEU125      0.0019
    108  CD1       63.1790    5.1890   13.8260 C.3   125  LEU125      0.0001
    109  CD2       64.4630    7.3050   13.4480 C.3   125  LEU125      0.0001
    110  N         62.2310    1.1880   10.0620 N.3   129  LEU129     -0.1245
    111  CA        61.3320    1.7390    9.0540 C.3   129  LEU129      0.1561
    112  C         61.2540    0.8570    7.8120 C.2   129  LEU129      0.2260
    113  O         60.3100    0.9610    7.0260 O.2   129  LEU129     -0.2867
    114  CB        61.7770    3.1500    8.6620 C.3   129  LEU129      0.0270
    115  CG        61.6880    4.2040    9.7650 C.3   129  LEU129      0.0019
    116  CD1       62.2690    5.5300    9.3010 C.3   129  LEU129      0.0001
    117  CD2       60.2490    4.3750   10.2080 C.3   129  LEU129      0.0001
    118  N         58.1940   -1.1430    7.1200 N.3   132  TYR132     -0.1241
    119  CA        56.9830   -0.3570    6.9120 C.3   132  TYR132      0.1605
    120  C         57.0580    0.4390    5.6130 C.2   132  TYR132      0.2264
    121  O         56.6260    1.5890    5.5520 O.2   132  TYR132     -0.2867
    122  CB        56.7470    0.5820    8.1000 C.3   132  TYR132      0.0534
    123  CG        56.5060   -0.1360    9.4100 C.ar  132  TYR132     -0.0201
    124  CD1       57.5680   -0.5990   10.1780 C.ar  132  TYR132     -0.0009
    125  CD2       55.2160   -0.3500    9.8800 C.ar  132  TYR132     -0.0009
    126  CE1       57.3510   -1.2590   11.3740 C.ar  132  TYR132      0.0417
    127  CE2       54.9900   -1.0070   11.0750 C.ar  132  TYR132      0.0417
    128  CZ        56.0600   -1.4590   11.8180 C.ar  132  TYR132      0.1957
    129  OH        55.8390   -2.1150   13.0100 O.3   132  TYR132     -0.2866
@<TRIPOS>BOND
     1    75    74    2
     2    74    73    1
     3    93    92    1
     4    94    92    1
     5    92    89    1
     6   121   120    2
     7   120   119    1
     8    79    77    1
     9    77    76    1
    10    77    78    1
    11    71    70    1
    12    76    73    1
    13    73    72    1
    14    91    90    2
    15    89    88    1
    16    89    90    1
    17    70    67    1
    18    72    68   am
    19    88    82   am
    20   119   118    1
    21   119   122    1
    22   113   112    2
    23    68    69    2
    24    68    67    1
    25   112   111    1
    26    82    81    1
    27    82    83    2
    28    81    80    1
    29    81    84    1
    30    67    66    1
    31   122   123    1
    32   114   111    1
    33   114   115    1
    34    86    84    1
    35   111   110    1
    36    84    85    1
    37    85    87    1
    38   116   115    1
    39   123   125   ar
    40   123   124   ar
    41   115   117    1
    42   125   127   ar
    43    98    97    2
    44   124   126   ar
    45    95    96    1
    46    97    96    1
    47   127   128   ar
    48   105   104    2
    49   126   128   ar
    50    96    99    1
    51     1     2    1
    52   104   103    1
    53   128   129    1
    54   101    99    1
    55    99   100    1
    56     2     5    1
    57     2     3    1
    58   107   109    1
    59   107   106    1
    60   107   108    1
    61    42    40   ar
    62    42    41   ar
    63   103   106    1
    64   103   102    1
    65    61    62    2
    66    61    60    1
    67     5     6    1
    68    40    38   ar
    69     4     3    2
    70    41    39   ar
    71    65    63    1
    72    60    63    1
    73    60    59    1
    74    38    37   ar
    75    39    37   ar
    76    63    64    1
    77     6     7   ar
    78     6     8   ar
    79    37    36    1
    80     7     9   ar
    81     8    10   ar
    82    56    57    1
    83    56    58    1
    84    56    55    1
    85    21    20    1
    86    16    13    1
    87    16    17    1
    88    36    33    1
    89    52    53    1
    90    52    55    1
    91    52    51    1
    92    18    17    1
    93    18    19    1
    94    53    54    2
    95    13    12    1
    96    13    14    1
    97     9    11   ar
    98    10    11   ar
    99    50    48    1
   100    20    19    2
   101    20    22    1
   102    15    14    2
   103    33    34    1
   104    33    32    1
   105    14    23   am
   106    35    34    2
   107    48    49    1
   108    48    47    1
   109    34    43   am
   110    43    44    1
   111    44    47    1
   112    44    45    1
   113    23    24    1
   114    46    45    2
   115    24    25    1
   116    24    27    1
   117    31    29   ar
   118    25    26    2
   119    28    27    1
   120    28    29    1
   121    29    30   ar
