@<TRIPOS>MOLECULE
tmp/5vpmA01.pdb
 215 209 0 0 0
SMALL
GASTEIGER

@<TRIPOS>ATOM
      1  N         27.6860   -2.8670  -19.7960 N.3    15  THR15      -0.1203
      2  CA        27.9800   -4.1160  -19.1130 C.3    15  THR15       0.1994
      3  C         28.7810   -3.9170  -17.8390 C.2    15  THR15       0.2618
      4  O         28.6200   -4.6860  -16.8960 O.2    15  THR15      -0.2717
      5  CB        28.6920   -5.0550  -20.0780 C.3    15  THR15       0.1784
      6  OG1       27.7400   -5.4890  -21.0440 O.3    15  THR15      -0.2211
      7  CG2       29.2440   -6.2880  -19.3950 C.3    15  THR15       0.0376
      8  N         29.6400   -2.9010  -17.8030 N.am   16  GLN16      -0.1965
      9  CA        30.3770   -2.5500  -16.5870 C.3    16  GLN16       0.1733
     10  C         30.1650   -1.0800  -16.2610 C.2    16  GLN16       0.2616
     11  O         30.4350   -0.2190  -17.0970 O.2    16  GLN16      -0.2715
     12  CB        31.8670   -2.8440  -16.7640 C.3    16  GLN16       0.0408
     13  CG        32.1410   -4.0690  -17.6340 C.3    16  GLN16       0.0908
     14  CD        33.5710   -4.5280  -17.5700 C.2    16  GLN16       0.2608
     15  OE1       34.3890   -3.9670  -16.8300 O.2    16  GLN16      -0.2717
     16  NE2       33.8880   -5.5580  -18.3400 N.am   16  GLN16      -0.0878
     17  N         29.6600   -0.8030  -15.0620 N.am   17  TYR17      -0.1974
     18  CA        29.5380    0.5610  -14.5470 C.3    17  TYR17       0.1639
     19  C         30.4470    0.6930  -13.3180 C.2    17  TYR17       0.2290
     20  O         30.1860    0.0680  -12.2720 O.2    17  TYR17      -0.2864
     21  CB        28.0810    0.8750  -14.1800 C.3    17  TYR17       0.0560
     22  CG        27.1050    0.8910  -15.3390 C.ar   17  TYR17      -0.0198
     23  CD1       26.5810   -0.2940  -15.8430 C.ar   17  TYR17      -0.0009
     24  CD2       26.6870    2.0830  -15.9200 C.ar   17  TYR17      -0.0009
     25  CE1       25.6820   -0.2980  -16.8990 C.ar   17  TYR17       0.0417
     26  CE2       25.7800    2.0850  -16.9740 C.ar   17  TYR17       0.0417
     27  CZ        25.2830    0.8860  -17.4540 C.ar   17  TYR17       0.1957
     28  OH        24.3930    0.8510  -18.4940 O.3    17  TYR17      -0.2866
     29  N         33.4450   -1.3700   -9.0510 N.3    33  VAL33      -0.1245
     30  CA        32.0170   -1.6080   -9.2390 C.3    33  VAL33       0.1561
     31  C         31.3280   -1.5050   -7.8920 C.2    33  VAL33       0.2260
     32  O         31.7630   -2.1350   -6.9350 O.2    33  VAL33      -0.2867
     33  CB        31.7340   -3.0110   -9.8140 C.3    33  VAL33       0.0252
     34  CG1       30.2310   -3.2370   -9.9570 C.3    33  VAL33       0.0019
     35  CG2       32.4390   -3.2040  -11.1540 C.3    33  VAL33       0.0019
     36  N         28.1660   -2.4610   -5.7430 N.3    35  ASP35      -0.1239
     37  CA        27.4620   -3.7340   -5.9040 C.3    35  ASP35       0.1674
     38  C         26.4860   -4.0000   -4.7640 C.2    35  ASP35       0.2266
     39  O         26.9090   -4.4320   -3.6950 O.2    35  ASP35      -0.2867
     40  CB        28.5320   -4.8240   -5.9550 C.3    35  ASP35       0.1410
     41  CG        27.9730   -6.2120   -6.0320 C.2    35  ASP35       0.3668
     42  OD1       26.8100   -6.3950   -6.4430 O.co2  35  ASP35      -0.2456
     43  OD2       28.7380   -7.1370   -5.6950 O.co2  35  ASP35      -0.2456
     44  N         24.5200   -6.3820   -4.5950 N.3    37  GLY37      -0.1210
     45  CA        24.5230   -7.8200   -4.4360 C.3    37  GLY37       0.1956
     46  C         25.6110   -8.3840   -3.5520 C.2    37  GLY37       0.2612
     47  O         25.6260   -9.5890   -3.3200 O.2    37  GLY37      -0.2717
     48  N         26.5420   -7.5570   -3.0830 N.am   38  SER38      -0.1952
     49  CA        27.5920   -8.0370   -2.1780 C.3    38  SER38       0.1924
     50  C         27.8540   -7.0090   -1.0890 C.2    38  SER38       0.2314
     51  O         27.2780   -5.9240   -1.1160 O.2    38  SER38      -0.2863
     52  CB        28.8690   -8.4110   -2.9480 C.3    38  SER38       0.2116
     53  OG        29.5820   -7.2800   -3.4110 O.3    38  SER38      -0.2180
     54  N         31.9910  -15.6880   -6.3540 N.3    80  TYR80      -0.1227
     55  CA        31.0660  -15.1710   -7.3630 C.3    80  TYR80       0.1736
     56  C         30.7270  -16.3510   -8.2700 C.2    80  TYR80       0.2596
     57  O         31.3840  -17.3960   -8.2100 O.2    80  TYR80      -0.2718
     58  CB        31.7030  -14.0300   -8.1830 C.3    80  TYR80       0.0548
     59  CG        32.0410  -12.7840   -7.3760 C.ar   80  TYR80      -0.0200
     60  CD1       31.0270  -11.9760   -6.8370 C.ar   80  TYR80      -0.0009
     61  CD2       33.3700  -12.4060   -7.1480 C.ar   80  TYR80      -0.0009
     62  CE1       31.3240  -10.8320   -6.0870 C.ar   80  TYR80       0.0417
     63  CE2       33.6790  -11.2680   -6.3940 C.ar   80  TYR80       0.0417
     64  CZ        32.6580  -10.4790   -5.8630 C.ar   80  TYR80       0.1957
     65  OH        32.9570   -9.3530   -5.1130 O.3    80  TYR80      -0.2866
     66  N         29.7190  -16.1830   -9.1210 N.am   81  SER81      -0.1938
     67  CA        29.2960  -17.2420  -10.0550 C.3    81  SER81       0.2055
     68  C         30.3970  -17.7000  -11.0380 C.2    81  SER81       0.2643
     69  O         30.3710  -18.8400  -11.5150 O.2    81  SER81      -0.2714
     70  CB        28.0300  -16.8100  -10.8270 C.3    81  SER81       0.2130
     71  OG        28.2270  -15.6330  -11.6000 O.3    81  SER81      -0.2179
     72  N         31.3520  -16.8120  -11.3210 N.am   82  THR82      -0.1950
     73  CA        32.4890  -17.0850  -12.2030 C.3    82  THR82       0.1897
     74  C         33.7640  -17.4390  -11.4080 C.2    82  THR82       0.2313
     75  O         34.8560  -16.9300  -11.6950 O.2    82  THR82      -0.2863
     76  CB        32.7620  -15.8500  -13.0860 C.3    82  THR82       0.1794
     77  OG1       32.7690  -14.6770  -12.2630 O.3    82  THR82      -0.2208
     78  CG2       31.6900  -15.6960  -14.1350 C.3    82  THR82       0.0378
     79  N         37.0790  -14.2490  -14.6360 N.3   115  PRO115     -0.2102
     80  CA        36.6160  -13.3300  -15.6840 C.3   115  PRO115      0.1504
     81  C         37.4190  -12.0500  -15.8590 C.2   115  PRO115      0.2575
     82  O         37.0880  -11.2670  -16.7280 O.2   115  PRO115     -0.2718
     83  CB        35.2280  -12.9550  -15.1800 C.3   115  PRO115      0.0282
     84  CG        35.3850  -12.9390  -13.7000 C.3   115  PRO115      0.0208
     85  CD        36.3150  -14.0740  -13.3850 C.3   115  PRO115      0.0893
     86  N         38.4610  -11.8290  -15.0650 N.am  116  PHE116     -0.1977
     87  CA        38.9600  -10.4560  -14.8520 C.3   116  PHE116      0.1639
     88  C         39.8670   -9.8300  -15.9090 C.2   116  PHE116      0.2290
     89  O         40.0670   -8.6140  -15.8720 O.2   116  PHE116     -0.2864
     90  CB        39.6000  -10.3310  -13.4760 C.3   116  PHE116      0.0560
     91  CG        38.6270  -10.5320  -12.3670 C.ar  116  PHE116     -0.0200
     92  CD1       37.6990   -9.5500  -12.0720 C.ar  116  PHE116     -0.0042
     93  CD2       38.6060  -11.7150  -11.6460 C.ar  116  PHE116     -0.0042
     94  CE1       36.7740   -9.7360  -11.0590 C.ar  116  PHE116     -0.0003
     95  CE2       37.6920  -11.9040  -10.6260 C.ar  116  PHE116     -0.0003
     96  CZ        36.7700  -10.9140  -10.3330 C.ar  116  PHE116     -0.0000
     97  N         38.7990   -9.4520  -18.8300 N.3   118  LEU118     -0.1231
     98  CA        37.7950   -8.6250  -19.5060 C.3   118  LEU118      0.1693
     99  C         37.2750   -7.4490  -18.6570 C.2   118  LEU118      0.2591
    100  O         36.4440   -6.6730  -19.1400 O.2   118  LEU118     -0.2718
    101  CB        36.6220   -9.4940  -19.9540 C.3   118  LEU118      0.0284
    102  CG        36.9500  -10.4910  -21.0740 C.3   118  LEU118      0.0019
    103  CD1       37.5180  -11.8110  -20.5580 C.3   118  LEU118      0.0001
    104  CD2       35.6960  -10.7410  -21.9060 C.3   118  LEU118      0.0001
    105  N         37.7910   -7.2970  -17.4310 N.am  119  ALA119     -0.1980
    106  CA        37.2630   -6.3520  -16.4510 C.3   119  ALA119      0.1597
    107  C         37.9610   -5.0070  -16.5210 C.2   119  ALA119      0.2287
    108  O         39.1260   -4.9120  -16.1880 O.2   119  ALA119     -0.2864
    109  CB        37.4150   -6.9220  -15.0490 C.3   119  ALA119      0.0319
    110  N         37.1370   -2.5320  -14.6040 N.3   121  PHE121     -0.1241
    111  CA        37.2640   -2.1840  -13.1930 C.3   121  PHE121      0.1605
    112  C         38.4100   -2.9660  -12.5180 C.2   121  PHE121      0.2264
    113  O         38.7590   -4.0770  -12.9440 O.2   121  PHE121     -0.2867
    114  CB        35.9550   -2.4870  -12.4620 C.3   121  PHE121      0.0534
    115  CG        35.6430   -3.9580  -12.3860 C.ar  121  PHE121     -0.0203
    116  CD1       36.1490   -4.7320  -11.3400 C.ar  121  PHE121     -0.0042
    117  CD2       34.8810   -4.5780  -13.3750 C.ar  121  PHE121     -0.0042
    118  CE1       35.8920   -6.0850  -11.2780 C.ar  121  PHE121     -0.0003
    119  CE2       34.6220   -5.9270  -13.3110 C.ar  121  PHE121     -0.0003
    120  CZ        35.1300   -6.6800  -12.2650 C.ar  121  PHE121     -0.0000
    121  N         35.7600   -3.8390   -6.2790 N.3   124  VAL124     -0.1245
    122  CA        34.3210   -3.8370   -6.0040 C.3   124  VAL124      0.1561
    123  C         34.0830   -3.2350   -4.6160 C.2   124  VAL124      0.2260
    124  O         34.8830   -3.4360   -3.6910 O.2   124  VAL124     -0.2867
    125  CB        33.7210   -5.2670   -6.0460 C.3   124  VAL124      0.0252
    126  CG1       32.2120   -5.2530   -5.7980 C.3   124  VAL124      0.0019
    127  CG2       34.0420   -5.9530   -7.3710 C.3   124  VAL124      0.0019
    128  N         22.1490    4.6060  -13.9960 N.3   159  TYR159     -0.1241
    129  CA        22.8660    4.0500  -15.1290 C.3   159  TYR159      0.1605
    130  C         22.2780    4.6040  -16.4110 C.2   159  TYR159      0.2264
    131  O         21.0540    4.5830  -16.6030 O.2   159  TYR159     -0.2867
    132  CB        22.7670    2.5340  -15.1360 C.3   159  TYR159      0.0534
    133  CG        23.5140    1.8200  -14.0340 C.ar  159  TYR159     -0.0201
    134  CD1       24.6640    2.3610  -13.4460 C.ar  159  TYR159     -0.0009
    135  CD2       23.0930    0.5620  -13.6060 C.ar  159  TYR159     -0.0009
    136  CE1       25.3460    1.6760  -12.4590 C.ar  159  TYR159      0.0417
    137  CE2       23.7690   -0.1260  -12.6170 C.ar  159  TYR159      0.0417
    138  CZ        24.8950    0.4350  -12.0510 C.ar  159  TYR159      0.1957
    139  OH        25.5710   -0.2430  -11.0730 O.3   159  TYR159     -0.2866
    140  N         20.2040   -5.6610   -7.9030 N.3   220  ASP220     -0.1225
    141  CA        21.6590   -5.8800   -7.9730 C.3   220  ASP220      0.1805
    142  C         22.4110   -4.8920   -8.8790 C.2   220  ASP220      0.2598
    143  O         22.5260   -5.0980  -10.0830 O.2   220  ASP220     -0.2718
    144  CB        21.8860   -7.3090   -8.4670 C.3   220  ASP220      0.1424
    145  CG        23.3020   -7.8170   -8.2360 C.2   220  ASP220      0.3668
    146  OD1       24.2180   -7.0190   -7.9490 O.co2 220  ASP220     -0.2456
    147  OD2       23.4770   -9.0550   -8.3490 O.co2 220  ASP220     -0.2456
    148  N         22.9740   -3.8450   -8.2870 N.am  221  THR221     -0.1939
    149  CA        23.7530   -2.8530   -9.0550 C.3   221  THR221      0.2028
    150  C         25.0410   -3.4140   -9.6900 C.2   221  THR221      0.2643
    151  O         25.5720   -2.8210  -10.6210 O.2   221  THR221     -0.2714
    152  CB        24.1070   -1.6110   -8.2020 C.3   221  THR221      0.1808
    153  OG1       24.8190   -1.9950   -7.0080 O.3   221  THR221     -0.2208
    154  CG2       22.8290   -0.8420   -7.8470 C.3   221  THR221      0.0379
    155  N         25.5390   -4.5380   -9.1730 N.am  222  GLY222     -0.1939
    156  CA        26.6930   -5.2260   -9.7380 C.3   222  GLY222      0.2014
    157  C         26.4080   -6.1690  -10.8870 C.2   222  GLY222      0.2639
    158  O         27.3350   -6.6880  -11.4860 O.2   222  GLY222     -0.2714
    159  N         25.1420   -6.3860  -11.2070 N.am  223  ALA223     -0.1963
    160  CA        24.7660   -7.2780  -12.2920 C.3   223  ALA223      0.1728
    161  C         24.6010   -6.5000  -13.6060 C.2   223  ALA223      0.2617
    162  O         24.0170   -5.4230  -13.6080 O.2   223  ALA223     -0.2715
    163  CB        23.4730   -8.0020  -11.9280 C.3   223  ALA223      0.0334
    164  N         25.0980   -7.0550  -14.7140 N.am  224  SER224     -0.1936
    165  CA        24.9860   -6.4260  -16.0440 C.3   224  SER224      0.2055
    166  C         23.6370   -6.6770  -16.6850 C.2   224  SER224      0.2643
    167  O         23.1080   -5.8200  -17.4120 O.2   224  SER224     -0.2714
    168  CB        26.0600   -6.9660  -16.9990 C.3   224  SER224      0.2130
    169  OG        27.3690   -6.8350  -16.4630 O.3   224  SER224     -0.2179
    170  N         23.1230   -7.8860  -16.4560 N.am  225  TYR225     -0.1973
    171  CA        21.9050   -8.3880  -17.0960 C.3   225  TYR225      0.1639
    172  C         20.8490   -8.6750  -16.0450 C.2   225  TYR225      0.2290
    173  O         21.1750   -8.9140  -14.8820 O.2   225  TYR225     -0.2864
    174  CB        22.2000   -9.7040  -17.8400 C.3   225  TYR225      0.0560
    175  CG        23.0550   -9.6280  -19.1140 C.ar  225  TYR225     -0.0198
    176  CD1       23.7050   -8.4490  -19.5140 C.ar  225  TYR225     -0.0009
    177  CD2       23.2240  -10.7530  -19.9060 C.ar  225  TYR225     -0.0009
    178  CE1       24.4690   -8.3980  -20.6650 C.ar  225  TYR225      0.0417
    179  CE2       23.9960  -10.7100  -21.0560 C.ar  225  TYR225      0.0417
    180  CZ        24.6200   -9.5300  -21.4320 C.ar  225  TYR225      0.1957
    181  OH        25.3910   -9.4670  -22.5740 O.3   225  TYR225     -0.2866
    182  N         26.5840  -19.2250  -23.5110 N.3   247  PHE247     -0.1241
    183  CA        26.4020  -18.4370  -22.2840 C.3   247  PHE247      0.1605
    184  C         25.3150  -17.3470  -22.2980 C.2   247  PHE247      0.2264
    185  O         24.9730  -16.8430  -21.2260 O.2   247  PHE247     -0.2867
    186  CB        27.7550  -17.8260  -21.8760 C.3   247  PHE247      0.0534
    187  CG        27.7330  -16.9660  -20.6310 C.ar  247  PHE247     -0.0203
    188  CD1       27.2970  -17.4410  -19.4260 C.ar  247  PHE247     -0.0042
    189  CD2       28.2060  -15.6790  -20.6660 C.ar  247  PHE247     -0.0042
    190  CE1       27.3380  -16.7120  -18.2560 C.ar  247  PHE247     -0.0003
    191  CE2       28.2750  -14.8980  -19.4840 C.ar  247  PHE247     -0.0003
    192  CZ        27.8070  -15.4240  -18.3290 C.ar  247  PHE247     -0.0000
    193  N         19.5950  -13.3450  -18.8830 N.3   295  HIS295     -0.1241
    194  CA        20.0950  -14.7280  -18.8850 C.3   295  HIS295      0.1621
    195  C         19.7110  -15.5220  -17.6450 C.2   295  HIS295      0.2264
    196  O         19.1390  -15.0040  -16.6930 O.2   295  HIS295     -0.2867
    197  CB        21.6230  -14.7790  -19.0810 C.3   295  HIS295      0.0745
    198  CG        22.4190  -14.3930  -17.8750 C.ar  295  HIS295      0.0817
    199  ND1       21.9680  -13.4930  -16.9340 N.ar  295  HIS295     -0.2268
    200  CD2       23.6640  -14.7480  -17.4850 C.ar  295  HIS295      0.1154
    201  CE1       22.8900  -13.3290  -16.0010 C.ar  295  HIS295      0.1986
    202  NE2       23.9310  -14.0780  -16.3130 N.ar  295  HIS295     -0.2212
    203  N         20.3500  -17.5470  -14.2720 N.3   297  MET297     -0.1245
    204  CA        21.1750  -17.9650  -13.1520 C.3   297  MET297      0.1570
    205  C         20.3800  -18.4050  -11.9460 C.2   297  MET297      0.2261
    206  O         19.5360  -17.6670  -11.4570 O.2   297  MET297     -0.2867
    207  CB        22.1590  -16.8960  -12.7280 C.3   297  MET297      0.0387
    208  CG        23.3020  -17.5120  -11.9350 C.3   297  MET297      0.0595
    209  SD        24.7780  -16.5140  -12.0220 S.3   297  MET297     -0.1393
    210  CE        25.0150  -16.4230  -13.8070 C.3   297  MET297      0.0692
    211  N         21.5920   -4.1580  -14.3530 N.3   311  ALA311     -0.1245
    212  CA        21.7380   -2.9130  -15.1040 C.3   311  ALA311      0.1562
    213  C         20.6730   -2.7570  -16.1930 C.2   311  ALA311      0.2260
    214  O         20.1140   -1.6660  -16.3530 O.2   311  ALA311     -0.2867
    215  CB        23.1380   -2.8150  -15.6930 C.3   311  ALA311      0.0290
@<TRIPOS>BOND
     1   182   183    1
     2   181   180    1
     3   184   183    1
     4   184   185    2
     5   183   186    1
     6   104   102    1
     7   186   187    1
     8   180   179   ar
     9   180   178   ar
    10   102   103    1
    11   102   101    1
    12   179   177   ar
    13     6     5    1
    14   189   187   ar
    15   189   191   ar
    16   178   176   ar
    17   187   188   ar
    18     5     7    1
    19     5     2    1
    20   101    98    1
    21   177   175   ar
    22     1     2    1
    23   176   175   ar
    24    98    97    1
    25    98    99    1
    26   191   192   ar
    27   188   190   ar
    28   100    99    2
    29   175   174    1
    30     2     3    1
    31   197   194    1
    32   197   198    1
    33   194   193    1
    34   194   195    1
    35    99   105   am
    36    28    27    1
    37    16    14   am
    38   192   190   ar
    39   198   200   ar
    40   198   199   ar
    41   174   171    1
    42     3     8   am
    43     3     4    2
    44     8     9    1
    45   195   196    2
    46    13    14    1
    47    13    12    1
    48    14    15    2
    49   200   202   ar
    50    27    26   ar
    51    27    25   ar
    52   105   106    1
    53   167   166    2
    54    11    10    2
    55   171   170    1
    56   171   172    1
    57   168   169    1
    58   168   165    1
    59    26    24   ar
    60   199   201   ar
    61    25    23   ar
    62    12     9    1
    63    82    81    2
    64   166   170   am
    65   166   165    1
    66   131   130    2
    67     9    10    1
    68   107   106    1
    69   107   108    2
    70   106   109    1
    71   130   129    1
    72   214   213    2
    73   202   201   ar
    74    10    17   am
    75   213   212    1
    76   172   173    2
    77   165   164    1
    78    24    22   ar
    79    88    89    2
    80    88    87    1
    81    81    80    1
    82    81    86   am
    83    23    22   ar
    84   215   212    1
    85    80    83    1
    86    80    79    1
    87    22    21    1
    88    83    84    1
    89   132   129    1
    90   132   133    1
    91   129   128    1
    92   212   211    1
    93    86    87    1
    94    17    18    1
    95    87    90    1
    96   164   161   am
    97    79    85    1
    98   110   111    1
    99    18    21    1
   100    18    19    1
   101   203   204    1
   102    78    76    1
   103   133   135   ar
   104   133   134   ar
   105   210   209    1
   106    84    85    1
   107   162   161    2
   108   135   137   ar
   109   161   160    1
   110    90    91    1
   111   134   136   ar
   112   117   119   ar
   113   117   115   ar
   114    19    20    2
   115   119   120   ar
   116   111   112    1
   117   111   114    1
   118   204   207    1
   119   204   205    1
   120    76    77    1
   121    76    73    1
   122   113   112    2
   123   207   208    1
   124   137   138   ar
   125   114   115    1
   126   136   138   ar
   127   115   116   ar
   128    91    92   ar
   129    91    93   ar
   130   160   163    1
   131   160   159    1
   132   120   118   ar
   133    73    74    1
   134    73    72    1
   135    92    94   ar
   136   138   139    1
   137   209   208    1
   138   205   206    2
   139    75    74    2
   140    93    95   ar
   141    71    70    1
   142    69    68    2
   143   158   157    2
   144   116   118   ar
   145    72    68   am
   146   159   157   am
   147    35    33    1
   148    94    96   ar
   149    68    67    1
   150   157   156    1
   151    70    67    1
   152    95    96   ar
   153   151   150    2
   154   143   142    2
   155    67    66    1
   156    34    33    1
   157    33    30    1
   158   156   155    1
   159   150   155   am
   160   150   149    1
   161    30    29    1
   162    30    31    1
   163    66    56   am
   164   149   148    1
   165   149   152    1
   166   142   148   am
   167   142   141    1
   168   144   145    1
   169   144   141    1
   170   147   145   ar
   171    56    57    2
   172    56    55    1
   173   145   146   ar
   174   152   154    1
   175   152   153    1
   176    58    59    1
   177    58    55    1
   178   141   140    1
   179    31    32    2
   180    59    61   ar
   181    59    60   ar
   182   127   125    1
   183    55    54    1
   184    61    63   ar
   185    60    62   ar
   186    42    41   ar
   187    63    64   ar
   188   121   122    1
   189    62    64   ar
   190   125   122    1
   191   125   126    1
   192    41    40    1
   193    41    43   ar
   194   122   123    1
   195    40    37    1
   196    37    36    1
   197    37    38    1
   198    64    65    1
   199    38    39    2
   200   123   124    2
   201    44    45    1
   202    45    46    1
   203    46    47    2
   204    46    48   am
   205    53    52    1
   206    48    49    1
   207    52    49    1
   208    49    50    1
   209    51    50    2
