@<TRIPOS>MOLECULE
tmp/5vpuA00.pdb
 143 135 0 0 0
SMALL
GASTEIGER

@<TRIPOS>ATOM
      1  N          6.4130    1.6370   17.3190 N.3    62  SER62      -0.1217
      2  CA         5.2480    1.9850   16.5260 C.3    62  SER62       0.1889
      3  C          5.0140    3.4840   16.3600 C.2    62  SER62       0.2288
      4  O          4.4910    3.9190   15.3340 O.2    62  SER62      -0.2866
      5  CB         4.0240    1.3810   17.1770 C.3    62  SER62       0.2089
      6  OG         4.0220   -0.0360   17.1250 O.3    62  SER62      -0.2183
      7  N         11.3110    3.8010   24.8070 N.3   122  VAL122     -0.1231
      8  CA        10.1680    3.8770   23.8840 C.3   122  VAL122      0.1692
      9  C          9.1340    4.9010   24.3610 C.2   122  VAL122      0.2592
     10  O          8.6440    5.7270   23.5690 O.2   122  VAL122     -0.2718
     11  CB         9.5010    2.4830   23.7180 C.3   122  VAL122      0.0266
     12  CG1        8.2590    2.5650   22.8460 C.3   122  VAL122      0.0020
     13  CG2       10.4880    1.4900   23.1360 C.3   122  VAL122      0.0020
     14  N          8.8120    4.8530   25.6550 N.am  123  HIS123     -0.1976
     15  CA         7.8610    5.7860   26.2580 C.3   123  HIS123      0.1656
     16  C          8.4890    6.7970   27.1780 C.2   123  HIS123      0.2291
     17  O          7.8630    7.8010   27.4950 O.2   123  HIS123     -0.2864
     18  CB         6.8190    5.0220   27.0670 C.3   123  HIS123      0.0771
     19  CG         5.8830    4.2370   26.2170 C.ar  123  HIS123      0.0820
     20  ND1        4.6650    4.7340   25.8060 N.ar  123  HIS123     -0.2267
     21  CD2        6.0060    3.0130   25.6560 C.ar  123  HIS123      0.1154
     22  CE1        4.0690    3.8390   25.0420 C.ar  123  HIS123      0.1986
     23  NE2        4.8620    2.7840   24.9340 N.ar  123  HIS123     -0.2212
     24  N          8.2360   -4.6740   29.2820 N.3   152  ARG152     -0.1231
     25  CA         7.6840   -4.7550   27.9310 C.3   152  ARG152      0.1694
     26  C          8.6280   -4.0950   26.9110 C.2   152  ARG152      0.2592
     27  O          8.7390   -4.5580   25.7710 O.2   152  ARG152     -0.2718
     28  CB         6.2970   -4.1020   27.9080 C.3   152  ARG152      0.0321
     29  CG         5.5130   -4.2990   26.6190 C.3   152  ARG152      0.0489
     30  CD         4.1420   -3.6470   26.7750 C.3   152  ARG152      0.2205
     31  NE         3.3410   -3.7840   25.5670 N.pl3 152  ARG152     -0.0865
     32  CZ         2.4940   -4.7810   25.3350 C.cat 152  ARG152      0.5346
     33  NH1        2.3120   -5.7400   26.2370 N.pl3 152  ARG152      0.1354
     34  NH2        1.8200   -4.8060   24.1970 N.pl3 152  ARG152      0.1354
     35  N          9.3150   -3.0300   27.3260 N.am  153  ASP153     -0.1974
     36  CA        10.4100   -2.4660   26.5350 C.3   153  ASP153      0.1709
     37  C         11.7510   -2.8780   27.1330 C.2   153  ASP153      0.2293
     38  O         12.7960   -2.4730   26.6440 O.2   153  ASP153     -0.2864
     39  CB        10.3070   -0.9360   26.4750 C.3   153  ASP153      0.1436
     40  CG         8.9630   -0.4720   25.9480 C.2   153  ASP153      0.3671
     41  OD1        8.4530   -1.0760   24.9810 O.co2 153  ASP153     -0.2456
     42  OD2        8.4010    0.4870   26.5030 O.co2 153  ASP153     -0.2456
     43  N          2.9770   -1.1710   34.3840 N.3   185  ARG185     -0.1245
     44  CA         2.4740   -0.3900   33.2680 C.3   185  ARG185      0.1563
     45  C          1.1710   -0.9340   32.6780 C.2   185  ARG185      0.2260
     46  O          0.4470   -0.2050   32.0160 O.2   185  ARG185     -0.2867
     47  CB         3.5440   -0.2730   32.1780 C.3   185  ARG185      0.0307
     48  CG         3.9900   -1.6410   31.6310 C.3   185  ARG185      0.0489
     49  CD         5.0050   -1.4670   30.5120 C.3   185  ARG185      0.2205
     50  NE         4.3760   -0.8760   29.3330 N.pl3 185  ARG185     -0.0865
     51  CZ         5.0420   -0.3980   28.2920 C.cat 185  ARG185      0.5346
     52  NH1        6.3640   -0.4420   28.2650 N.pl3 185  ARG185      0.1354
     53  NH2        4.3700    0.1170   27.2670 N.pl3 185  ARG185      0.1354
     54  N         -3.9850    1.6480   26.9870 N.3   191  ARG191     -0.1245
     55  CA        -4.3910    2.4640   25.8400 C.3   191  ARG191      0.1563
     56  C         -5.6340    1.9460   25.1170 C.2   191  ARG191      0.2260
     57  O         -5.9600    2.4180   24.0310 O.2   191  ARG191     -0.2867
     58  CB        -3.2390    2.6280   24.8270 C.3   191  ARG191      0.0307
     59  CG        -2.8240    1.3360   24.1540 C.3   191  ARG191      0.0489
     60  CD        -1.7160    1.5370   23.1180 C.3   191  ARG191      0.2205
     61  NE        -1.4200    0.2570   22.4770 N.pl3 191  ARG191     -0.0865
     62  CZ        -0.2370   -0.1030   21.9940 C.cat 191  ARG191      0.5346
     63  NH1        0.7950    0.7170   22.0590 N.pl3 191  ARG191      0.1354
     64  NH2       -0.0970   -1.3070   21.4490 N.pl3 191  ARG191      0.1354
     65  N          5.9190    9.6160   25.0460 N.3   257  ARG257     -0.1245
     66  CA         5.0760    9.0330   24.0150 C.3   257  ARG257      0.1563
     67  C          3.6000    9.1310   24.4240 C.2   257  ARG257      0.2260
     68  O          3.2500    8.8970   25.5880 O.2   257  ARG257     -0.2867
     69  CB         5.4920    7.5800   23.7600 C.3   257  ARG257      0.0307
     70  CG         4.6030    6.8800   22.7690 C.3   257  ARG257      0.0489
     71  CD         5.2230    5.6020   22.2160 C.3   257  ARG257      0.2205
     72  NE         4.1470    4.6930   21.8430 N.pl3 257  ARG257     -0.0865
     73  CZ         4.2990    3.5320   21.2220 C.cat 257  ARG257      0.5346
     74  NH1        5.4980    3.1200   20.8260 N.pl3 257  ARG257      0.1354
     75  NH2        3.2250    2.7970   20.9780 N.pl3 257  ARG257      0.1354
     76  N         -0.0310    5.7610   25.3930 N.3   260  ARG260     -0.1245
     77  CA        -0.2540    5.1280   26.6890 C.3   260  ARG260      0.1563
     78  C         -0.2870    6.1080   27.8570 C.2   260  ARG260      0.2260
     79  O         -0.4250    5.6970   29.0140 O.2   260  ARG260     -0.2867
     80  CB         0.8060    4.0510   26.9380 C.3   260  ARG260      0.0307
     81  CG         0.6560    2.8280   26.0430 C.3   260  ARG260      0.0489
     82  CD         1.5690    1.7180   26.5460 C.3   260  ARG260      0.2205
     83  NE         1.5420    0.5290   25.6860 N.pl3 260  ARG260     -0.0865
     84  CZ         0.6020   -0.4100   25.7350 C.cat 260  ARG260      0.5346
     85  NH1       -0.4140   -0.3090   26.5810 N.pl3 260  ARG260      0.1354
     86  NH2        0.6780   -1.4540   24.9180 N.pl3 260  ARG260      0.1354
     87  N         -4.2080   -0.3960   18.2670 N.3   331  LYS331     -0.1245
     88  CA        -3.2940    0.3330   17.3970 C.3   331  LYS331      0.1561
     89  C         -3.9650    1.5720   16.8060 C.2   331  LYS331      0.2260
     90  O         -3.5950    2.0250   15.7190 O.2   331  LYS331     -0.2867
     91  CB        -2.7600   -0.5860   16.2980 C.3   331  LYS331      0.0271
     92  CG        -1.9120   -1.7500   16.8240 C.3   331  LYS331      0.0035
     93  CD        -0.5820   -1.2740   17.3620 C.3   331  LYS331      0.0206
     94  CE         0.2270   -2.4170   17.9700 C.3   331  LYS331      0.1093
     95  NZ         1.5840   -1.9610   18.3340 N.3   331  LYS331     -0.1314
     96  N         -1.6340    4.4770   16.0240 N.3   334  HIS334     -0.1241
     97  CA        -0.7100    4.1340   14.9680 C.3   334  HIS334      0.1621
     98  C         -1.2350    4.5270   13.6030 C.2   334  HIS334      0.2264
     99  O         -0.5330    5.1870   12.8290 O.2   334  HIS334     -0.2867
    100  CB        -0.4700    2.6330   15.0480 C.3   334  HIS334      0.0745
    101  CG        -0.0140    2.1920   16.4040 C.ar  334  HIS334      0.0817
    102  ND1       -0.7380    2.4210   17.5590 N.ar  334  HIS334     -0.2268
    103  CD2        1.1080    1.5540   16.7910 C.ar  334  HIS334      0.1154
    104  CE1       -0.0780    1.9400   18.5950 C.ar  334  HIS334      0.1986
    105  NE2        1.0510    1.4140   18.1570 N.ar  334  HIS334     -0.2212
    106  N          3.2500   -7.9490   16.8200 N.3   398  ASP398     -0.1239
    107  CA         3.7620   -7.1070   17.8800 C.3   398  ASP398      0.1674
    108  C          3.1270   -7.4310   19.2200 C.2   398  ASP398      0.2266
    109  O          3.8210   -7.6510   20.2100 O.2   398  ASP398     -0.2867
    110  CB         3.5070   -5.6430   17.5570 C.3   398  ASP398      0.1410
    111  CG         4.0050   -4.7410   18.6380 C.2   398  ASP398      0.3668
    112  OD1        5.2430   -4.6630   18.7780 O.co2 398  ASP398     -0.2456
    113  OD2        3.1790   -4.1490   19.3750 O.co2 398  ASP398     -0.2456
    114  N          5.0370   -9.3080   22.3790 N.3   402  HIS402     -0.1241
    115  CA         5.2740   -8.6790   23.6850 C.3   402  HIS402      0.1621
    116  C          4.9350   -9.5840   24.8670 C.2   402  HIS402      0.2264
    117  O          5.3330   -9.2970   25.9920 O.2   402  HIS402     -0.2867
    118  CB         4.4810   -7.3640   23.8330 C.3   402  HIS402      0.0745
    119  CG         5.0720   -6.1850   23.1190 C.ar  402  HIS402      0.0817
    120  ND1        6.3010   -5.6450   23.4420 N.ar  402  HIS402     -0.2268
    121  CD2        4.5660   -5.4050   22.1400 C.ar  402  HIS402      0.1154
    122  CE1        6.5270   -4.5800   22.6850 C.ar  402  HIS402      0.1986
    123  NE2        5.4970   -4.4270   21.8720 N.ar  402  HIS402     -0.2212
    124  N          8.9270   -2.1530   12.6780 N.3   440  HIS440     -0.1241
    125  CA        10.0510   -2.6400   13.4860 C.3   440  HIS440      0.1621
    126  C          9.7830   -4.1240   13.7140 C.2   440  HIS440      0.2264
    127  O          8.6590   -4.5940   13.5060 O.2   440  HIS440     -0.2867
    128  CB        10.0890   -1.9430   14.8520 C.3   440  HIS440      0.0745
    129  CG         8.8170   -2.1020   15.6160 C.ar  440  HIS440      0.0817
    130  ND1        8.5210   -3.2320   16.3480 N.ar  440  HIS440     -0.2268
    131  CD2        7.7300   -1.3010   15.7030 C.ar  440  HIS440      0.1154
    132  CE1        7.3080   -3.1140   16.8600 C.ar  440  HIS440      0.1986
    133  NE2        6.8080   -1.9490   16.4870 N.ar  440  HIS440     -0.2212
    134  N         10.7880   -5.1830   21.3290 N.3   458  HIS458     -0.1241
    135  CA        11.1060   -5.0520   19.9250 C.3   458  HIS458      0.1621
    136  C         12.5340   -5.5010   19.6830 C.2   458  HIS458      0.2264
    137  O         13.3030   -5.7500   20.6200 O.2   458  HIS458     -0.2867
    138  CB        10.9500   -3.5990   19.5010 C.3   458  HIS458      0.0745
    139  CG         9.5580   -3.0840   19.6670 C.ar  458  HIS458      0.0817
    140  ND1        9.2330   -1.7530   19.4990 N.ar  458  HIS458     -0.2268
    141  CD2        8.4070   -3.7200   19.9860 C.ar  458  HIS458      0.1154
    142  CE1        7.9370   -1.5940   19.7150 C.ar  458  HIS458      0.1986
    143  NE2        7.4140   -2.7710   20.0160 N.ar  458  HIS458     -0.2212
@<TRIPOS>BOND
     1   124   125    1
     2    99    98    2
     3   125   126    1
     4   125   128    1
     5   127   126    2
     6    98    97    1
     7   128   129    1
     8    97   100    1
     9    97    96    1
    10   100   101    1
    11     4     3    2
    12   129   131   ar
    13   129   130   ar
    14   131   133   ar
    15    90    89    2
    16    91    92    1
    17    91    88    1
    18   130   132   ar
    19     3     2    1
    20   101   103   ar
    21   101   102   ar
    22   133   132   ar
    23     2     5    1
    24     2     1    1
    25   103   105   ar
    26    89    88    1
    27   106   107    1
    28    92    93    1
    29     6     5    1
    30    93    94    1
    31    88    87    1
    32   110   107    1
    33   110   111    1
    34   102   104   ar
    35   107   108    1
    36    94    95    1
    37   105   104   ar
    38   111   112   ar
    39   111   113   ar
    40   108   109    2
    41   140   139   ar
    42   140   142   ar
    43   138   139    1
    44   138   135    1
    45   139   141   ar
    46   136   135    1
    47   136   137    2
    48   142   143   ar
    49   135   134    1
    50   141   143   ar
    51    74    73    1
    52    75    73    1
    53    73    72    2
    54    64    62    1
    55    72    71    1
    56   123   121   ar
    57   123   122   ar
    58    62    63    1
    59    62    61    2
    60   121   119   ar
    61    71    70    1
    62   114   115    1
    63    61    60    1
    64   122   120   ar
    65    70    69    1
    66    12    11    1
    67    60    59    1
    68   119   120   ar
    69   119   118    1
    70    13    11    1
    71    10     9    2
    72   115   118    1
    73   115   116    1
    74    11     8    1
    75    69    66    1
    76     8     9    1
    77     8     7    1
    78    66    67    1
    79    66    65    1
    80    57    56    2
    81    59    58    1
    82    34    32    1
    83     9    14   am
    84    67    68    2
    85    58    55    1
    86   116   117    2
    87    86    84    1
    88    23    22   ar
    89    23    21   ar
    90    41    40   ar
    91    22    20   ar
    92    56    55    1
    93    32    31    2
    94    32    33    1
    95    76    77    1
    96    31    30    1
    97    14    15    1
    98    21    19   ar
    99    83    84    2
   100    83    82    1
   101    84    85    1
   102    27    26    2
   103    20    19   ar
   104    55    54    1
   105    40    39    1
   106    40    42   ar
   107    81    82    1
   108    81    80    1
   109    19    18    1
   110    15    18    1
   111    15    16    1
   112    39    36    1
   113    36    37    1
   114    36    35    1
   115    29    30    1
   116    29    28    1
   117    38    37    2
   118    77    80    1
   119    77    78    1
   120    26    35   am
   121    26    25    1
   122    16    17    2
   123    53    51    1
   124    78    79    2
   125    28    25    1
   126    25    24    1
   127    52    51    1
   128    51    50    2
   129    50    49    1
   130    49    48    1
   131    48    47    1
   132    46    45    2
   133    47    44    1
   134    45    44    1
   135    44    43    1
