@<TRIPOS>MOLECULE
tmp/5vpwC00.pdb
 108 100 0 0 0
SMALL
GASTEIGER

@<TRIPOS>ATOM
      1  N         52.6770  -12.4870  123.1150 N.3    49  GLY49      -0.1225
      2  CA        53.8890  -12.7320  123.8910 C.3    49  GLY49       0.1811
      3  C         54.8860  -13.4690  123.0050 C.2    49  GLY49       0.2280
      4  O         54.7040  -13.5610  121.7870 O.2    49  GLY49      -0.2866
      5  N         57.7960  -17.1920  126.7690 N.3    53  ALA53      -0.1245
      6  CA        56.5580  -17.2150  127.5470 C.3    53  ALA53       0.1562
      7  C         55.7880  -18.5010  127.2790 C.2    53  ALA53       0.2260
      8  O         55.3380  -19.1630  128.2070 O.2    53  ALA53      -0.2867
      9  CB        55.6870  -16.0180  127.2390 C.3    53  ALA53       0.0290
     10  N         56.9060  -20.0370  130.6010 N.3    57  GLY57      -0.1210
     11  CA        55.8260  -19.4100  131.3620 C.3    57  GLY57       0.1956
     12  C         54.5370  -20.2380  131.3900 C.2    57  GLY57       0.2611
     13  O         53.8610  -20.3020  132.4110 O.2    57  GLY57      -0.2717
     14  N         54.2350  -20.9070  130.2790 N.am   58  VAL58      -0.1979
     15  CA        52.9370  -21.6030  130.0540 C.3    58  VAL58       0.1595
     16  C         53.0220  -23.1100  130.2560 C.2    58  VAL58       0.2287
     17  O         52.4410  -23.6230  131.1740 O.2    58  VAL58      -0.2864
     18  CB        52.4100  -21.2920  128.6450 C.3    58  VAL58       0.0276
     19  CG1       51.1300  -22.0670  128.3020 C.3    58  VAL58       0.0022
     20  CG2       52.1410  -19.7970  128.5360 C.3    58  VAL58       0.0022
     21  N         52.5810  -14.2650  137.8850 N.3    83  GLY83      -0.1210
     22  CA        51.5290  -13.6080  137.1330 C.3    83  GLY83       0.1956
     23  C         50.5310  -14.5720  136.4990 C.2    83  GLY83       0.2611
     24  O         49.3520  -14.2570  136.3410 O.2    83  GLY83      -0.2717
     25  N         51.0000  -15.7610  136.1420 N.am   84  ARG84      -0.1979
     26  CA        50.1330  -16.7990  135.6220 C.3    84  ARG84       0.1597
     27  C         49.7810  -17.7420  136.7610 C.2    84  ARG84       0.2287
     28  O         50.6490  -18.2590  137.4120 O.2    84  ARG84      -0.2864
     29  CB        50.8320  -17.5400  134.4780 C.3    84  ARG84       0.0334
     30  CG        50.0170  -18.6670  133.9030 C.3    84  ARG84       0.0492
     31  CD        50.4210  -18.9620  132.4600 C.3    84  ARG84       0.2205
     32  NE        49.6950  -20.1130  131.9220 N.pl3  84  ARG84      -0.0865
     33  CZ        50.0890  -21.3730  132.0090 C.cat  84  ARG84       0.5346
     34  NH1       51.1640  -21.7030  132.7110 N.pl3  84  ARG84       0.1354
     35  NH2       49.3730  -22.3130  131.4070 N.pl3  84  ARG84       0.1354
     36  N         53.2880  -16.9860  121.3850 N.3   179  GLN179     -0.1245
     37  CA        53.5310  -18.0170  122.4020 C.3   179  GLN179      0.1566
     38  C         53.4660  -19.4250  121.8300 C.2   179  GLN179      0.2260
     39  O         54.0500  -20.3200  122.3650 O.2   179  GLN179     -0.2867
     40  CB        52.5230  -17.9130  123.5720 C.3   179  GLN179      0.0367
     41  CG        52.5460  -16.6200  124.3610 C.3   179  GLN179      0.0905
     42  CD        51.5820  -15.5670  123.8590 C.2   179  GLN179      0.2608
     43  OE1       51.5240  -15.2210  122.6530 O.2   179  GLN179     -0.2717
     44  NE2       50.8160  -15.0190  124.7900 N.am  179  GLN179     -0.0878
     45  N         44.7280  -13.8620  120.0690 N.3   365  GLU365     -0.1245
     46  CA        46.0580  -13.3920  119.9270 C.3   365  GLU365      0.1567
     47  C         46.7220  -14.2320  118.8550 C.2   365  GLU365      0.2260
     48  O         47.3720  -13.7040  118.0210 O.2   365  GLU365     -0.2867
     49  CB        46.8990  -13.5480  121.1840 C.3   365  GLU365      0.0388
     50  CG        46.4700  -12.6560  122.3150 C.3   365  GLU365      0.1160
     51  CD        47.3440  -12.7550  123.5500 C.2   365  GLU365      0.3649
     52  OE1       46.8920  -12.2660  124.5650 O.co2 365  GLU365     -0.2457
     53  OE2       48.4360  -13.2890  123.4770 O.co2 365  GLU365     -0.2457
     54  N         42.2690   -9.5800  128.6310 N.3   439  GLY439     -0.1210
     55  CA        43.3400   -9.8360  129.5740 C.3   439  GLY439      0.1956
     56  C         43.6960   -8.5820  130.3350 C.2   439  GLY439      0.2612
     57  O         42.9580   -7.5880  130.2940 O.2   439  GLY439     -0.2717
     58  N         44.8530   -8.5980  131.0070 N.am  440  ILE440     -0.1965
     59  CA        45.1940   -7.5080  131.9380 C.3   440  ILE440      0.1727
     60  C         45.5570   -6.2230  131.1620 C.2   440  ILE440      0.2616
     61  O         45.2860   -5.1110  131.6210 O.2   440  ILE440     -0.2715
     62  CB        46.3110   -7.9770  132.9300 C.3   440  ILE440      0.0290
     63  CG1       46.5570   -6.9660  134.0570 C.3   440  ILE440      0.0022
     64  CG2       47.6220   -8.2510  132.2060 C.3   440  ILE440      0.0023
     65  CD1       45.3350   -6.6530  134.8630 C.3   440  ILE440      0.0001
     66  N         46.1700   -6.3520  129.9860 N.am  441  LYS441     -0.1963
     67  CA        46.5810   -5.1600  129.2030 C.3   441  LYS441      0.1728
     68  C         45.3810   -4.3970  128.6790 C.2   441  LYS441      0.2616
     69  O         45.4070   -3.1580  128.5520 O.2   441  LYS441     -0.2715
     70  CB        47.4970   -5.5440  128.0410 C.3   441  LYS441      0.0311
     71  CG        48.8100   -6.1660  128.4990 C.3   441  LYS441      0.0038
     72  CD        49.8530   -6.3260  127.3960 C.3   441  LYS441      0.0206
     73  CE        49.4020   -7.2200  126.2540 C.3   441  LYS441      0.1093
     74  NZ        49.1980   -8.6530  126.6330 N.3   441  LYS441     -0.1314
     75  N         44.3150   -5.1360  128.4090 N.am  442  GLU442     -0.1977
     76  CA        43.0870   -4.5570  127.8720 C.3   442  GLU442      0.1602
     77  C         42.0420   -4.1690  128.9040 C.2   442  GLU442      0.2287
     78  O         41.2310   -3.3020  128.6270 O.2   442  GLU442     -0.2864
     79  CB        42.4160   -5.5000  126.8630 C.3   442  GLU442      0.0415
     80  CG        43.3060   -6.0200  125.7290 C.3   442  GLU442      0.1163
     81  CD        44.2660   -7.1040  126.1760 C.2   442  GLU442      0.3649
     82  OE1       45.3240   -7.2370  125.5290 O.co2 442  GLU442     -0.2457
     83  OE2       44.0100   -7.8110  127.1920 O.co2 442  GLU442     -0.2457
     84  N         38.5930  -10.6320  133.1880 N.3   455  GLN455     -0.1245
     85  CA        39.7460  -11.2740  132.6070 C.3   455  GLN455      0.1566
     86  C         39.5360  -12.7680  132.3500 C.2   455  GLN455      0.2260
     87  O         39.0790  -13.5200  133.2340 O.2   455  GLN455     -0.2867
     88  CB        40.9530  -11.0820  133.5540 C.3   455  GLN455      0.0367
     89  CG        41.4740   -9.6600  133.6620 C.3   455  GLN455      0.0905
     90  CD        42.6880   -9.5890  134.5620 C.2   455  GLN455      0.2608
     91  OE1       43.7710  -10.0120  134.1810 O.2   455  GLN455     -0.2717
     92  NE2       42.4980   -9.0820  135.7850 N.am  455  GLN455     -0.0878
     93  N         42.2150  -14.7440  131.3590 N.3   457  HIS457     -0.1226
     94  CA        43.4310  -15.4740  131.6940 C.3   457  HIS457      0.1752
     95  C         43.5600  -15.6590  133.1910 C.2   457  HIS457      0.2596
     96  O         43.5820  -16.7930  133.6740 O.2   457  HIS457     -0.2718
     97  CB        44.7090  -14.8170  131.1560 C.3   457  HIS457      0.0759
     98  CG        44.6360  -14.3620  129.7380 C.ar  457  HIS457      0.0818
     99  ND1       45.4570  -14.8690  128.7520 N.ar  457  HIS457     -0.2268
    100  CD2       43.8810  -13.4100  129.1490 C.ar  457  HIS457      0.1154
    101  CE1       45.2140  -14.2340  127.6220 C.ar  457  HIS457      0.1986
    102  NE2       44.2530  -13.3590  127.8340 N.ar  457  HIS457     -0.2212
    103  N         43.6520  -14.5560  133.9330 N.am  458  SER458     -0.1952
    104  CA        43.9010  -14.6280  135.3890 C.3   458  SER458      0.1924
    105  C         42.6340  -14.8840  136.2010 C.2   458  SER458      0.2314
    106  O         42.7000  -15.0720  137.4170 O.2   458  SER458     -0.2863
    107  CB        44.5010  -13.3180  135.8780 C.3   458  SER458      0.2116
    108  OG        43.5270  -12.3060  135.8600 O.3   458  SER458     -0.2180
@<TRIPOS>BOND
     1    48    47    2
     2    47    46    1
     3    46    45    1
     4    46    49    1
     5    49    50    1
     6    36    37    1
     7     4     3    2
     8    38    39    2
     9    38    37    1
    10    50    51    1
    11    37    40    1
    12    43    42    2
    13     3     2    1
    14     1     2    1
    15    53    51   ar
    16    51    52   ar
    17    40    41    1
    18    42    41    1
    19    42    44   am
    20    82    81   ar
    21    80    81    1
    22    80    79    1
    23    81    83   ar
    24    73    74    1
    25    73    72    1
    26     5     6    1
    27    79    76    1
    28     9     6    1
    29     7     6    1
    30     7     8    2
    31    72    71    1
    32   101   102   ar
    33   101    99   ar
    34   102   100   ar
    35    76    75    1
    36    76    77    1
    37    70    71    1
    38    70    67    1
    39    19    18    1
    40    75    68   am
    41    20    18    1
    42    69    68    2
    43    78    77    2
    44    54    55    1
    45    18    15    1
    46    68    67    1
    47    99    98   ar
    48   100    98   ar
    49    67    66    1
    50    55    56    1
    51    98    97    1
    52    66    60   am
    53    15    16    1
    54    15    14    1
    55    16    17    2
    56    14    12   am
    57    57    56    2
    58    56    58   am
    59    10    11    1
    60    58    59    1
    61    97    94    1
    62    60    61    2
    63    60    59    1
    64    93    94    1
    65    11    12    1
    66    12    13    2
    67    35    33    1
    68    94    95    1
    69    32    33    2
    70    32    31    1
    71    59    62    1
    72    33    34    1
    73    64    62    1
    74    86    85    1
    75    86    87    2
    76    31    30    1
    77    85    84    1
    78    85    88    1
    79    62    63    1
    80    95    96    2
    81    95   103   am
    82    88    89    1
    83    89    90    1
    84    30    29    1
    85   103   104    1
    86    63    65    1
    87    91    90    2
    88    29    26    1
    89    90    92   am
    90   104   107    1
    91   104   105    1
    92    26    25    1
    93    26    27    1
    94   108   107    1
    95    25    23   am
    96   105   106    2
    97    24    23    2
    98    23    22    1
    99    27    28    2
   100    22    21    1
