@<TRIPOS>MOLECULE
tmp/5vpxA00.pdb
 164 156 0 0 0
SMALL
GASTEIGER

@<TRIPOS>ATOM
      1  N        133.7910  199.5660  408.8290 N.3    23  ALA23      -0.1231
      2  CA       133.9070  198.5830  409.9080 C.3    23  ALA23       0.1694
      3  C        133.2380  197.2640  409.5130 C.2    23  ALA23       0.2591
      4  O        133.8630  196.1940  409.5770 O.2    23  ALA23      -0.2718
      5  CB       133.3070  199.1470  411.2020 C.3    23  ALA23       0.0304
      6  N        131.9760  197.3270  409.0560 N.am   24  MET24      -0.1979
      7  CA       131.2930  196.1180  408.6110 C.3    24  MET24       0.1605
      8  C        132.1510  195.3500  407.6260 C.2    24  MET24       0.2287
      9  O        132.3980  194.1500  407.8060 O.2    24  MET24      -0.2864
     10  CB       129.9780  196.4230  407.9010 C.3    24  MET24       0.0413
     11  CG       128.9610  197.3160  408.5500 C.3    24  MET24       0.0598
     12  SD       127.5490  196.4210  409.0920 S.3    24  MET24      -0.1393
     13  CE       126.5120  196.4050  407.6810 C.3    24  MET24       0.0692
     14  N        135.1830  193.3670  408.6090 N.3    27  TYR27      -0.1241
     15  CA       134.8770  192.1160  409.2960 C.3    27  TYR27       0.1605
     16  C        133.8800  191.2580  408.5230 C.2    27  TYR27       0.2264
     17  O        133.2710  190.3510  409.1010 O.2    27  TYR27      -0.2867
     18  CB       134.3480  192.3890  410.7070 C.3    27  TYR27       0.0534
     19  CG       135.4020  192.8670  411.6860 C.ar   27  TYR27      -0.0201
     20  CD1      135.7070  194.2250  411.8110 C.ar   27  TYR27      -0.0009
     21  CD2      136.0950  191.9650  412.4860 C.ar   27  TYR27      -0.0009
     22  CE1      136.6770  194.6680  412.7030 C.ar   27  TYR27       0.0417
     23  CE2      137.0590  192.3980  413.3870 C.ar   27  TYR27       0.0417
     24  CZ       137.3450  193.7520  413.4950 C.ar   27  TYR27       0.1957
     25  OH       138.3050  194.1820  414.3920 O.3    27  TYR27      -0.2866
     26  N        130.8720  191.7730  406.8960 N.3    29  GLU29      -0.1245
     27  CA       129.4290  191.9890  406.8110 C.3    29  GLU29       0.1567
     28  C        129.0830  193.0220  405.7370 C.2    29  GLU29       0.2260
     29  O        129.7450  194.0550  405.6230 O.2    29  GLU29      -0.2867
     30  CB       128.8750  192.4480  408.1610 C.3    29  GLU29       0.0388
     31  CG       129.4440  191.7120  409.3770 C.3    29  GLU29       0.1160
     32  CD       128.7450  190.3900  409.6430 C.2    29  GLU29       0.3649
     33  OE1      127.6890  190.1410  409.0230 O.co2  29  GLU29      -0.2457
     34  OE2      129.2500  189.5970  410.4680 O.co2  29  GLU29      -0.2457
     35  N        122.2110  195.5810  411.4050 N.3    37  LYS37      -0.1245
     36  CA       123.5800  195.7810  411.8700 C.3    37  LYS37       0.1561
     37  C        124.1540  197.1070  411.3620 C.2    37  LYS37       0.2260
     38  O        124.9380  197.7640  412.0610 O.2    37  LYS37      -0.2867
     39  CB       124.4420  194.5960  411.4210 C.3    37  LYS37       0.0271
     40  CG       125.6490  194.3640  412.3110 C.3    37  LYS37       0.0035
     41  CD       126.4800  193.1790  411.8400 C.3    37  LYS37       0.0206
     42  CE       125.6810  191.8770  411.8640 C.3    37  LYS37       0.1093
     43  NZ       125.2900  191.5050  413.2610 N.3    37  LYS37      -0.1314
     44  N        122.7310  199.6510  413.6400 N.3    40  ALA40      -0.1231
     45  CA       123.2650  199.5580  415.0010 C.3    40  ALA40       0.1694
     46  C        124.6920  200.0980  415.0830 C.2    40  ALA40       0.2592
     47  O        125.0310  200.8150  416.0350 O.2    40  ALA40      -0.2718
     48  CB       123.1930  198.1070  415.5070 C.3    40  ALA40       0.0304
     49  N        125.5410  199.8090  414.0850 N.am   41  THR41      -0.1953
     50  CA       126.9120  200.3030  414.1760 C.3    41  THR41       0.1897
     51  C        126.9450  201.8150  414.0690 C.2    41  THR41       0.2313
     52  O        127.7050  202.4740  414.7890 O.2    41  THR41      -0.2863
     53  CB       127.8000  199.6900  413.0980 C.3    41  THR41       0.1794
     54  OG1      127.2210  199.9510  411.8280 O.3    41  THR41      -0.2208
     55  CG2      127.9330  198.1780  413.2940 C.3    41  THR41       0.0378
     56  N        125.8800  203.0990  417.4720 N.3    44  HIS44      -0.1241
     57  CA       126.9240  202.9140  418.4770 C.3    44  HIS44       0.1621
     58  C        128.0490  203.9120  418.2560 C.2    44  HIS44       0.2264
     59  O        128.5440  204.5370  419.2040 O.2    44  HIS44      -0.2867
     60  CB       127.4370  201.4730  418.4080 C.3    44  HIS44       0.0745
     61  CG       128.5560  201.1730  419.3590 C.ar   44  HIS44       0.0817
     62  ND1      129.8840  201.3330  419.0200 N.ar   44  HIS44      -0.2268
     63  CD2      128.5450  200.6750  420.6230 C.ar   44  HIS44       0.1154
     64  CE1      130.6450  200.9790  420.0450 C.ar   44  HIS44       0.1986
     65  NE2      129.8580  200.5740  421.0290 N.ar   44  HIS44      -0.2212
     66  N        137.2810  203.3430  419.0490 N.3    64  GLU64      -0.1245
     67  CA       136.2760  202.9730  418.0640 C.3    64  GLU64       0.1567
     68  C        136.3970  203.8820  416.8370 C.2    64  GLU64       0.2260
     69  O        136.8870  205.0110  416.9230 O.2    64  GLU64      -0.2867
     70  CB       134.8800  203.0750  418.6920 C.3    64  GLU64       0.0388
     71  CG       133.7280  202.6520  417.8040 C.3    64  GLU64       0.1160
     72  CD       133.8760  201.2380  417.2820 C.2    64  GLU64       0.3649
     73  OE1      133.4110  200.2720  417.9660 O.co2  64  GLU64      -0.2457
     74  OE2      134.4630  201.1030  416.1830 O.co2  64  GLU64      -0.2457
     75  N        140.1590  192.3900  424.7080 N.3    89  PHE89      -0.1227
     76  CA       139.2670  192.7320  423.6120 C.3    89  PHE89       0.1736
     77  C        139.2130  194.2430  423.4590 C.2    89  PHE89       0.2595
     78  O        139.3490  194.9900  424.4360 O.2    89  PHE89      -0.2718
     79  CB       137.8600  192.1700  423.8420 C.3    89  PHE89       0.0547
     80  CG       137.8410  190.6890  424.1200 C.ar   89  PHE89      -0.0202
     81  CD1      137.7770  189.7780  423.0750 C.ar   89  PHE89      -0.0042
     82  CD2      137.9070  190.2080  425.4230 C.ar   89  PHE89      -0.0042
     83  CE1      137.7660  188.4150  423.3240 C.ar   89  PHE89      -0.0003
     84  CE2      137.9000  188.8510  425.6780 C.ar   89  PHE89      -0.0003
     85  CZ       137.8310  187.9530  424.6290 C.ar   89  PHE89      -0.0000
     86  N        139.0050  194.6790  422.2220 N.am   90  LEU90      -0.1966
     87  CA       139.0850  196.0870  421.8790 C.3    90  LEU90       0.1713
     88  C        138.0080  196.8800  422.6070 C.2    90  LEU90       0.2458
     89  O        136.8120  196.6020  422.4200 O.2    90  LEU90      -0.2730
     90  CB       138.9340  196.2750  420.3650 C.3    90  LEU90       0.0310
     91  CG       140.2050  196.5090  419.5400 C.3    90  LEU90       0.0022
     92  CD1      139.8730  196.8110  418.0720 C.3    90  LEU90       0.0001
     93  CD2      141.0550  197.6240  420.1280 C.3    90  LEU90       0.0001
     94  N        138.3690  197.8780  423.4090 N.am   91  PRO91      -0.2716
     95  CA       137.3530  198.7740  423.9810 C.3    91  PRO91       0.1536
     96  C        136.9970  199.9030  423.0180 C.2    91  PRO91       0.2598
     97  O        137.4910  199.9110  421.8790 O.2    91  PRO91      -0.2715
     98  CB       138.0450  199.3030  425.2390 C.3    91  PRO91       0.0310
     99  CG       139.5030  199.3930  424.8000 C.3    91  PRO91       0.0237
    100  CD       139.7320  198.2410  423.8370 C.3    91  PRO91       0.0939
    101  N        136.1720  200.8700  423.4570 N.am   92  ASP92      -0.1972
    102  CA       135.7650  201.9890  422.6060 C.3    92  ASP92       0.1709
    103  C        136.5090  203.2820  422.9060 C.2    92  ASP92       0.2293
    104  O        136.7610  204.0640  421.9870 O.2    92  ASP92      -0.2864
    105  CB       134.2620  202.2510  422.7310 C.3    92  ASP92       0.1436
    106  CG       133.4300  201.0750  422.2870 C.2    92  ASP92       0.3671
    107  OD1      133.6950  200.5270  421.1930 O.co2  92  ASP92      -0.2456
    108  OD2      132.4990  200.7090  423.0330 O.co2  92  ASP92      -0.2456
    109  N        134.0370  200.4150  427.6270 N.3   103  GLU103     -0.1231
    110  CA       133.2550  199.7230  426.6200 C.3   103  GLU103      0.1699
    111  C        131.8520  200.3100  426.6430 C.2   103  GLU103      0.2592
    112  O        131.1550  200.2260  427.6620 O.2   103  GLU103     -0.2718
    113  CB       133.2170  198.2160  426.8930 C.3   103  GLU103      0.0402
    114  CG       132.1120  197.5870  426.0790 C.3   103  GLU103      0.1161
    115  CD       132.4580  197.6570  424.5680 C.2   103  GLU103      0.3649
    116  OE1      131.5650  197.5780  423.7010 O.co2 103  GLU103     -0.2457
    117  OE2      133.6530  197.7940  424.2390 O.co2 103  GLU103     -0.2457
    118  N        131.4490  200.9290  425.5440 N.am  104  ILE104     -0.1980
    119  CA       130.1100  201.5110  425.4450 C.3   104  ILE104      0.1595
    120  C        129.1850  200.4980  424.7960 C.2   104  ILE104      0.2287
    121  O        129.5640  199.8270  423.8240 O.2   104  ILE104     -0.2864
    122  CB       130.1050  202.8360  424.6690 C.3   104  ILE104      0.0276
    123  CG1      130.5350  203.9680  425.5990 C.3   104  ILE104      0.0022
    124  CG2      128.7150  203.1330  424.1270 C.3   104  ILE104      0.0022
    125  CD1      131.1320  205.1120  424.8830 C.3   104  ILE104      0.0001
    126  N        125.0800  199.7670  423.4340 N.3   106  VAL106     -0.1245
    127  CA       123.7640  200.2610  423.0550 C.3   106  VAL106      0.1561
    128  C        122.9170  199.0360  422.7820 C.2   106  VAL106      0.2260
    129  O        123.2780  198.2110  421.9370 O.2   106  VAL106     -0.2867
    130  CB       123.7980  201.1740  421.8160 C.3   106  VAL106      0.0252
    131  CG1      122.3900  201.5700  421.4510 C.3   106  VAL106      0.0019
    132  CG2      124.6490  202.4180  422.0550 C.3   106  VAL106      0.0019
    133  N        118.8110  197.1820  422.5860 N.3   108  ARG108     -0.1245
    134  CA       117.3620  197.2500  422.4590 C.3   108  ARG108      0.1563
    135  C        116.6440  196.3410  423.4420 C.2   108  ARG108      0.2260
    136  O        115.4210  196.2040  423.3550 O.2   108  ARG108     -0.2867
    137  CB       116.9330  196.8970  421.0360 C.3   108  ARG108      0.0307
    138  CG       117.5570  197.7660  419.9590 C.3   108  ARG108      0.0489
    139  CD       117.8540  196.9630  418.6950 C.3   108  ARG108      0.2205
    140  NE       119.2790  196.6760  418.5280 N.pl3 108  ARG108     -0.0865
    141  CZ       119.8140  196.1060  417.4480 C.cat 108  ARG108      0.5346
    142  NH1      119.0470  195.7490  416.4230 N.pl3 108  ARG108      0.1354
    143  NH2      121.1210  195.8890  417.3910 N.pl3 108  ARG108      0.1354
    144  N        122.1690  192.9080  428.8210 N.3   114  TYR114     -0.1241
    145  CA       123.3050  193.2170  427.9650 C.3   114  TYR114      0.1605
    146  C        124.5560  193.4860  428.7910 C.2   114  TYR114      0.2264
    147  O        125.6710  193.1550  428.3670 O.2   114  TYR114     -0.2867
    148  CB       122.9820  194.4130  427.0670 C.3   114  TYR114      0.0534
    149  CG       123.9370  194.5720  425.8960 C.ar  114  TYR114     -0.0201
    150  CD1      124.3930  193.4650  425.1880 C.ar  114  TYR114     -0.0009
    151  CD2      124.3860  195.8120  425.5120 C.ar  114  TYR114     -0.0009
    152  CE1      125.2620  193.5970  424.1150 C.ar  114  TYR114      0.0417
    153  CE2      125.2680  195.9590  424.4380 C.ar  114  TYR114      0.0417
    154  CZ       125.7010  194.8480  423.7500 C.ar  114  TYR114      0.1957
    155  OH       126.5720  194.9950  422.6950 O.3   114  TYR114     -0.2866
    156  N        128.2060  191.5710  428.3490 N.3   118  LYS118     -0.1245
    157  CA       129.4670  192.2890  428.1730 C.3   118  LYS118      0.1561
    158  C        130.3990  192.0770  429.3660 C.2   118  LYS118      0.2260
    159  O        131.6040  191.8730  429.1890 O.2   118  LYS118     -0.2867
    160  CB       129.2220  193.7790  427.9170 C.3   118  LYS118      0.0271
    161  CG       128.8140  194.0590  426.4700 C.3   118  LYS118      0.0035
    162  CD       129.8000  194.9980  425.7830 C.3   118  LYS118      0.0206
    163  CE       129.4990  195.1970  424.2910 C.3   118  LYS118      0.1093
    164  NZ       128.4720  196.2440  424.0680 N.3   118  LYS118     -0.1314
@<TRIPOS>BOND
     1    29    28    2
     2    28    27    1
     3    27    26    1
     4    27    30    1
     5     8     9    2
     6     8     7    1
     7    13    12    1
     8    10    11    1
     9    10     7    1
    10    30    31    1
    11    16    17    2
    12    16    15    1
    13    11    12    1
    14    14    15    1
    15     7     6    1
    16     1     2    1
    17    33    32   ar
    18     6     3   am
    19    15    18    1
    20    31    32    1
    21     3     4    2
    22     3     2    1
    23    32    34   ar
    24     2     5    1
    25    18    19    1
    26    37    36    1
    27    37    38    2
    28    35    36    1
    29    39    36    1
    30    39    40    1
    31    19    20   ar
    32    19    21   ar
    33    20    22   ar
    34    54    53    1
    35    41    42    1
    36    41    40    1
    37    42    43    1
    38    21    23   ar
    39    22    24   ar
    40    53    55    1
    41    53    50    1
    42    23    24   ar
    43    24    25    1
    44    44    45    1
    45    51    50    1
    46    51    52    2
    47    49    50    1
    48    49    46   am
    49    45    46    1
    50    45    48    1
    51    46    47    2
    52    74    72   ar
    53   142   141    1
    54    68    69    2
    55    68    67    1
    56    72    71    1
    57    72    73   ar
    58   143   141    1
    59   141   140    2
    60    56    57    1
    61    71    70    1
    62    67    70    1
    63    67    66    1
    64    92    91    1
    65    58    57    1
    66    58    59    2
    67    60    57    1
    68    60    61    1
    69   140   139    1
    70   139   138    1
    71    62    61   ar
    72    62    64   ar
    73    61    63   ar
    74    91    93    1
    75    91    90    1
    76   138   137    1
    77    64    65   ar
    78    90    87    1
    79    63    65   ar
    80   137   134    1
    81   107   106   ar
    82   131   130    1
    83   130   132    1
    84   130   127    1
    85    97    96    2
    86    87    86    1
    87    87    88    1
    88   129   128    2
    89   104   103    2
    90    86    77   am
    91   106   105    1
    92   106   108   ar
    93    89    88    2
    94   134   133    1
    95   134   135    1
    96   102   105    1
    97   102   103    1
    98   102   101    1
    99    88    94   am
   100   155   154    1
   101   128   127    1
   102    96   101   am
   103    96    95    1
   104   127   126    1
   105    81    83   ar
   106    81    80   ar
   107    83    85   ar
   108   136   135    2
   109    94   100    1
   110    94    95    1
   111    77    76    1
   112    77    78    2
   113    76    79    1
   114    76    75    1
   115   116   115   ar
   116   154   152   ar
   117   154   153   ar
   118   121   120    2
   119   100    99    1
   120    79    80    1
   121    95    98    1
   122   164   163    1
   123   152   150   ar
   124    80    82   ar
   125   124   122    1
   126   117   115   ar
   127   163   162    1
   128   153   151   ar
   129   115   114    1
   130    85    84   ar
   131   122   119    1
   132   122   123    1
   133   120   119    1
   134    99    98    1
   135   125   123    1
   136   150   149   ar
   137    82    84   ar
   138   119   118    1
   139   151   149   ar
   140   118   111   am
   141   162   161    1
   142   149   148    1
   143   114   113    1
   144   161   160    1
   145   110   111    1
   146   110   113    1
   147   110   109    1
   148   111   112    2
   149   148   145    1
   150   160   157    1
   151   145   146    1
   152   145   144    1
   153   157   156    1
   154   157   158    1
   155   147   146    2
   156   159   158    2
