@<TRIPOS>MOLECULE
tmp/5vqaA00.pdb
 158 151 0 0 0
SMALL
GASTEIGER

@<TRIPOS>ATOM
      1  N         34.4970   14.1300    4.5260 N.3    93  LEU93      -0.1245
      2  CA        33.3530   14.0170    5.4320 C.3    93  LEU93       0.1561
      3  C         33.8090   13.8800    6.8760 C.2    93  LEU93       0.2260
      4  O         33.2940   14.5610    7.7700 O.2    93  LEU93      -0.2867
      5  CB        32.4910   12.8170    5.0420 C.3    93  LEU93       0.0270
      6  CG        31.1090   12.6900    5.6790 C.3    93  LEU93       0.0019
      7  CD1       30.4090   14.0220    5.7350 C.3    93  LEU93       0.0001
      8  CD2       30.2630   11.7110    4.8820 C.3    93  LEU93       0.0001
      9  N         34.9300   16.9650    8.4940 N.3    96  SER96      -0.1202
     10  CA        33.8530   17.9390    8.6150 C.3    96  SER96       0.2020
     11  C         33.0490   17.7390    9.8970 C.2    96  SER96       0.2619
     12  O         32.3780   18.6790   10.3470 O.2    96  SER96      -0.2717
     13  CB        32.9240   17.8670    7.4020 C.3    96  SER96       0.2103
     14  OG        32.1310   16.6790    7.4430 O.3    96  SER96      -0.2182
     15  N         33.1100   16.5450   10.4920 N.am   97  LEU97      -0.1965
     16  CA        32.3680   16.2340   11.7070 C.3    97  LEU97       0.1728
     17  C         33.2280   16.5760   12.9260 C.2    97  LEU97       0.2616
     18  O         34.2520   15.9290   13.1900 O.2    97  LEU97      -0.2715
     19  CB        31.9400   14.7690   11.7150 C.3    97  LEU97       0.0311
     20  CG        31.2020   14.3650   10.4450 C.3    97  LEU97       0.0022
     21  CD1       30.9930   12.8630   10.4190 C.3    97  LEU97       0.0001
     22  CD2       29.8850   15.1130   10.3710 C.3    97  LEU97       0.0001
     23  N         32.8100   17.6020   13.6560 N.am   98  VAL98      -0.1963
     24  CA        33.4780   18.0580   14.8680 C.3    98  VAL98       0.1727
     25  C         32.7160   17.5050   16.0620 C.2    98  VAL98       0.2616
     26  O         31.5300   17.8030   16.2410 O.2    98  VAL98      -0.2715
     27  CB        33.5240   19.5920   14.9260 C.3    98  VAL98       0.0290
     28  CG1       34.2180   20.0450   16.1660 C.3    98  VAL98       0.0023
     29  CG2       34.1670   20.1690   13.6660 C.3    98  VAL98       0.0023
     30  N         33.3840   16.7010   16.8810 N.am   99  TYR99      -0.1974
     31  CA        32.7990   16.2210   18.1240 C.3    99  TYR99       0.1639
     32  C         33.6470   16.6860   19.3010 C.2    99  TYR99       0.2290
     33  O         34.7840   17.1380   19.1330 O.2    99  TYR99      -0.2864
     34  CB        32.6310   14.6910   18.1060 C.3    99  TYR99       0.0560
     35  CG        31.5940   14.3050   17.0940 C.ar   99  TYR99      -0.0198
     36  CD1       30.2660   14.6720   17.2820 C.ar   99  TYR99      -0.0009
     37  CD2       31.9410   13.6460   15.9030 C.ar   99  TYR99      -0.0009
     38  CE1       29.3030   14.3750   16.3420 C.ar   99  TYR99       0.0417
     39  CE2       30.9740   13.3340   14.9550 C.ar   99  TYR99       0.0417
     40  CZ        29.6560   13.7060   15.1850 C.ar   99  TYR99       0.1957
     41  OH        28.6780   13.4150   14.2660 O.3    99  TYR99      -0.2866
     42  N         18.2330   13.8100   16.2860 N.3   139  PRO139     -0.2102
     43  CA        18.4570   14.0790   14.8640 C.3   139  PRO139      0.1504
     44  C         19.3760   15.2730   14.6480 C.2   139  PRO139      0.2576
     45  O         19.3950   16.2230   15.4310 O.2   139  PRO139     -0.2718
     46  CB        17.0470   14.3530   14.3300 C.3   139  PRO139      0.0282
     47  CG        16.2240   14.6810   15.5430 C.3   139  PRO139      0.0208
     48  CD        16.8060   13.8750   16.6450 C.3   139  PRO139      0.0893
     49  N         20.1480   15.2130   13.5640 N.am  140  GLY140     -0.1943
     50  CA        21.0310   16.2990   13.1950 C.3   140  GLY140      0.2014
     51  C         22.4100   16.2320   13.7970 C.2   140  GLY140      0.2640
     52  O         23.1760   17.1940   13.6680 O.2   140  GLY140     -0.2714
     53  N         22.7580   15.1250   14.4300 N.am  141  THR141     -0.1936
     54  CA        24.0110   15.0020   15.1490 C.3   141  THR141      0.2028
     55  C         25.1590   14.5450   14.2670 C.2   141  THR141      0.2643
     56  O         26.3080   14.5080   14.7290 O.2   141  THR141     -0.2714
     57  CB        23.8540   14.0050   16.3040 C.3   141  THR141      0.1808
     58  OG1       22.5280   14.0640   16.8140 O.3   141  THR141     -0.2208
     59  CG2       24.7320   14.3860   17.3890 C.3   141  THR141      0.0379
     60  N         24.8900   14.1600   13.0360 N.am  142  GLY142     -0.1939
     61  CA        25.9440   13.6730   12.1790 C.3   142  GLY142      0.2014
     62  C         26.0720   12.1760   12.1440 C.2   142  GLY142      0.2639
     63  O         27.0830   11.6710   11.6450 O.2   142  GLY142     -0.2714
     64  N         25.0720   11.4530   12.6460 N.am  143  LYS143     -0.1963
     65  CA        25.1820   10.0030   12.7570 C.3   143  LYS143      0.1728
     66  C         25.3980    9.3420   11.3900 C.2   143  LYS143      0.2617
     67  O         26.3760    8.6050   11.1990 O.2   143  LYS143     -0.2715
     68  CB        23.9450    9.4500   13.4670 C.3   143  LYS143      0.0311
     69  CG        23.9840    9.6320   14.9880 C.3   143  LYS143      0.0038
     70  CD        22.6200    9.3770   15.6430 C.3   143  LYS143      0.0206
     71  CE        21.6940   10.5380   15.3590 C.3   143  LYS143      0.1093
     72  NZ        20.2990   10.1210   15.0900 N.3   143  LYS143     -0.1314
     73  N         24.5030    9.5940   10.4270 N.am  144  THR144     -0.1937
     74  CA        24.6360    8.9550    9.1170 C.3   144  THR144      0.2028
     75  C         25.9640    9.3140    8.4560 C.2   144  THR144      0.2642
     76  O         26.6910    8.4320    7.9820 O.2   144  THR144     -0.2714
     77  CB        23.4680    9.3480    8.2150 C.3   144  THR144      0.1808
     78  OG1       22.2600    8.8350    8.7700 O.3   144  THR144     -0.2208
     79  CG2       23.6310    8.7520    6.8450 C.3   144  THR144      0.0379
     80  N         26.2980   10.6110    8.4280 N.am  145  SER145     -0.1949
     81  CA        27.6020   11.0570    7.9350 C.3   145  SER145      0.1924
     82  C         28.7320   10.3100    8.6190 C.2   145  SER145      0.2314
     83  O         29.6840    9.8650    7.9650 O.2   145  SER145     -0.2863
     84  CB        27.7830   12.5690    8.1580 C.3   145  SER145      0.2116
     85  OG        26.7500   13.3540    7.5690 O.3   145  SER145     -0.2180
     86  N         19.6760    3.1340    7.9650 N.3   200  ASP200     -0.1225
     87  CA        19.4330    4.4200    8.5840 C.3   200  ASP200      0.1805
     88  C         18.1550    4.3790    9.4060 C.2   200  ASP200      0.2597
     89  O         17.1650    3.7600    9.0080 O.2   200  ASP200     -0.2718
     90  CB        19.3500    5.5070    7.5180 C.3   200  ASP200      0.1424
     91  CG        19.9380    6.8110    7.9890 C.2   200  ASP200      0.3668
     92  OD1       21.0710    6.7800    8.5290 O.co2 200  ASP200     -0.2456
     93  OD2       19.2620    7.8560    7.8380 O.co2 200  ASP200     -0.2456
     94  N         18.1970    5.0200   10.5730 N.am  201  GLN201     -0.1979
     95  CA        17.0250    5.2340   11.4290 C.3   201  GLN201      0.1601
     96  C         16.2440    3.9420   11.6640 C.2   201  GLN201      0.2287
     97  O         15.0710    3.8150   11.3070 O.2   201  GLN201     -0.2864
     98  CB        16.1100    6.3110   10.8430 C.3   201  GLN201      0.0394
     99  CG        16.7320    7.6880   10.7800 C.3   201  GLN201      0.0908
    100  CD        16.3030    8.4500    9.5450 C.2   201  GLN201      0.2608
    101  OE1       16.1570    9.6740    9.5730 O.2   201  GLN201     -0.2717
    102  NE2       16.0960    7.7270    8.4480 N.am  201  GLN201     -0.0878
    103  N         21.8630    3.4760   12.7050 N.3   236  THR236     -0.1218
    104  CA        21.6780    4.7170   13.4410 C.3   236  THR236      0.1862
    105  C         20.2630    4.7760   13.9810 C.2   236  THR236      0.2287
    106  O         19.3490    4.1440   13.4490 O.2   236  THR236     -0.2866
    107  CB        21.9580    5.9650   12.5780 C.3   236  THR236      0.1770
    108  OG1       20.9720    6.0900   11.5430 O.3   236  THR236     -0.2211
    109  CG2       23.3420    5.8720   11.9640 C.3   236  THR236      0.0375
    110  N         17.5530    7.8090   15.8710 N.3   238  ASN238     -0.1240
    111  CA        17.2750    9.1570   16.3540 C.3   238  ASN238      0.1653
    112  C         16.5550    9.1800   17.6930 C.2   238  ASN238      0.2266
    113  O         16.3410   10.2670   18.2480 O.2   238  ASN238     -0.2867
    114  CB        16.4240    9.9280   15.3530 C.3   238  ASN238      0.1155
    115  CG        17.1680   10.2590   14.1010 C.2   238  ASN238      0.2627
    116  OD1       18.3750   10.0720   14.0190 O.2   238  ASN238     -0.2716
    117  ND2       16.4510   10.7680   13.1120 N.am  238  ASN238     -0.0877
    118  N         26.4840   19.6070   19.3250 N.3   260  PRO260     -0.2116
    119  CA        27.7920   20.2070   19.6040 C.3   260  PRO260      0.1372
    120  C         27.7460   21.1230   20.8180 C.2   260  PRO260      0.2244
    121  O         26.7990   21.8900   21.0110 O.2   260  PRO260     -0.2868
    122  CB        28.0980   21.0070   18.3330 C.3   260  PRO260      0.0268
    123  CG        27.0230   20.6680   17.3760 C.3   260  PRO260      0.0207
    124  CD        25.8520   20.2270   18.1570 C.3   260  PRO260      0.0892
    125  N         33.3920   24.5840   14.4600 N.3   268  ILE268     -0.1245
    126  CA        32.5510   24.3490   13.2900 C.3   268  ILE268      0.1561
    127  C         32.4200   25.6300   12.4680 C.2   268  ILE268      0.2260
    128  O         32.7070   25.6520   11.2630 O.2   268  ILE268     -0.2867
    129  CB        31.1850   23.7900   13.7220 C.3   268  ILE268      0.0252
    130  CG1       31.3310   22.3190   14.0940 C.3   268  ILE268      0.0019
    131  CG2       30.1670   23.9140   12.6020 C.3   268  ILE268      0.0019
    132  CD1       30.0570   21.6810   14.6050 C.3   268  ILE268      0.0001
    133  N         24.3220   20.1240   14.5680 N.3   323  GLY323     -0.1210
    134  CA        25.3400   20.4130   13.5820 C.3   323  GLY323      0.1956
    135  C         24.7670   20.6350   12.1960 C.2   323  GLY323      0.2611
    136  O         25.3110   21.4230   11.4180 O.2   323  GLY323     -0.2717
    137  N         23.6720   19.9440   11.8660 N.am  324  ARG324     -0.1979
    138  CA        23.0010   20.1860   10.5940 C.3   324  ARG324      0.1597
    139  C         22.6080   21.6490   10.4650 C.2   324  ARG324      0.2287
    140  O         22.9590   22.3140    9.4850 O.2   324  ARG324     -0.2864
    141  CB        21.7890   19.2630   10.4690 C.3   324  ARG324      0.0334
    142  CG        20.7800   19.6720    9.4260 C.3   324  ARG324      0.0492
    143  CD        19.6540   18.6660    9.3470 C.3   324  ARG324      0.2205
    144  NE        20.0840   17.4910    8.6030 N.pl3 324  ARG324     -0.0865
    145  CZ        19.8500   17.3060    7.3060 C.cat 324  ARG324      0.5346
    146  NH1       19.1650   18.2130    6.6180 N.pl3 324  ARG324      0.1354
    147  NH2       20.2850   16.2090    6.6960 N.pl3 324  ARG324      0.1354
    148  N         25.8970   23.9890   10.1330 N.3   327  ARG327     -0.1245
    149  CA        26.5240   24.1460    8.8180 C.3   327  ARG327      0.1563
    150  C         25.5800   24.7430    7.7710 C.2   327  ARG327      0.2260
    151  O         26.0190   25.0780    6.6680 O.2   327  ARG327     -0.2867
    152  CB        27.0800   22.8110    8.3200 C.3   327  ARG327      0.0307
    153  CG        28.2840   22.3210    9.1400 C.3   327  ARG327      0.0489
    154  CD        29.1510   21.3060    8.3960 C.3   327  ARG327      0.2205
    155  NE        30.4070   20.9960    9.0880 N.pl3 327  ARG327     -0.0865
    156  CZ        31.4360   21.8370    9.2000 C.cat 327  ARG327      0.5346
    157  NH1       31.3720   23.0740    8.6920 N.pl3 327  ARG327      0.1354
    158  NH2       32.5280   21.4470    9.8470 N.pl3 327  ARG327      0.1354
@<TRIPOS>BOND
     1     1     2    1
     2     8     6    1
     3     5     2    1
     4     5     6    1
     5     2     3    1
     6     6     7    1
     7   146   145    1
     8   151   150    2
     9   147   145    1
    10    79    77    1
    11     3     4    2
    12   145   144    2
    13    13    14    1
    14    13    10    1
    15    90    91    1
    16    90    87    1
    17    85    84    1
    18   150   149    1
    19    93    91   ar
    20    81    84    1
    21    81    80    1
    22    81    82    1
    23    86    87    1
    24    83    82    2
    25    76    75    2
    26    91    92   ar
    27    77    78    1
    28    77    74    1
    29   152   149    1
    30   152   153    1
    31   154   155    1
    32   154   153    1
    33    80    75   am
    34   102   100   am
    35    75    74    1
    36     9    10    1
    37    87    88    1
    38   144   143    1
    39    10    11    1
    40   157   156    1
    41   149   148    1
    42    89    88    2
    43   155   156    2
    44    74    73    1
    45   156   158    1
    46   143   142    1
    47    88    94   am
    48   142   141    1
    49   140   139    2
    50   100   101    2
    51   100    99    1
    52    11    12    2
    53    11    15   am
    54    22    20    1
    55    21    20    1
    56    73    66   am
    57    20    19    1
    58   139   138    1
    59   141   138    1
    60    15    16    1
    61    94    95    1
    62   138   137    1
    63    99    98    1
    64    98    95    1
    65    67    66    2
    66   128   127    2
    67    97    96    2
    68    66    65    1
    69   136   135    2
    70    95    96    1
    71   108   107    1
    72    63    62    2
    73    16    19    1
    74    16    17    1
    75   137   135   am
    76   109   107    1
    77    62    61    1
    78    62    64   am
    79    61    60    1
    80   135   134    1
    81   127   126    1
    82   107   104    1
    83   131   129    1
    84    64    65    1
    85   103   104    1
    86    65    68    1
    87    17    18    2
    88    17    23   am
    89    60    55   am
    90   117   115   am
    91    50    49    1
    92    50    51    1
    93   126   129    1
    94   126   125    1
    95   104   105    1
    96   106   105    2
    97    68    69    1
    98    49    44   am
    99   134   133    1
   100    23    24    1
   101    29    27    1
   102    52    51    2
   103   129   130    1
   104    51    53   am
   105   116   115    2
   106   130   132    1
   107   115   114    1
   108    41    40    1
   109    55    56    2
   110    55    54    1
   111    46    43    1
   112    46    47    1
   113    53    54    1
   114    44    43    1
   115    44    45    2
   116    43    42    1
   117    24    27    1
   118    24    25    1
   119    27    28    1
   120    39    40   ar
   121    39    37   ar
   122    69    70    1
   123    72    71    1
   124    54    57    1
   125    40    38   ar
   126   114   111    1
   127    71    70    1
   128    47    48    1
   129   110   111    1
   130    37    35   ar
   131    25    26    2
   132    25    30   am
   133    42    48    1
   134    57    58    1
   135    57    59    1
   136    38    36   ar
   137   111   112    1
   138    30    31    1
   139    35    36   ar
   140    35    34    1
   141   123   124    1
   142   123   122    1
   143   112   113    2
   144    34    31    1
   145    31    32    1
   146   124   118    1
   147   122   119    1
   148    33    32    2
   149   118   119    1
   150   119   120    1
   151   120   121    2
