@<TRIPOS>MOLECULE
tmp/5vqeA00.pdb
 124 118 0 0 0
SMALL
GASTEIGER

@<TRIPOS>ATOM
      1  N         45.8410   71.6590   70.4180 N.3    63  MET63      -0.1245
      2  CA        46.7320   71.4370   69.2840 C.3    63  MET63       0.1570
      3  C         47.0170   72.7710   68.6090 C.2    63  MET63       0.2261
      4  O         46.0910   73.5410   68.3380 O.2    63  MET63      -0.2867
      5  CB        46.1360   70.4720   68.2530 C.3    63  MET63       0.0387
      6  CG        47.1830   70.0170   67.2160 C.3    63  MET63       0.0595
      7  SD        46.5630   69.4560   65.6140 S.3    63  MET63      -0.1393
      8  CE        46.1220   71.0220   64.8710 C.3    63  MET63       0.0692
      9  N         50.7440   68.5040   64.6300 N.3    92  ASN92      -0.1240
     10  CA        50.9150   67.6100   63.4820 C.3    92  ASN92       0.1653
     11  C         52.3320   67.7710   62.9210 C.2    92  ASN92       0.2266
     12  O         52.5440   68.2700   61.8140 O.2    92  ASN92      -0.2867
     13  CB        49.8900   67.9080   62.3870 C.3    92  ASN92       0.1155
     14  CG        48.4810   67.4670   62.7400 C.2    92  ASN92       0.2627
     15  OD1       47.5170   68.2530   62.6680 O.2    92  ASN92      -0.2716
     16  ND2       48.3410   66.2040   63.0720 N.am   92  ASN92      -0.0877
     17  N         51.0560   64.1250   66.7690 N.3   145  TYR145     -0.1241
     18  CA        50.0270   63.2740   66.1860 C.3   145  TYR145      0.1605
     19  C         50.6250   62.4590   65.0430 C.2   145  TYR145      0.2264
     20  O         50.1490   62.5270   63.9080 O.2   145  TYR145     -0.2867
     21  CB        48.8570   64.1210   65.6780 C.3   145  TYR145      0.0534
     22  CG        47.9200   64.6900   66.7190 C.ar  145  TYR145     -0.0201
     23  CD1       47.6870   64.0420   67.9270 C.ar  145  TYR145     -0.0009
     24  CD2       47.2220   65.8660   66.4620 C.ar  145  TYR145     -0.0009
     25  CE1       46.7970   64.5580   68.8520 C.ar  145  TYR145      0.0417
     26  CE2       46.3300   66.3830   67.3780 C.ar  145  TYR145      0.0417
     27  CZ        46.1160   65.7300   68.5660 C.ar  145  TYR145      0.1957
     28  OH        45.2180   66.2690   69.4660 O.3   145  TYR145     -0.2866
     29  N         52.3060   61.0880   52.6990 N.3   163  ARG163     -0.1245
     30  CA        52.2360   61.1010   54.1560 C.3   163  ARG163      0.1563
     31  C         52.5610   59.7430   54.7600 C.2   163  ARG163      0.2260
     32  O         52.7590   59.6560   55.9800 O.2   163  ARG163     -0.2867
     33  CB        50.8490   61.5520   54.6210 C.3   163  ARG163      0.0307
     34  CG        50.4920   62.9900   54.2400 C.3   163  ARG163      0.0489
     35  CD        49.0530   63.3010   54.6150 C.3   163  ARG163      0.2205
     36  NE        48.8790   63.5490   56.0420 N.pl3 163  ARG163     -0.0865
     37  CZ        47.7270   63.4100   56.6910 C.cat 163  ARG163      0.5346
     38  NH1       46.6360   63.0070   56.0440 N.pl3 163  ARG163      0.1354
     39  NH2       47.6660   63.6580   57.9900 N.pl3 163  ARG163      0.1354
     40  N         48.3900   56.5380   63.6650 N.3   193  LYS193     -0.1231
     41  CA        47.1710   56.9090   62.9510 C.3   193  LYS193      0.1693
     42  C         47.3000   56.4060   61.5190 C.2   193  LYS193      0.2592
     43  O         48.4080   56.1280   61.0560 O.2   193  LYS193     -0.2718
     44  CB        46.9440   58.4320   63.0000 C.3   193  LYS193      0.0285
     45  CG        47.9780   59.2730   62.2430 C.3   193  LYS193      0.0035
     46  CD        47.7570   60.7690   62.4860 C.3   193  LYS193      0.0206
     47  CE        48.5780   61.6310   61.5450 C.3   193  LYS193      0.1093
     48  NZ        48.5200   63.0930   61.8720 N.3   193  LYS193     -0.1314
     49  N         46.1810   56.2720   60.7960 N.am  194  HIS194     -0.1976
     50  CA        44.8050   56.5680   61.2010 C.3   194  HIS194      0.1656
     51  C         44.0100   55.2590   61.3430 C.2   194  HIS194      0.2291
     52  O         43.7390   54.5910   60.3540 O.2   194  HIS194     -0.2864
     53  CB        44.1200   57.4540   60.1550 C.3   194  HIS194      0.0771
     54  CG        44.8430   58.7360   59.8630 C.ar  194  HIS194      0.0820
     55  ND1       45.8270   58.8340   58.9000 N.ar  194  HIS194     -0.2267
     56  CD2       44.7090   59.9770   60.3890 C.ar  194  HIS194      0.1154
     57  CE1       46.2760   60.0780   58.8540 C.ar  194  HIS194      0.1986
     58  NE2       45.6110   60.7940   59.7430 N.ar  194  HIS194     -0.2212
     59  N         38.4890   60.8990   54.1490 N.3   205  GLN205     -0.1231
     60  CA        37.6060   60.9240   55.3140 C.3   205  GLN205      0.1698
     61  C         37.2730   62.3380   55.7720 C.2   205  GLN205      0.2592
     62  O         36.3470   62.5120   56.5840 O.2   205  GLN205     -0.2718
     63  CB        38.2210   60.1400   56.4790 C.3   205  GLN205      0.0381
     64  CG        39.6990   60.4250   56.7320 C.3   205  GLN205      0.0905
     65  CD        40.0950   60.2780   58.1860 C.2   205  GLN205      0.2608
     66  OE1       39.2440   60.1750   59.0830 O.2   205  GLN205     -0.2717
     67  NE2       41.4040   60.2620   58.4310 N.am  205  GLN205     -0.0878
     68  N         38.0110   63.3410   55.2860 N.am  206  HIS206     -0.1976
     69  CA        37.6200   64.7310   55.4880 C.3   206  HIS206      0.1656
     70  C         36.2690   65.0280   54.8470 C.2   206  HIS206      0.2291
     71  O         35.5550   65.9280   55.3030 O.2   206  HIS206     -0.2864
     72  CB        38.6800   65.6770   54.9110 C.3   206  HIS206      0.0771
     73  CG        39.9970   65.6350   55.6260 C.ar  206  HIS206      0.0820
     74  ND1       40.9140   64.6220   55.4470 N.ar  206  HIS206     -0.2267
     75  CD2       40.5620   66.5010   56.5000 C.ar  206  HIS206      0.1154
     76  CE1       41.9750   64.8520   56.2020 C.ar  206  HIS206      0.1986
     77  NE2       41.7830   65.9820   56.8570 N.ar  206  HIS206     -0.2212
     78  N         45.1780   57.2810   67.2700 N.3   239  MET239     -0.1245
     79  CA        44.1140   58.1380   66.7590 C.3   239  MET239      0.1570
     80  C         43.1220   57.2910   65.9740 C.2   239  MET239      0.2261
     81  O         43.4760   56.6890   64.9520 O.2   239  MET239     -0.2867
     82  CB        44.6690   59.2650   65.8900 C.3   239  MET239      0.0387
     83  CG        43.5900   60.2300   65.4140 C.3   239  MET239      0.0595
     84  SD        44.2240   61.6440   64.5020 S.3   239  MET239     -0.1393
     85  CE        44.9240   62.6160   65.8120 C.3   239  MET239      0.0692
     86  N         40.1340   61.3370   65.5230 N.3   288  ASP288     -0.1225
     87  CA        40.4940   62.3460   64.5490 C.3   288  ASP288      0.1805
     88  C         39.5180   63.5100   64.6780 C.2   288  ASP288      0.2597
     89  O         38.4590   63.3900   65.3030 O.2   288  ASP288     -0.2718
     90  CB        40.4750   61.7560   63.1420 C.3   288  ASP288      0.1424
     91  CG        41.1150   62.6670   62.1190 C.2   288  ASP288      0.3668
     92  OD1       42.0250   63.4630   62.4940 O.co2 288  ASP288     -0.2456
     93  OD2       40.6910   62.5550   60.9580 O.co2 288  ASP288     -0.2456
     94  N         39.8960   64.6490   64.0970 N.am  289  ALA289     -0.1979
     95  CA        39.1370   65.8910   64.2500 C.3   289  ALA289      0.1597
     96  C         37.6470   65.6810   63.9950 C.2   289  ALA289      0.2287
     97  O         37.2500   65.1720   62.9400 O.2   289  ALA289     -0.2864
     98  CB        39.6950   66.9490   63.2910 C.3   289  ALA289      0.0319
     99  N         35.0660   66.9330   60.8930 N.3   292  MET292     -0.1245
    100  CA        35.1910   66.4390   59.5420 C.3   292  MET292      0.1570
    101  C         33.9720   65.6250   59.1460 C.2   292  MET292      0.2261
    102  O         33.2900   65.0250   59.9830 O.2   292  MET292     -0.2867
    103  CB        36.4620   65.6310   59.4220 C.3   292  MET292      0.0387
    104  CG        37.6220   66.5690   59.5320 C.3   292  MET292      0.0595
    105  SD        39.1080   65.8240   58.9980 S.3   292  MET292     -0.1393
    106  CE        39.2320   64.6300   60.2580 C.3   292  MET292      0.0692
    107  N         38.8630   65.0980   69.6280 N.3   317  THR317     -0.1203
    108  CA        39.7960   66.0580   69.0410 C.3   317  THR317      0.1994
    109  C         38.9940   67.1440   68.3270 C.2   317  THR317      0.2617
    110  O         38.4710   66.9360   67.2290 O.2   317  THR317     -0.2717
    111  CB        40.7690   65.3470   68.1110 C.3   317  THR317      0.1784
    112  OG1       41.4520   64.3380   68.8650 O.3   317  THR317     -0.2211
    113  CG2       41.7900   66.3200   67.5310 C.3   317  THR317      0.0376
    114  N         38.8760   68.2930   68.9880 N.am  318  PHE318     -0.1975
    115  CA        38.3120   69.5210   68.4360 C.3   318  PHE318      0.1639
    116  C         36.8010   69.5470   68.5720 C.2   318  PHE318      0.2290
    117  O         36.1480   68.4980   68.6070 O.2   318  PHE318     -0.2864
    118  CB        38.6740   69.7310   66.9610 C.3   318  PHE318      0.0560
    119  CG        40.1430   69.6960   66.6800 C.ar  318  PHE318     -0.0200
    120  CD1       41.0670   69.8380   67.7050 C.ar  318  PHE318     -0.0042
    121  CD2       40.6030   69.5260   65.3810 C.ar  318  PHE318     -0.0042
    122  CE1       42.4300   69.8010   67.4360 C.ar  318  PHE318     -0.0003
    123  CE2       41.9630   69.4870   65.1100 C.ar  318  PHE318     -0.0003
    124  CZ        42.8730   69.6340   66.1340 C.ar  318  PHE318     -0.0000
@<TRIPOS>BOND
     1    29    30    1
     2    59    60    1
     3    30    33    1
     4    30    31    1
     5    34    35    1
     6    34    33    1
     7    35    36    1
     8    31    32    2
     9    70    71    2
    10    70    69    1
    11    72    69    1
    12    72    73    1
    13    68    69    1
    14    68    61   am
    15    60    61    1
    16    60    63    1
    17    74    73   ar
    18    74    76   ar
    19    73    75   ar
    20    61    62    2
    21    36    37    2
    22    38    37    1
    23    76    77   ar
    24    63    64    1
    25    75    77   ar
    26    37    39    1
    27    64    65    1
    28    65    67   am
    29    65    66    2
    30    57    55   ar
    31    57    58   ar
    32    55    54   ar
    33   105   104    1
    34   105   106    1
    35   101   100    1
    36   101   102    2
    37   103   104    1
    38   103   100    1
    39   100    99    1
    40    58    56   ar
    41    54    53    1
    42    54    56   ar
    43    53    50    1
    44    52    51    2
    45    49    50    1
    46    49    42   am
    47    93    91   ar
    48    43    42    2
    49    50    51    1
    50    42    41    1
    51    47    48    1
    52    47    46    1
    53    12    11    2
    54    91    92   ar
    55    91    90    1
    56    45    46    1
    57    45    44    1
    58    13    14    1
    59    13    10    1
    60    15    14    2
    61    14    16   am
    62    11    10    1
    63    97    96    2
    64    41    44    1
    65    41    40    1
    66    90    87    1
    67    98    95    1
    68    10     9    1
    69    20    19    2
    70    96    95    1
    71    94    95    1
    72    94    88   am
    73    84    83    1
    74    84    85    1
    75    87    88    1
    76    87    86    1
    77    88    89    2
    78     8     7    1
    79    81    80    2
    80    19    18    1
    81   123   121   ar
    82   123   124   ar
    83   121   119   ar
    84    83    82    1
    85     7     6    1
    86    21    18    1
    87    21    22    1
    88    82    79    1
    89    80    79    1
    90   124   122   ar
    91    18    17    1
    92    24    22   ar
    93    24    26   ar
    94   119   118    1
    95   119   120   ar
    96    22    23   ar
    97    79    78    1
    98   118   115    1
    99     6     5    1
   100   110   109    2
   101    26    27   ar
   102   122   120   ar
   103   113   111    1
   104    23    25   ar
   105   111   112    1
   106   111   108    1
   107     5     2    1
   108   109   114   am
   109   109   108    1
   110     4     3    2
   111   115   116    1
   112   115   114    1
   113    27    25   ar
   114    27    28    1
   115   116   117    2
   116     3     2    1
   117   108   107    1
   118     2     1    1
