@<TRIPOS>MOLECULE
tmp/5vqhA00.pdb
 114 111 0 0 0
SMALL
GASTEIGER

@<TRIPOS>ATOM
      1  N          5.3730   56.2750   37.4640 N.3    17  SER17      -0.1202
      2  CA         4.9460   57.0830   36.3420 C.3    17  SER17       0.2020
      3  C          3.4660   57.3090   36.3820 C.2    17  SER17       0.2618
      4  O          2.9940   58.3270   35.9360 O.2    17  SER17      -0.2717
      5  CB         5.3750   56.4480   35.0080 C.3    17  SER17       0.2103
      6  OG         5.0750   55.0770   34.9210 O.3    17  SER17      -0.2182
      7  N          2.7320   56.3480   36.9370 N.am   18  ALA18      -0.1979
      8  CA         1.3130   56.5240   37.1850 C.3    18  ALA18       0.1597
      9  C          0.9000   55.6560   38.3290 C.2    18  ALA18       0.2287
     10  O          1.5350   54.6240   38.6050 O.2    18  ALA18      -0.2864
     11  CB         0.5140   56.1580   35.9500 C.3    18  ALA18       0.0319
     12  N         -2.6660   63.4230   25.0130 N.3    72  PHE72      -0.1241
     13  CA        -2.9380   63.3840   26.4360 C.3    72  PHE72       0.1605
     14  C         -3.5360   64.7390   26.7860 C.2    72  PHE72       0.2264
     15  O         -2.9230   65.7650   26.5370 O.2    72  PHE72      -0.2867
     16  CB        -1.6330   63.2010   27.1540 C.3    72  PHE72       0.0534
     17  CG        -1.7260   63.1410   28.6420 C.ar   72  PHE72      -0.0203
     18  CD1       -2.6010   62.2790   29.2750 C.ar   72  PHE72      -0.0042
     19  CD2       -0.8370   63.8800   29.4250 C.ar   72  PHE72      -0.0042
     20  CE1       -2.6260   62.1680   30.6700 C.ar   72  PHE72      -0.0003
     21  CE2       -0.8630   63.7770   30.8080 C.ar   72  PHE72      -0.0003
     22  CZ        -1.7650   62.9070   31.4360 C.ar   72  PHE72      -0.0000
     23  N         -4.0020   66.5950   29.3870 N.3    74  HIS74      -0.1226
     24  CA        -3.3240   67.5440   30.2810 C.3    74  HIS74       0.1752
     25  C         -2.0960   68.2630   29.7410 C.2    74  HIS74       0.2596
     26  O         -1.7160   69.2570   30.3330 O.2    74  HIS74      -0.2718
     27  CB        -2.9670   66.8960   31.6130 C.3    74  HIS74       0.0759
     28  CG        -4.1610   66.4330   32.3780 C.ar   74  HIS74       0.0818
     29  ND1       -4.1910   65.2360   33.0610 N.ar   74  HIS74      -0.2268
     30  CD2       -5.3830   66.9940   32.5440 C.ar   74  HIS74       0.1154
     31  CE1       -5.3720   65.0870   33.6350 C.ar   74  HIS74       0.1986
     32  NE2       -6.1160   66.1370   33.3310 N.ar   74  HIS74      -0.2212
     33  N         -1.4700   67.7990   28.6580 N.am   75  ASP75      -0.1974
     34  CA        -0.3790   68.5820   28.0450 C.3    75  ASP75       0.1709
     35  C         -0.4790   68.8030   26.5420 C.2    75  ASP75       0.2293
     36  O          0.3580   69.5000   25.9590 O.2    75  ASP75      -0.2864
     37  CB         0.9920   67.9930   28.3760 C.3    75  ASP75       0.1436
     38  CG         1.2120   66.5990   27.8000 C.2    75  ASP75       0.3671
     39  OD1        2.2790   66.0330   28.0920 O.co2  75  ASP75      -0.2456
     40  OD2        0.3510   66.0640   27.0620 O.co2  75  ASP75      -0.2456
     41  N          0.2580   66.7650   24.2000 N.3    77  ARG77      -0.1245
     42  CA         1.2900   66.0440   23.4270 C.3    77  ARG77       0.1563
     43  C          0.8310   64.6240   23.0090 C.2    77  ARG77       0.2260
     44  O         -0.1430   64.0740   23.5570 O.2    77  ARG77      -0.2867
     45  CB         2.5950   65.9640   24.2380 C.3    77  ARG77       0.0307
     46  CG         3.1660   67.3100   24.6830 C.3    77  ARG77       0.0489
     47  CD         4.4970   67.1350   25.3850 C.3    77  ARG77       0.2205
     48  NE         5.0390   68.3770   25.9620 N.pl3  77  ARG77      -0.0865
     49  CZ         4.8860   68.7770   27.2320 C.cat  77  ARG77       0.5346
     50  NH1        4.1680   68.0730   28.1060 N.pl3  77  ARG77       0.1354
     51  NH2        5.4530   69.9080   27.6420 N.pl3  77  ARG77       0.1354
     52  N          1.1240   60.5150   22.3050 N.3    79  TYR79      -0.1241
     53  CA         1.6170   59.3510   23.0320 C.3    79  TYR79       0.1605
     54  C          1.1220   58.0540   22.3740 C.2    79  TYR79       0.2264
     55  O          0.1750   58.0270   21.5740 O.2    79  TYR79      -0.2867
     56  CB         1.1850   59.4440   24.5020 C.3    79  TYR79       0.0534
     57  CG         1.7620   60.6440   25.2090 C.ar   79  TYR79      -0.0201
     58  CD1        3.0390   60.6060   25.7150 C.ar   79  TYR79      -0.0009
     59  CD2        1.0460   61.8320   25.3500 C.ar   79  TYR79      -0.0009
     60  CE1        3.5990   61.7020   26.3500 C.ar   79  TYR79       0.0417
     61  CE2        1.6010   62.9440   25.9780 C.ar   79  TYR79       0.0417
     62  CZ         2.8890   62.8630   26.4880 C.ar   79  TYR79       0.1957
     63  OH         3.5280   63.9170   27.1340 O.3    79  TYR79      -0.2866
     64  N         -2.1170   54.7650   28.1870 N.3   102  TYR102     -0.1241
     65  CA        -0.8540   55.3510   27.7400 C.3   102  TYR102      0.1605
     66  C          0.3020   54.4220   28.1130 C.2   102  TYR102      0.2264
     67  O          0.6970   54.2940   29.2820 O.2   102  TYR102     -0.2867
     68  CB        -0.6930   56.7330   28.3350 C.3   102  TYR102      0.0534
     69  CG        -1.7280   57.7000   27.7930 C.ar  102  TYR102     -0.0201
     70  CD1       -1.5500   58.3130   26.5650 C.ar  102  TYR102     -0.0009
     71  CD2       -2.8750   57.9590   28.4830 C.ar  102  TYR102     -0.0009
     72  CE1       -2.4800   59.1770   26.0550 C.ar  102  TYR102      0.0417
     73  CE2       -3.8330   58.8160   27.9840 C.ar  102  TYR102      0.0417
     74  CZ        -3.6320   59.4180   26.7740 C.ar  102  TYR102      0.1957
     75  OH        -4.5930   60.2700   26.2930 O.3   102  TYR102     -0.2866
     76  N          3.5840   55.0930   30.2830 N.3   105  TYR105     -0.1241
     77  CA         3.3150   55.8640   31.4780 C.3   105  TYR105      0.1605
     78  C          2.3940   55.1340   32.4260 C.2   105  TYR105      0.2264
     79  O          2.6870   55.0710   33.6060 O.2   105  TYR105     -0.2867
     80  CB         2.7120   57.2130   31.0870 C.3   105  TYR105      0.0534
     81  CG         3.7230   58.1110   30.4210 C.ar  105  TYR105     -0.0201
     82  CD1        4.6590   58.8200   31.1640 C.ar  105  TYR105     -0.0009
     83  CD2        3.7900   58.2030   29.0550 C.ar  105  TYR105     -0.0009
     84  CE1        5.5940   59.6420   30.5400 C.ar  105  TYR105      0.0417
     85  CE2        4.7060   59.0120   28.4310 C.ar  105  TYR105      0.0417
     86  CZ         5.6180   59.7190   29.1630 C.ar  105  TYR105      0.1957
     87  OH         6.5530   60.5070   28.4960 O.3   105  TYR105     -0.2866
     88  N         -1.0750   55.5820   32.8210 N.3   107  ASP107     -0.1239
     89  CA        -2.3720   56.1580   33.0600 C.3   107  ASP107      0.1674
     90  C         -3.3440   55.9200   31.9190 C.2   107  ASP107      0.2266
     91  O         -2.9660   55.5420   30.8060 O.2   107  ASP107     -0.2867
     92  CB        -2.2770   57.6420   33.3960 C.3   107  ASP107      0.1410
     93  CG        -1.4170   58.4480   32.4300 C.2   107  ASP107      0.3668
     94  OD1       -1.6300   59.6640   32.4020 O.co2 107  ASP107     -0.2456
     95  OD2       -0.5310   57.9260   31.7470 O.co2 107  ASP107     -0.2456
     96  N          4.8110   60.8310   38.6490 N.3   160  ALA160     -0.1245
     97  CA         4.9110   61.7230   37.4860 C.3   160  ALA160      0.1562
     98  C          5.8380   62.9250   37.6240 C.2   160  ALA160      0.2260
     99  O          5.7400   63.8460   36.8290 O.2   160  ALA160     -0.2867
    100  CB         3.5060   62.1700   37.0270 C.3   160  ALA160      0.0290
    101  N          9.3220   62.5110   37.8880 N.3   162  TRP162     -0.1241
    102  CA        10.6710   61.9840   37.6980 C.3   162  TRP162      0.1605
    103  C         11.5430   61.9920   38.9810 C.2   162  TRP162      0.2264
    104  O         12.6660   62.4850   38.9890 O.2   162  TRP162     -0.2867
    105  CB        11.3520   62.7230   36.5540 C.3   162  TRP162      0.0550
    106  CG        10.4660   62.8000   35.3910 C.ar  162  TRP162      0.0003
    107  CD1        9.6240   63.8360   35.0590 C.ar  162  TRP162      0.0946
    108  CD2       10.2610   61.7900   34.4050 C.ar  162  TRP162      0.0152
    109  NE1        8.9330   63.5340   33.9170 N.ar  162  TRP162     -0.2442
    110  CE2        9.2960   62.2770   33.5010 C.ar  162  TRP162      0.0810
    111  CE3       10.8030   60.5180   34.1900 C.ar  162  TRP162      0.0012
    112  CZ2        8.8670   61.5290   32.3850 C.ar  162  TRP162      0.0191
    113  CZ3       10.3700   59.7730   33.0870 C.ar  162  TRP162      0.0001
    114  CH2        9.4200   60.2820   32.1960 C.ar  162  TRP162      0.0015
@<TRIPOS>BOND
     1    55    54    2
     2    52    53    1
     3    54    53    1
     4    43    42    1
     5    43    44    2
     6    53    56    1
     7    42    41    1
     8    42    45    1
     9    45    46    1
    10    56    57    1
    11    46    47    1
    12    12    13    1
    13    57    59   ar
    14    57    58   ar
    15    59    61   ar
    16    47    48    1
    17    58    60   ar
    18    36    35    2
    19    48    49    2
    20    61    62   ar
    21    72    70   ar
    22    72    74   ar
    23    75    74    1
    24    60    62   ar
    25    13    14    1
    26    13    16    1
    27    62    63    1
    28    15    14    2
    29    35    34    1
    30    70    69   ar
    31    74    73   ar
    32    40    38   ar
    33    16    17    1
    34    49    51    1
    35    49    50    1
    36    65    66    1
    37    65    64    1
    38    65    68    1
    39    69    68    1
    40    69    71   ar
    41    38    39   ar
    42    38    37    1
    43    73    71   ar
    44    34    37    1
    45    34    33    1
    46    66    67    2
    47    85    83   ar
    48    85    86   ar
    49    87    86    1
    50    17    18   ar
    51    17    19   ar
    52    33    25   am
    53    83    81   ar
    54    86    84   ar
    55    18    20   ar
    56    23    24    1
    57    19    21   ar
    58    25    24    1
    59    25    26    2
    60    24    27    1
    61    76    77    1
    62    81    80    1
    63    81    82   ar
    64    84    82   ar
    65    20    22   ar
    66    91    90    2
    67    21    22   ar
    68    80    77    1
    69    77    78    1
    70    27    28    1
    71    95    93   ar
    72    90    89    1
    73   114   112   ar
    74   114   113   ar
    75    28    30   ar
    76    28    29   ar
    77   112   110   ar
    78    94    93   ar
    79    78    79    2
    80    93    92    1
    81    30    32   ar
    82    88    89    1
    83    89    92    1
    84    29    31   ar
    85   113   111   ar
    86    32    31   ar
    87   110   109   ar
    88   110   108   ar
    89   109   107   ar
    90   111   108   ar
    91   108   106   ar
    92     6     5    1
    93     5     2    1
    94   107   106   ar
    95   106   105    1
    96     4     3    2
    97    11     8    1
    98     2     3    1
    99     2     1    1
   100     3     7   am
   101   105   102    1
   102    99    98    2
   103     7     8    1
   104   100    97    1
   105     8     9    1
   106    97    98    1
   107    97    96    1
   108   102   101    1
   109   102   103    1
   110     9    10    2
   111   103   104    2
