@<TRIPOS>MOLECULE
tmp/5vqkA00.pdb
 240 231 0 0 0
SMALL
GASTEIGER

@<TRIPOS>ATOM
      1  N          7.6590   21.0850   16.1650 N.3    21  CYS21      -0.1221
      2  CA         6.9760   22.2430   16.7520 C.3    21  CYS21       0.1808
      3  C          6.1280   23.0290   15.7360 C.2    21  CYS21       0.2601
      4  O          5.4760   24.0040   16.1230 O.2    21  CYS21      -0.2717
      5  CB         7.9590   23.1470   17.4910 C.3    21  CYS21       0.0970
      6  SG         9.1750   23.9470   16.4210 S.3    21  CYS21      -0.0800
      7  N          6.1250   22.5860   14.4500 N.am   22  GLN22      -0.1965
      8  CA         5.3880   23.1500   13.3090 C.3    22  GLN22       0.1733
      9  C          6.0540   24.4250   12.7970 C.2    22  GLN22       0.2616
     10  O          6.5570   24.4410   11.6700 O.2    22  GLN22      -0.2715
     11  CB         3.8800   23.3360   13.6290 C.3    22  GLN22       0.0408
     12  CG         2.9980   23.9360   12.5250 C.3    22  GLN22       0.0908
     13  CD         1.5290   23.9020   12.9020 C.2    22  GLN22       0.2608
     14  OE1        1.1500   23.5580   14.0300 O.2    22  GLN22      -0.2717
     15  NE2        0.6580   24.2580   11.9700 N.am   22  GLN22      -0.0878
     16  N          6.0730   25.4770   13.6320 N.am   23  LEU23      -0.1977
     17  CA         6.6580   26.7800   13.3290 C.3    23  LEU23       0.1596
     18  C          7.6470   27.1350   14.4300 C.2    23  LEU23       0.2287
     19  O          7.3280   26.9450   15.6070 O.2    23  LEU23      -0.2864
     20  CB         5.5370   27.8330   13.2750 C.3    23  LEU23       0.0297
     21  CG         5.0500   28.2840   11.8990 C.3    23  LEU23       0.0022
     22  CD1        4.3080   27.1720   11.1560 C.3    23  LEU23       0.0001
     23  CD2        4.1300   29.4710   12.0310 C.3    23  LEU23       0.0001
     24  N          7.4270   33.2530   14.4970 N.3    28  LEU28      -0.1245
     25  CA         6.1650   33.7500   15.0340 C.3    28  LEU28       0.1561
     26  C          6.3820   35.1130   15.6810 C.2    28  LEU28       0.2260
     27  O          5.5250   35.9900   15.5610 O.2    28  LEU28      -0.2867
     28  CB         5.5920   32.7740   16.0750 C.3    28  LEU28       0.0270
     29  CG         5.0120   31.4680   15.5560 C.3    28  LEU28       0.0019
     30  CD1        4.9230   30.4470   16.6680 C.3    28  LEU28       0.0001
     31  CD2        3.6370   31.6810   14.9470 C.3    28  LEU28       0.0001
     32  N        -15.1680   28.1700    8.5590 N.3    53  TRP53      -0.1241
     33  CA       -15.0960   26.8960    9.2570 C.3    53  TRP53       0.1605
     34  C        -14.1640   25.9390    8.5350 C.2    53  TRP53       0.2264
     35  O        -13.3320   25.3260    9.1840 O.2    53  TRP53      -0.2867
     36  CB       -16.4890   26.2920    9.4110 C.3    53  TRP53       0.0550
     37  CG       -17.0740   26.5480   10.7590 C.ar   53  TRP53       0.0003
     38  CD1      -17.9300   27.5490   11.1070 C.ar   53  TRP53       0.0946
     39  CD2      -16.8260   25.7960   11.9510 C.ar   53  TRP53       0.0152
     40  NE1      -18.2250   27.4730   12.4480 N.ar   53  TRP53      -0.2442
     41  CE2      -17.5700   26.3990   12.9890 C.ar   53  TRP53       0.0810
     42  CE3      -16.0460   24.6630   12.2440 C.ar   53  TRP53       0.0012
     43  CZ2      -17.5570   25.9100   14.2990 C.ar   53  TRP53       0.0191
     44  CZ3      -16.0290   24.1830   13.5440 C.ar   53  TRP53       0.0001
     45  CH2      -16.7770   24.8030   14.5540 C.ar   53  TRP53       0.0015
     46  N        -10.5670   27.0920    9.1050 N.3    56  CYS56      -0.1235
     47  CA       -10.1910   26.7650   10.4690 C.3    56  CYS56       0.1677
     48  C        -10.0080   25.2710   10.6890 C.2    56  CYS56       0.2270
     49  O         -9.0170   24.8790   11.2980 O.2    56  CYS56      -0.2867
     50  CB       -11.1730   27.3780   11.4550 C.3    56  CYS56       0.0956
     51  SG       -11.1570   29.1880   11.4550 S.3    56  CYS56      -0.0801
     52  N         -6.5510   24.3240    9.0980 N.3    59  HIS59      -0.1226
     53  CA        -5.4300   24.8590    9.8740 C.3    59  HIS59       0.1752
     54  C         -5.2160   24.1130   11.1740 C.2    59  HIS59       0.2595
     55  O         -4.0700   23.9480   11.6170 O.2    59  HIS59      -0.2718
     56  CB        -5.6440   26.3490   10.1380 C.3    59  HIS59       0.0759
     57  CG        -5.4020   27.1710    8.9250 C.ar   59  HIS59       0.0818
     58  ND1       -4.1380   27.6090    8.6010 N.ar   59  HIS59      -0.2268
     59  CD2       -6.2650   27.5620    7.9620 C.ar   59  HIS59       0.1154
     60  CE1       -4.2720   28.2700    7.4640 C.ar   59  HIS59       0.1986
     61  NE2       -5.5370   28.2650    7.0420 N.ar   59  HIS59      -0.2212
     62  N         -6.3320   23.6580   11.7740 N.am   60  LEU60      -0.1980
     63  CA        -6.3490   22.8740   12.9970 C.3    60  LEU60       0.1596
     64  C         -5.8510   21.4520   12.6810 C.2    60  LEU60       0.2287
     65  O         -5.0810   20.9030   13.4670 O.2    60  LEU60      -0.2864
     66  CB        -7.7610   22.8650   13.5880 C.3    60  LEU60       0.0297
     67  CG        -7.8950   22.4580   15.0440 C.3    60  LEU60       0.0022
     68  CD1       -7.4220   23.5660   15.9730 C.3    60  LEU60       0.0001
     69  CD2       -9.3310   22.1110   15.3580 C.3    60  LEU60       0.0001
     70  N         -2.1170   21.5970   12.2540 N.3    63  ALA63      -0.1245
     71  CA        -1.5560   21.6880   13.6050 C.3    63  ALA63       0.1562
     72  C         -1.5040   20.3390   14.3240 C.2    63  ALA63       0.2260
     73  O         -0.4650   20.0060   14.9020 O.2    63  ALA63      -0.2867
     74  CB        -2.3410   22.6960   14.4300 C.3    63  ALA63       0.0290
     75  N         -6.0300   17.7860   20.3770 N.3    94  MET94      -0.1245
     76  CA        -6.6730   19.1070   20.4410 C.3    94  MET94       0.1570
     77  C         -6.2120   19.9220   21.6640 C.2    94  MET94       0.2261
     78  O         -6.0260   21.1350   21.5440 O.2    94  MET94      -0.2867
     79  CB        -8.2050   18.9820   20.3760 C.3    94  MET94       0.0387
     80  CG        -8.9430   20.3140   20.2870 C.3    94  MET94       0.0595
     81  SD        -8.5050   21.3140   18.8520 S.3    94  MET94      -0.1393
     82  CE        -9.5240   22.7330   19.1380 C.3    94  MET94       0.0692
     83  N         -2.5640   21.1340   20.9180 N.3    97  VAL97      -0.1231
     84  CA        -2.6570   22.2270   19.9400 C.3    97  VAL97       0.1692
     85  C         -3.0270   23.5560   20.6450 C.2    97  VAL97       0.2591
     86  O         -2.3710   24.5710   20.3900 O.2    97  VAL97      -0.2718
     87  CB        -3.5870   21.8510   18.7520 C.3    97  VAL97       0.0266
     88  CG1       -4.1150   23.0780   18.0120 C.3    97  VAL97       0.0020
     89  CG2       -2.8800   20.9050   17.7890 C.3    97  VAL97       0.0020
     90  N         -4.0180   23.5280   21.5720 N.am   98  LEU98      -0.1980
     91  CA        -4.4310   24.7190   22.3170 C.3    98  LEU98       0.1596
     92  C         -3.3210   25.2260   23.2470 C.2    98  LEU98       0.2287
     93  O         -3.2330   26.4390   23.4660 O.2    98  LEU98      -0.2864
     94  CB        -5.7330   24.5010   23.1010 C.3    98  LEU98       0.0297
     95  CG        -7.0080   24.2390   22.3000 C.3    98  LEU98       0.0022
     96  CD1       -8.0340   23.5010   23.1520 C.3    98  LEU98       0.0001
     97  CD2       -7.6010   25.5240   21.7630 C.3    98  LEU98       0.0001
     98  N          0.1000   24.7030   22.5810 N.3   100  ARG100     -0.1231
     99  CA         1.0660   25.1760   21.5880 C.3   100  ARG100      0.1694
    100  C          0.6830   26.5410   20.9980 C.2   100  ARG100      0.2591
    101  O          1.5680   27.3220   20.6430 O.2   100  ARG100     -0.2718
    102  CB         1.1720   24.1500   20.4620 C.3   100  ARG100      0.0321
    103  CG         2.0350   22.9530   20.7850 C.3   100  ARG100      0.0489
    104  CD         1.7920   21.8760   19.7620 C.3   100  ARG100      0.2205
    105  NE         2.8970   20.9290   19.6720 N.pl3 100  ARG100     -0.0865
    106  CZ         3.4810   20.5670   18.5360 C.cat 100  ARG100      0.5346
    107  NH1        3.0730   21.0790   17.3800 N.pl3 100  ARG100      0.1354
    108  NH2        4.4740   19.6900   18.5450 N.pl3 100  ARG100      0.1354
    109  N         -0.6420   26.8140   20.9020 N.am  101  MET101     -0.1979
    110  CA        -1.2510   28.0380   20.3710 C.3   101  MET101      0.1605
    111  C         -0.7630   29.3180   21.0590 C.2   101  MET101      0.2287
    112  O         -0.7180   30.3640   20.4080 O.2   101  MET101     -0.2864
    113  CB        -2.7840   27.9480   20.4790 C.3   101  MET101      0.0413
    114  CG        -3.5250   28.7940   19.4600 C.3   101  MET101      0.0598
    115  SD        -3.3910   28.1230   17.7790 S.3   101  MET101     -0.1393
    116  CE        -4.6830   26.8540   17.8340 C.3   101  MET101      0.0692
    117  N          2.0770   30.3060   21.6990 N.3   103  ARG103     -0.1231
    118  CA         3.3070   30.7680   21.0550 C.3   103  ARG103      0.1694
    119  C          2.9360   31.7660   19.9670 C.2   103  ARG103      0.2591
    120  O          3.6060   32.7920   19.8040 O.2   103  ARG103     -0.2718
    121  CB         4.0710   29.5900   20.4470 C.3   103  ARG103      0.0321
    122  CG         4.5850   28.6070   21.4770 C.3   103  ARG103      0.0489
    123  CD         4.9070   27.2760   20.8490 C.3   103  ARG103      0.2205
    124  NE         6.2160   27.2690   20.1890 N.pl3 103  ARG103     -0.0865
    125  CZ         6.4050   27.0560   18.8900 C.cat 103  ARG103      0.5346
    126  NH1        7.6320   27.0640   18.3820 N.pl3 103  ARG103      0.1354
    127  NH2        5.3700   26.8240   18.0890 N.pl3 103  ARG103      0.1354
    128  N          1.8360   31.4670   19.2460 N.am  104  ALA104     -0.1980
    129  CA         1.2880   32.2890   18.1740 C.3   104  ALA104      0.1597
    130  C          0.3720   33.4050   18.6990 C.2   104  ALA104      0.2287
    131  O         -0.1870   34.1500   17.9010 O.2   104  ALA104     -0.2864
    132  CB         0.5460   31.4150   17.1780 C.3   104  ALA104      0.0319
    133  N         -3.5950   36.8390   17.5580 N.3   112  VAL112     -0.1231
    134  CA        -3.0610   35.5070   17.2730 C.3   112  VAL112      0.1692
    135  C         -2.6160   35.4200   15.8120 C.2   112  VAL112      0.2592
    136  O         -3.2300   36.0490   14.9480 O.2   112  VAL112     -0.2718
    137  CB        -4.0470   34.3730   17.6830 C.3   112  VAL112      0.0266
    138  CG1       -5.1320   34.1420   16.6310 C.3   112  VAL112      0.0020
    139  CG2       -3.3100   33.0780   17.9850 C.3   112  VAL112      0.0020
    140  N         -1.5520   34.6550   15.5410 N.am  113  PHE113     -0.1962
    141  CA        -1.0480   34.4320   14.1870 C.3   113  PHE113      0.1771
    142  C         -2.0090   33.4750   13.4830 C.2   113  PHE113      0.2620
    143  O         -2.3080   32.4090   14.0200 O.2   113  PHE113     -0.2715
    144  CB         0.3760   33.8470   14.2290 C.3   113  PHE113      0.0574
    145  CG         1.0120   33.6050   12.8820 C.ar  113  PHE113     -0.0200
    146  CD1        1.6360   34.6400   12.1930 C.ar  113  PHE113     -0.0042
    147  CD2        1.0080   32.3380   12.3120 C.ar  113  PHE113     -0.0042
    148  CE1        2.2270   34.4160   10.9510 C.ar  113  PHE113     -0.0003
    149  CE2        1.5900   32.1160   11.0630 C.ar  113  PHE113     -0.0003
    150  CZ         2.2070   33.1530   10.3980 C.ar  113  PHE113     -0.0000
    151  N         -2.5280   33.8850   12.3140 N.am  114  PHE114     -0.1960
    152  CA        -3.4800   33.1200   11.5010 C.3   114  PHE114      0.1771
    153  C         -3.3630   33.5530   10.0440 C.2   114  PHE114      0.2619
    154  O         -3.5950   34.7250    9.7290 O.2   114  PHE114     -0.2715
    155  CB        -4.9260   33.3330   12.0090 C.3   114  PHE114      0.0574
    156  CG        -6.0220   32.6430   11.2250 C.ar  114  PHE114     -0.0200
    157  CD1       -6.4280   31.3540   11.5520 C.ar  114  PHE114     -0.0042
    158  CD2       -6.6780   33.2990   10.1890 C.ar  114  PHE114     -0.0042
    159  CE1       -7.4570   30.7270   10.8460 C.ar  114  PHE114     -0.0003
    160  CE2       -7.7040   32.6680    9.4780 C.ar  114  PHE114     -0.0003
    161  CZ        -8.0830   31.3860    9.8110 C.ar  114  PHE114     -0.0000
    162  N         -3.0430   32.5950    9.1560 N.am  115  GLU115     -0.1977
    163  CA        -2.9120   32.8000    7.7110 C.3   115  GLU115      0.1602
    164  C         -1.9160   33.9250    7.3630 C.2   115  GLU115      0.2287
    165  O         -2.2400   34.8380    6.6000 O.2   115  GLU115     -0.2864
    166  CB        -4.2910   32.9950    7.0340 C.3   115  GLU115      0.0415
    167  CG        -5.1700   31.7520    7.0790 C.3   115  GLU115      0.1163
    168  CD        -6.4710   31.7490    6.2930 C.2   115  GLU115      0.3649
    169  OE1       -6.7010   32.6780    5.4880 O.co2 115  GLU115     -0.2457
    170  OE2       -7.2450   30.7770    6.4520 O.co2 115  GLU115     -0.2457
    171  N        -12.4010   36.1110   13.3990 N.3   124  PHE124     -0.1241
    172  CA       -13.1570   34.8520   13.3960 C.3   124  PHE124      0.1605
    173  C        -14.6770   35.0610   13.6630 C.2   124  PHE124      0.2264
    174  O        -15.3740   34.1050   14.0460 O.2   124  PHE124     -0.2867
    175  CB       -12.5720   33.9130   14.4710 C.3   124  PHE124      0.0534
    176  CG       -11.0930   33.6290   14.3760 C.ar  124  PHE124     -0.0203
    177  CD1      -10.1720   34.4150   15.0590 C.ar  124  PHE124     -0.0042
    178  CD2      -10.6230   32.5420   13.6450 C.ar  124  PHE124     -0.0042
    179  CE1       -8.8030   34.1400   14.9850 C.ar  124  PHE124     -0.0003
    180  CE2       -9.2550   32.2670   13.5720 C.ar  124  PHE124     -0.0003
    181  CZ        -8.3550   33.0650   14.2430 C.ar  124  PHE124     -0.0000
    182  N        -17.5100   32.7750   12.0090 N.3   127  LEU127     -0.1245
    183  CA       -17.6790   31.4050   12.5190 C.3   127  LEU127      0.1561
    184  C        -18.9660   31.2350   13.3140 C.2   127  LEU127      0.2260
    185  O        -19.5080   30.1280   13.3770 O.2   127  LEU127     -0.2867
    186  CB       -16.4900   30.9780   13.3990 C.3   127  LEU127      0.0270
    187  CG       -15.1380   30.7530   12.7290 C.3   127  LEU127      0.0019
    188  CD1      -14.0540   30.6130   13.7530 C.3   127  LEU127      0.0001
    189  CD2      -15.1430   29.5160   11.8810 C.3   127  LEU127      0.0001
    190  N        -19.2500   31.6400   16.6360 N.3   129  CYS129     -0.1235
    191  CA       -18.9080   30.9850   17.8920 C.3   129  CYS129      0.1677
    192  C        -18.0200   31.8930   18.7690 C.2   129  CYS129      0.2270
    193  O        -16.9800   31.4770   19.2840 O.2   129  CYS129     -0.2867
    194  CB       -18.3080   29.5990   17.6640 C.3   129  CYS129      0.0956
    195  SG       -16.7150   29.5960   16.8160 S.3   129  CYS129     -0.0801
    196  N        -16.4850   30.6470   22.2400 N.3   132  LEU132     -0.1231
    197  CA       -15.3800   29.7110   22.0850 C.3   132  LEU132      0.1693
    198  C        -14.1040   30.4340   21.6950 C.2   132  LEU132      0.2591
    199  O        -13.0710   30.1640   22.2920 O.2   132  LEU132     -0.2718
    200  CB       -15.7410   28.6040   21.0780 C.3   132  LEU132      0.0284
    201  CG       -14.6510   27.5980   20.6820 C.3   132  LEU132      0.0019
    202  CD1      -14.1470   26.8020   21.8740 C.3   132  LEU132      0.0001
    203  CD2      -15.1490   26.6780   19.6040 C.3   132  LEU132      0.0001
    204  N        -14.1750   31.3700   20.7340 N.am  133  ILE133     -0.1980
    205  CA       -13.0070   32.1430   20.2910 C.3   133  ILE133      0.1595
    206  C        -12.4510   32.9630   21.4530 C.2   133  ILE133      0.2287
    207  O        -11.2440   32.9110   21.6940 O.2   133  ILE133     -0.2864
    208  CB       -13.2630   32.9870   19.0070 C.3   133  ILE133      0.0276
    209  CG1      -13.9490   32.1680   17.8830 C.3   133  ILE133      0.0022
    210  CG2      -11.9800   33.6750   18.5080 C.3   133  ILE133      0.0022
    211  CD1      -13.1950   30.9060   17.3770 C.3   133  ILE133      0.0001
    212  N        -10.7290   30.5400   23.8150 N.3   136  ILE136     -0.1231
    213  CA        -9.4220   30.1510   23.2680 C.3   136  ILE136      0.1692
    214  C         -8.4040   31.3040   23.4530 C.2   136  ILE136      0.2592
    215  O         -7.2750   31.0570   23.8910 O.2   136  ILE136     -0.2718
    216  CB        -9.5200   29.6310   21.7970 C.3   136  ILE136      0.0266
    217  CG1      -10.3090   28.3060   21.7240 C.3   136  ILE136      0.0019
    218  CG2       -8.1290   29.4610   21.1640 C.3   136  ILE136      0.0020
    219  CD1      -10.8570   27.9530   20.3400 C.3   136  ILE136      0.0001
    220  N         -8.8300   32.5560   23.1670 N.am  137  PHE137     -0.1976
    221  CA        -8.0070   33.7580   23.3100 C.3   137  PHE137      0.1639
    222  C         -7.6040   34.0300   24.7510 C.2   137  PHE137      0.2290
    223  O         -6.4580   34.4170   24.9790 O.2   137  PHE137     -0.2864
    224  CB        -8.7060   34.9720   22.6990 C.3   137  PHE137      0.0560
    225  CG        -8.3120   35.2430   21.2660 C.ar  137  PHE137     -0.0200
    226  CD1       -8.7700   34.4300   20.2330 C.ar  137  PHE137     -0.0042
    227  CD2       -7.4930   36.3190   20.9450 C.ar  137  PHE137     -0.0042
    228  CE1       -8.4060   34.6820   18.9100 C.ar  137  PHE137     -0.0003
    229  CE2       -7.1380   36.5760   19.6190 C.ar  137  PHE137     -0.0003
    230  CZ        -7.6040   35.7610   18.6100 C.ar  137  PHE137     -0.0000
    231  N        -15.4330   23.1010   21.6300 N.3   215  HIS215     -0.1241
    232  CA       -15.0490   22.9660   20.2270 C.3   215  HIS215      0.1621
    233  C        -15.8820   21.8920   19.4990 C.2   215  HIS215      0.2264
    234  O        -16.2900   22.1160   18.3560 O.2   215  HIS215     -0.2867
    235  CB       -13.5320   22.7200   20.0810 C.3   215  HIS215      0.0745
    236  CG       -13.1140   22.3640   18.6860 C.ar  215  HIS215      0.0817
    237  ND1      -12.6750   21.0930   18.3710 N.ar  215  HIS215     -0.2268
    238  CD2      -13.1550   23.1060   17.5530 C.ar  215  HIS215      0.1154
    239  CE1      -12.4380   21.1110   17.0680 C.ar  215  HIS215      0.1986
    240  NE2      -12.7160   22.2990   16.5330 N.ar  215  HIS215     -0.2212
@<TRIPOS>BOND
     1   169   168   ar
     2   168   170   ar
     3   168   167    1
     4   165   164    2
     5   166   167    1
     6   166   163    1
     7    61    60   ar
     8    61    59   ar
     9   164   163    1
    10    60    58   ar
    11   163   162    1
    12    59    57   ar
    13    34    35    2
    14    34    33    1
    15    32    33    1
    16    58    57   ar
    17    57    56    1
    18    52    53    1
    19    46    47    1
    20   162   153   am
    21    33    36    1
    22    36    37    1
    23   160   161   ar
    24   160   158   ar
    25   154   153    2
    26   161   159   ar
    27    53    56    1
    28    53    54    1
    29   153   152    1
    30   158   156   ar
    31   150   148   ar
    32   150   149   ar
    33    47    48    1
    34    47    50    1
    35    48    49    2
    36    37    38   ar
    37    37    39   ar
    38   159   157   ar
    39   148   146   ar
    40   149   147   ar
    41    38    40   ar
    42    22    21    1
    43    54    55    2
    44    54    62   am
    45   156   157   ar
    46   156   155    1
    47    51    50    1
    48   152   155    1
    49   152   151    1
    50    10     9    2
    51    62    63    1
    52   189   187    1
    53    21    23    1
    54    21    20    1
    55    39    42   ar
    56    39    41   ar
    57    15    13   am
    58   182   183    1
    59   146   145   ar
    60    42    44   ar
    61    70    71    1
    62   147   145   ar
    63   151   142   am
    64    40    41   ar
    65   183   184    1
    66   183   186    1
    67    12    13    1
    68    12    11    1
    69    64    63    1
    70    64    65    2
    71   187   186    1
    72   187   188    1
    73     9     8    1
    74     9    16   am
    75   145   144    1
    76    13    14    2
    77    41    43   ar
    78    63    66    1
    79    20    17    1
    80     8    11    1
    81     8     7    1
    82   184   185    2
    83    17    16    1
    84    17    18    1
    85   172   171    1
    86   172   173    1
    87   172   175    1
    88   142   143    2
    89   142   141    1
    90    44    45   ar
    91   180   178   ar
    92   180   181   ar
    93    66    67    1
    94    71    72    1
    95    71    74    1
    96   178   176   ar
    97   173   174    2
    98   141   144    1
    99   141   140    1
   100   181   179   ar
   101    43    45   ar
   102    72    73    2
   103   176   175    1
   104   176   177   ar
   105    18    19    2
   106     7     3   am
   107    24    25    1
   108    31    29    1
   109   136   135    2
   110   179   177   ar
   111    25    26    1
   112    25    28    1
   113    67    69    1
   114    67    68    1
   115   140   135   am
   116    29    28    1
   117    29    30    1
   118    27    26    2
   119     3     4    2
   120     3     2    1
   121   135   134    1
   122     1     2    1
   123     6     5    1
   124   240   239   ar
   125   240   238   ar
   126   138   137    1
   127   190   191    1
   128     2     5    1
   129   195   194    1
   130   239   237   ar
   131   132   129    1
   132   134   133    1
   133   134   137    1
   134   211   209    1
   135   107   106    1
   136   238   236   ar
   137   194   191    1
   138   137   139    1
   139   115   116    1
   140   115   114    1
   141    89    87    1
   142   209   208    1
   143   191   192    1
   144   131   130    2
   145    88    87    1
   146   127   125    1
   147   129   130    1
   148   129   128    1
   149   234   233    2
   150   237   236   ar
   151   126   125    1
   152   210   208    1
   153   106   108    1
   154   106   105    2
   155   230   228   ar
   156   230   229   ar
   157   236   235    1
   158    87    84    1
   159   192   193    2
   160    81    82    1
   161    81    80    1
   162   125   124    2
   163   228   226   ar
   164   208   205    1
   165   128   119   am
   166   114   113    1
   167   233   232    1
   168   203   201    1
   169   229   227   ar
   170   105   104    1
   171   104   103    1
   172   120   119    2
   173    84    85    1
   174    84    83    1
   175   119   118    1
   176   235   232    1
   177   124   123    1
   178   232   231    1
   179   226   225   ar
   180    80    79    1
   181   205   204    1
   182   205   206    1
   183   219   217    1
   184   110   113    1
   185   110   109    1
   186   110   111    1
   187    79    76    1
   188    75    76    1
   189    86    85    2
   190   112   111    2
   191    76    77    1
   192   121   118    1
   193   121   122    1
   194   102   103    1
   195   102    99    1
   196   101   100    2
   197    85    90   am
   198   201   200    1
   199   201   202    1
   200   204   198   am
   201   123   122    1
   202   109   100   am
   203   227   225   ar
   204   100    99    1
   205   118   117    1
   206   200   197    1
   207   218   216    1
   208   225   224    1
   209   206   207    2
   210    78    77    2
   211    90    91    1
   212    99    98    1
   213   198   197    1
   214   198   199    2
   215   217   216    1
   216    97    95    1
   217   216   213    1
   218   197   196    1
   219    95    94    1
   220    95    96    1
   221    91    94    1
   222    91    92    1
   223   224   221    1
   224   220   221    1
   225   220   214   am
   226    92    93    2
   227   213   214    1
   228   213   212    1
   229   221   222    1
   230   214   215    2
   231   222   223    2
