@<TRIPOS>MOLECULE
tmp/5vqtA00.pdb
 205 205 0 0 0
SMALL
GASTEIGER

@<TRIPOS>ATOM
      1  N        840.0740  -24.7670  144.2700 N.3    90  PRO90      -0.2116
      2  CA       840.4880  -25.1880  142.9300 C.3    90  PRO90       0.1372
      3  C        839.3780  -25.9460  142.2210 C.2    90  PRO90       0.2244
      4  O        838.3900  -26.3770  142.8200 O.2    90  PRO90      -0.2868
      5  CB       841.6950  -26.0950  143.1980 C.3    90  PRO90       0.0268
      6  CG       842.1990  -25.6580  144.5330 C.3    90  PRO90       0.0207
      7  CD       840.9730  -25.2890  145.3120 C.3    90  PRO90       0.0892
      8  N        838.7580  -29.3550  139.8100 N.3    92  PRO92      -0.2116
      9  CA       839.4480  -30.5930  139.4080 C.3    92  PRO92       0.1372
     10  C        839.9710  -30.5770  137.9820 C.2    92  PRO92       0.2244
     11  O        841.0000  -31.2060  137.7040 O.2    92  PRO92      -0.2868
     12  CB       838.3670  -31.6650  139.5950 C.3    92  PRO92       0.0268
     13  CG       837.4570  -31.1030  140.6350 C.3    92  PRO92       0.0207
     14  CD       837.4330  -29.6200  140.3970 C.3    92  PRO92       0.0892
     15  N        843.6670  -29.6520  137.5820 N.3    95  LEU95      -0.1231
     16  CA       844.7160  -30.5400  138.0590 C.3    95  LEU95       0.1693
     17  C        845.4120  -31.2320  136.8920 C.2    95  LEU95       0.2592
     18  O        844.8360  -31.4240  135.8180 O.2    95  LEU95      -0.2718
     19  CB       844.1340  -31.5840  139.0120 C.3    95  LEU95       0.0284
     20  CG       843.3100  -31.0380  140.1790 C.3    95  LEU95       0.0019
     21  CD1      842.7280  -32.1730  141.0130 C.3    95  LEU95       0.0001
     22  CD2      844.1510  -30.1060  141.0420 C.3    95  LEU95       0.0001
     23  N        846.6670  -31.6090  137.1170 N.am   96  LYS96      -0.1966
     24  CA       847.4850  -32.2890  136.1210 C.3    96  LYS96       0.1728
     25  C        847.7700  -33.7080  136.5890 C.2    96  LYS96       0.2616
     26  O        848.2380  -33.9080  137.7140 O.2    96  LYS96      -0.2715
     27  CB       848.7970  -31.5400  135.8900 C.3    96  LYS96       0.0311
     28  CG       848.6310  -30.0470  135.6950 C.3    96  LYS96       0.0038
     29  CD       849.8770  -29.3100  136.1490 C.3    96  LYS96       0.0206
     30  CE       849.7060  -27.8140  136.0030 C.3    96  LYS96       0.1093
     31  NZ       849.5040  -27.4340  134.5790 N.3    96  LYS96      -0.1314
     32  N        847.5040  -34.6820  135.7160 N.am   97  LYS97      -0.1963
     33  CA       847.6630  -36.0920  136.0550 C.3    97  LYS97       0.1728
     34  C        849.0320  -36.3640  136.6660 C.2    97  LYS97       0.2616
     35  O        850.0570  -35.8740  136.1830 O.2    97  LYS97      -0.2715
     36  CB       847.4750  -36.9530  134.8030 C.3    97  LYS97       0.0311
     37  CG       846.6370  -38.2020  135.0150 C.3    97  LYS97       0.0038
     38  CD       846.6610  -39.0900  133.7780 C.3    97  LYS97       0.0206
     39  CE       846.2840  -38.3120  132.5280 C.3    97  LYS97       0.1093
     40  NZ       846.4250  -39.1340  131.2940 N.3    97  LYS97      -0.1314
     41  N        849.0400  -37.1430  137.7450 N.am   98  LYS98      -0.1977
     42  CA       850.2670  -37.5570  138.4110 C.3    98  LYS98       0.1596
     43  C        850.2870  -39.0720  138.5500 C.2    98  LYS98       0.2287
     44  O        849.2490  -39.6950  138.7980 O.2    98  LYS98      -0.2864
     45  CB       850.4090  -36.9030  139.7950 C.3    98  LYS98       0.0298
     46  CG       850.7000  -35.4160  139.7450 C.3    98  LYS98       0.0038
     47  CD       851.9090  -35.1330  138.8680 C.3    98  LYS98       0.0206
     48  CE       852.0900  -33.6420  138.6360 C.3    98  LYS98       0.1093
     49  NZ       853.1470  -33.3720  137.6220 N.3    98  LYS98      -0.1314
     50  N        850.0870  -40.0200  143.9790 N.3   101  VAL101     -0.1245
     51  CA       849.5600  -38.9710  144.8450 C.3   101  VAL101      0.1561
     52  C        849.4240  -39.5440  146.2490 C.2   101  VAL101      0.2260
     53  O        848.7100  -40.5320  146.4530 O.2   101  VAL101     -0.2867
     54  CB       848.2090  -38.4290  144.3500 C.3   101  VAL101      0.0252
     55  CG1      847.5750  -37.5530  145.4160 C.3   101  VAL101      0.0019
     56  CG2      848.3890  -37.6460  143.0590 C.3   101  VAL101      0.0019
     57  N        855.0160  -32.0180  143.4720 N.3   174  VAL174     -0.1245
     58  CA       853.9950  -31.0060  143.7040 C.3   174  VAL174      0.1561
     59  C        853.4210  -31.2290  145.0940 C.2   174  VAL174      0.2260
     60  O        853.0390  -32.3530  145.4390 O.2   174  VAL174     -0.2867
     61  CB       852.8830  -31.0610  142.6380 C.3   174  VAL174      0.0252
     62  CG1      851.6480  -30.3120  143.1100 C.3   174  VAL174      0.0019
     63  CG2      853.3850  -30.4840  141.3250 C.3   174  VAL174      0.0019
     64  N        850.5570  -29.7160  147.9140 N.3   176  TYR176     -0.1227
     65  CA       849.3600  -28.9150  148.1160 C.3   176  TYR176      0.1736
     66  C        848.9210  -29.0470  149.5660 C.2   176  TYR176      0.2595
     67  O        848.9890  -30.1340  150.1430 O.2   176  TYR176     -0.2718
     68  CB       848.2230  -29.3670  147.1970 C.3   176  TYR176      0.0548
     69  CG       848.3920  -29.0520  145.7260 C.ar  176  TYR176     -0.0200
     70  CD1      849.0550  -27.9060  145.3020 C.ar  176  TYR176     -0.0009
     71  CD2      847.8700  -29.9020  144.7570 C.ar  176  TYR176     -0.0009
     72  CE1      849.2000  -27.6210  143.9510 C.ar  176  TYR176      0.0417
     73  CE2      848.0070  -29.6260  143.4100 C.ar  176  TYR176      0.0417
     74  CZ       848.6720  -28.4870  143.0120 C.ar  176  TYR176      0.1957
     75  OH       848.8080  -28.2180  141.6690 O.3   176  TYR176     -0.2866
     76  N        848.4620  -27.9460  150.1550 N.am  177  GLN177     -0.1965
     77  CA       848.0260  -27.9380  151.5460 C.3   177  GLN177      0.1733
     78  C        846.5450  -27.5980  151.6080 C.2   177  GLN177      0.2616
     79  O        846.1200  -26.5630  151.0860 O.2   177  GLN177     -0.2715
     80  CB       848.8460  -26.9500  152.3770 C.3   177  GLN177      0.0408
     81  CG       849.2860  -25.7120  151.6220 C.3   177  GLN177      0.0908
     82  CD       850.1760  -24.8170  152.4580 C.2   177  GLN177      0.2608
     83  OE1      850.9840  -24.0550  151.9270 O.2   177  GLN177     -0.2717
     84  NE2      850.0310  -24.9030  153.7770 N.am  177  GLN177     -0.0878
     85  N        845.7660  -28.4730  152.2450 N.am  178  TYR178     -0.1974
     86  CA       844.3350  -28.2620  152.4370 C.3   178  TYR178      0.1639
     87  C        843.9770  -28.6750  153.8540 C.2   178  TYR178      0.2290
     88  O        844.0850  -29.8570  154.2010 O.2   178  TYR178     -0.2864
     89  CB       843.5120  -29.0570  151.4190 C.3   178  TYR178      0.0560
     90  CG       842.0180  -29.0150  151.6560 C.ar  178  TYR178     -0.0198
     91  CD1      841.2590  -27.9310  151.2360 C.ar  178  TYR178     -0.0009
     92  CD2      841.3660  -30.0650  152.2910 C.ar  178  TYR178     -0.0009
     93  CE1      839.8940  -27.8890  151.4480 C.ar  178  TYR178      0.0417
     94  CE2      840.0020  -30.0330  152.5090 C.ar  178  TYR178      0.0417
     95  CZ       839.2700  -28.9430  152.0850 C.ar  178  TYR178      0.1957
     96  OH       837.9100  -28.9080  152.2980 O.3   178  TYR178     -0.2866
     97  N        849.0020  -32.9970  150.3150 N.3   183  TYR183     -0.1227
     98  CA       848.8430  -33.8740  149.1630 C.3   183  TYR183      0.1736
     99  C        850.0530  -33.6950  148.2610 C.2   183  TYR183      0.2595
    100  O        850.2930  -32.5940  147.7530 O.2   183  TYR183     -0.2718
    101  CB       847.5430  -33.5670  148.4130 C.3   183  TYR183      0.0548
    102  CG       846.3060  -33.6970  149.2760 C.ar  183  TYR183     -0.0200
    103  CD1      845.6560  -34.9180  149.4120 C.ar  183  TYR183     -0.0009
    104  CD2      845.7930  -32.6030  149.9630 C.ar  183  TYR183     -0.0009
    105  CE1      844.5270  -35.0450  150.2050 C.ar  183  TYR183      0.0417
    106  CE2      844.6630  -32.7200  150.7550 C.ar  183  TYR183      0.0417
    107  CZ       844.0340  -33.9430  150.8720 C.ar  183  TYR183      0.1957
    108  OH       842.9090  -34.0650  151.6590 O.3   183  TYR183     -0.2866
    109  N        850.8130  -34.7680  148.0710 N.am  184  VAL184     -0.1966
    110  CA       852.0880  -34.7210  147.3640 C.3   184  VAL184      0.1727
    111  C        851.9910  -35.6280  146.1470 C.2   184  VAL184      0.2616
    112  O        851.8690  -36.8510  146.2880 O.2   184  VAL184     -0.2715
    113  CB       853.2540  -35.1480  148.2690 C.3   184  VAL184      0.0290
    114  CG1      854.5900  -34.8170  147.6150 C.3   184  VAL184      0.0023
    115  CG2      853.1330  -34.4940  149.6370 C.3   184  VAL184      0.0023
    116  N        852.0590  -35.0380  144.9600 N.am  185  GLY185     -0.1955
    117  CA       852.0060  -35.7820  143.7170 C.3   185  GLY185      0.1869
    118  C        853.3310  -35.7100  142.9830 C.2   185  GLY185      0.2309
    119  O        854.0790  -34.7390  143.1210 O.2   185  GLY185     -0.2863
    120  N        842.5750  -41.6420  153.7570 N.3   218  LYS218     -0.1245
    121  CA       842.1660  -41.1650  152.4440 C.3   218  LYS218      0.1561
    122  C        842.8360  -41.9890  151.3520 C.2   218  LYS218      0.2260
    123  O        844.0400  -42.2620  151.4120 O.2   218  LYS218     -0.2867
    124  CB       842.5110  -39.6860  152.2790 C.3   218  LYS218      0.0271
    125  CG       841.6640  -38.7900  153.1690 C.3   218  LYS218      0.0035
    126  CD       842.1760  -37.3700  153.0160 C.3   218  LYS218      0.0206
    127  CE       841.4590  -36.3010  153.8050 C.3   218  LYS218      0.1093
    128  NZ       840.0270  -36.2400  153.5130 N.3   218  LYS218     -0.1314
    129  N        841.9700  -43.2970  146.8740 N.3   220  PRO220     -0.2116
    130  CA       841.1040  -43.1670  145.6950 C.3   220  PRO220      0.1372
    131  C        839.9090  -44.1190  145.7020 C.2   220  PRO220      0.2244
    132  O        840.0510  -45.2680  146.1230 O.2   220  PRO220     -0.2868
    133  CB       842.0480  -43.4910  144.5280 C.3   220  PRO220      0.0268
    134  CG       843.2150  -44.1960  145.1480 C.3   220  PRO220      0.0207
    135  CD       843.3630  -43.5820  146.4960 C.3   220  PRO220      0.0892
    136  N        839.0650  -40.1050  145.7070 N.3   222  PHE222     -0.1227
    137  CA       839.0040  -39.0440  146.7050 C.3   222  PHE222      0.1736
    138  C        837.6760  -38.3050  146.6010 C.2   222  PHE222      0.2595
    139  O        837.3350  -37.7720  145.5410 O.2   222  PHE222     -0.2718
    140  CB       840.1630  -38.0690  146.5180 C.3   222  PHE222      0.0547
    141  CG       841.5170  -38.7090  146.5900 C.ar  222  PHE222     -0.0202
    142  CD1      842.1480  -39.1550  145.4400 C.ar  222  PHE222     -0.0042
    143  CD2      842.1650  -38.8520  147.8040 C.ar  222  PHE222     -0.0042
    144  CE1      843.3980  -39.7380  145.5020 C.ar  222  PHE222     -0.0003
    145  CE2      843.4160  -39.4350  147.8730 C.ar  222  PHE222     -0.0003
    146  CZ       844.0330  -39.8790  146.7200 C.ar  222  PHE222     -0.0000
    147  N        836.9320  -38.2620  147.6990 N.am  223  LEU223     -0.1966
    148  CA       835.6780  -37.5260  147.7640 C.3   223  LEU223      0.1728
    149  C        835.9440  -36.1920  148.4490 C.2   223  LEU223      0.2616
    150  O        836.3330  -36.1620  149.6220 O.2   223  LEU223     -0.2715
    151  CB       834.6160  -38.3310  148.5110 C.3   223  LEU223      0.0311
    152  CG       834.4310  -39.7720  148.0170 C.3   223  LEU223      0.0022
    153  CD1      833.3280  -40.4870  148.7860 C.3   223  LEU223      0.0001
    154  CD2      834.1560  -39.8140  146.5190 C.3   223  LEU223      0.0001
    155  N        835.7500  -35.0940  147.7200 N.am  224  TRP224     -0.1974
    156  CA       836.1460  -33.7820  148.2260 C.3   224  TRP224      0.1640
    157  C        835.2620  -32.7020  147.6260 C.2   224  TRP224      0.2290
    158  O        835.2550  -32.5170  146.4050 O.2   224  TRP224     -0.2864
    159  CB       837.6160  -33.5050  147.9060 C.3   224  TRP224      0.0576
    160  CG       838.0530  -32.1010  148.1980 C.ar  224  TRP224      0.0006
    161  CD1      838.4550  -31.6010  149.4020 C.ar  224  TRP224      0.0946
    162  CD2      838.1500  -31.0190  147.2630 C.ar  224  TRP224      0.0152
    163  NE1      838.7930  -30.2760  149.2760 N.ar  224  TRP224     -0.2442
    164  CE2      838.6180  -29.8950  147.9720 C.ar  224  TRP224      0.0810
    165  CE3      837.8860  -30.8910  145.8950 C.ar  224  TRP224      0.0012
    166  CZ2      838.8170  -28.6560  147.3630 C.ar  224  TRP224      0.0191
    167  CZ3      838.0880  -29.6610  145.2900 C.ar  224  TRP224      0.0001
    168  CH2      838.5490  -28.5610  146.0240 C.ar  224  TRP224      0.0015
    169  N        837.5970  -37.6420  142.6830 N.3   229  LEU229     -0.1231
    170  CA       838.8990  -37.5250  142.0390 C.3   229  LEU229      0.1693
    171  C        839.5140  -38.9140  141.9240 C.2   229  LEU229      0.2592
    172  O        839.7880  -39.5620  142.9400 O.2   229  LEU229     -0.2718
    173  CB       839.8170  -36.5930  142.8300 C.3   229  LEU229      0.0284
    174  CG       839.2360  -35.2560  143.2970 C.3   229  LEU229      0.0019
    175  CD1      840.2480  -34.5070  144.1580 C.3   229  LEU229      0.0001
    176  CD2      838.7980  -34.4050  142.1140 C.3   229  LEU229      0.0001
    177  N        839.7250  -39.3610  140.6970 N.am  230  HIS230     -0.1962
    178  CA       840.2990  -40.6520  140.3680 C.3   230  HIS230      0.1772
    179  C        841.7050  -40.4790  139.8060 C.2   230  HIS230      0.2462
    180  O        842.1200  -39.3640  139.4710 O.2   230  HIS230     -0.2730
    181  CB       839.4010  -41.3750  139.3560 C.3   230  HIS230      0.0785
    182  CG       838.0070  -41.6080  139.8500 C.ar  230  HIS230      0.0821
    183  ND1      837.5650  -42.8410  140.2800 N.ar  230  HIS230     -0.2267
    184  CD2      836.9590  -40.7630  139.9930 C.ar  230  HIS230      0.1154
    185  CE1      836.3030  -42.7460  140.6590 C.ar  230  HIS230      0.1986
    186  NE2      835.9120  -41.4950  140.4970 N.ar  230  HIS230     -0.2212
    187  N        842.4850  -41.5620  139.7130 N.am  231  PRO231     -0.2727
    188  CA       843.8550  -41.4220  139.1870 C.3   231  PRO231      0.1402
    189  C        843.9290  -40.8430  137.7840 C.2   231  PRO231      0.2269
    190  O        844.9240  -40.1850  137.4510 O.2   231  PRO231     -0.2865
    191  CB       844.3880  -42.8610  139.2300 C.3   231  PRO231      0.0296
    192  CG       843.6410  -43.4910  140.3520 C.3   231  PRO231      0.0237
    193  CD       842.2610  -42.8960  140.3030 C.3   231  PRO231      0.0939
    194  N        841.7780  -34.7910  133.1370 N.3   313  TYR313     -0.1241
    195  CA       842.6510  -33.8180  133.7730 C.3   313  TYR313      0.1605
    196  C        843.3820  -32.9960  132.7160 C.2   313  TYR313      0.2264
    197  O        843.4390  -33.3570  131.5380 O.2   313  TYR313     -0.2867
    198  CB       843.6530  -34.5080  134.7020 C.3   313  TYR313      0.0534
    199  CG       843.0350  -35.0580  135.9720 C.ar  313  TYR313     -0.0201
    200  CD1      843.3270  -36.3460  136.4080 C.ar  313  TYR313     -0.0009
    201  CD2      842.1670  -34.2870  136.7400 C.ar  313  TYR313     -0.0009
    202  CE1      842.7670  -36.8540  137.5650 C.ar  313  TYR313      0.0417
    203  CE2      841.6020  -34.7870  137.9030 C.ar  313  TYR313      0.0417
    204  CZ       841.9070  -36.0720  138.3100 C.ar  313  TYR313      0.1957
    205  OH       841.3510  -36.5800  139.4630 O.3   313  TYR313     -0.2866
@<TRIPOS>BOND
     1    40    39    1
     2   197   196    2
     3    39    38    1
     4   196   195    1
     5   194   195    1
     6   195   198    1
     7    38    37    1
     8    31    30    1
     9   198   199    1
    10    36    37    1
    11    36    33    1
    12    28    27    1
    13    28    29    1
    14    32    33    1
    15    32    25   am
    16    18    17    2
    17    27    24    1
    18   199   200   ar
    19   199   201   ar
    20    30    29    1
    21    33    34    1
    22    24    25    1
    23    24    23    1
    24    35    34    2
    25   200   202   ar
    26    25    26    2
    27    34    41   am
    28   201   203   ar
    29    17    23   am
    30    17    16    1
    31   190   189    2
    32   202   204   ar
    33    15    16    1
    34    49    48    1
    35    11    10    2
    36    41    42    1
    37   189   188    1
    38   203   204   ar
    39    10     9    1
    40    16    19    1
    41   204   205    1
    42    42    43    1
    43    42    45    1
    44    43    44    2
    45    48    47    1
    46    47    46    1
    47    19    20    1
    48   188   191    1
    49   188   187    1
    50   191   192    1
    51   181   182    1
    52   181   178    1
    53     9    12    1
    54     9     8    1
    55   180   179    2
    56    12    13    1
    57   187   179   am
    58   187   193    1
    59    46    45    1
    60   179   178    1
    61     8    14    1
    62   182   184   ar
    63   182   183   ar
    64   184   186   ar
    65    20    21    1
    66    20    22    1
    67   183   185   ar
    68   193   192    1
    69   178   177    1
    70    14    13    1
    71   186   185   ar
    72   177   171   am
    73    63    61    1
    74    75    74    1
    75   171   170    1
    76   171   172    2
    77   170   169    1
    78   170   173    1
    79   176   174    1
    80     3     4    2
    81     3     2    1
    82    61    62    1
    83    61    58    1
    84   173   174    1
    85     2     5    1
    86     2     1    1
    87   118   119    2
    88   118   117    1
    89    74    73   ar
    90    74    72   ar
    91    56    54    1
    92     5     6    1
    93   174   175    1
    94    73    71   ar
    95    57    58    1
    96    58    59    1
    97   117   116    1
    98    72    70   ar
    99    50    51    1
   100     1     7    1
   101    54    51    1
   102    54    55    1
   103   133   134    1
   104   133   130    1
   105     6     7    1
   106    71    69   ar
   107    51    52    1
   108   116   111   am
   109    59    60    2
   110   134   135    1
   111   167   165   ar
   112   167   168   ar
   113    70    69   ar
   114   142   144   ar
   115   142   141   ar
   116   144   146   ar
   117   139   138    2
   118   130   131    1
   119   130   129    1
   120   131   132    2
   121   136   137    1
   122    69    68    1
   123   165   162   ar
   124   168   166   ar
   125   111   112    2
   126   111   110    1
   127    52    53    2
   128   158   157    2
   129   135   129    1
   130   140   141    1
   131   140   137    1
   132   154   152    1
   133   141   143   ar
   134   138   137    1
   135   138   147   am
   136   146   145   ar
   137    68    65    1
   138   162   164   ar
   139   162   160   ar
   140   166   164   ar
   141   110   109    1
   142   110   113    1
   143   114   113    1
   144   157   156    1
   145   147   148    1
   146   155   156    1
   147   155   149   am
   148   100    99    2
   149   148   149    1
   150   148   151    1
   151   143   145   ar
   152   159   160    1
   153   159   156    1
   154    64    65    1
   155   164   163   ar
   156   152   151    1
   157   152   153    1
   158   109    99   am
   159    65    66    1
   160   160   161   ar
   161    99    98    1
   162   113   115    1
   163   101    98    1
   164   101   102    1
   165   149   150    2
   166    98    97    1
   167   163   161   ar
   168   102   103   ar
   169   102   104   ar
   170   103   105   ar
   171    66    67    2
   172    66    76   am
   173   104   106   ar
   174    76    77    1
   175   105   107   ar
   176   106   107   ar
   177   107   108    1
   178    79    78    2
   179    91    93   ar
   180    91    90   ar
   181   122   123    2
   182   122   121    1
   183    89    90    1
   184    89    86    1
   185    93    95   ar
   186    77    78    1
   187    77    80    1
   188    78    85   am
   189    81    80    1
   190    81    82    1
   191    90    92   ar
   192    83    82    2
   193    95    96    1
   194    95    94   ar
   195    85    86    1
   196   124   121    1
   197   124   125    1
   198    92    94   ar
   199    86    87    1
   200   121   120    1
   201    82    84   am
   202   126   125    1
   203   126   127    1
   204   128   127    1
   205    87    88    2
