@<TRIPOS>MOLECULE
tmp/5vr8F00.pdb
 176 166 0 0 0
SMALL
GASTEIGER

@<TRIPOS>ATOM
      1  N         14.4290  -76.9350   30.0720 N.3    10  ILE10      -0.1231
      2  CA        14.6310  -76.1210   28.8800 C.3    10  ILE10       0.1692
      3  C         14.5340  -74.6610   29.3110 C.2    10  ILE10       0.2593
      4  O         13.4570  -74.1820   29.6800 O.2    10  ILE10      -0.2718
      5  CB        13.6150  -76.4600   27.7830 C.3    10  ILE10       0.0266
      6  CG1       13.6540  -77.9560   27.4710 C.3    10  ILE10       0.0019
      7  CG2       13.8860  -75.6460   26.5180 C.3    10  ILE10       0.0020
      8  CD1       12.5730  -78.3980   26.5150 C.3    10  ILE10       0.0001
      9  N         15.6680  -73.9610   29.2840 N.am   11  GLY11      -0.1942
     10  CA        15.7400  -72.5790   29.7210 C.3    11  GLY11       0.2014
     11  C         16.6810  -72.4210   30.9000 C.2    11  GLY11       0.2639
     12  O         16.3470  -72.8280   32.0170 O.2    11  GLY11      -0.2714
     13  N         17.8660  -71.8520   30.6640 N.am   12  ALA12      -0.1963
     14  CA        18.8720  -71.6820   31.7110 C.3    12  ALA12       0.1728
     15  C         18.9770  -70.2270   32.1640 C.2    12  ALA12       0.2617
     16  O         20.0760  -69.6610   32.2020 O.2    12  ALA12      -0.2715
     17  CB        20.2400  -72.1730   31.2280 C.3    12  ALA12       0.0334
     18  N         17.8490  -69.6080   32.4790 N.am   13  GLY13      -0.1940
     19  CA        17.7830  -68.2070   32.8640 C.3    13  GLY13       0.2014
     20  C         17.6580  -68.0220   34.3640 C.2    13  GLY13       0.2639
     21  O         18.0740  -68.8760   35.1590 O.2    13  GLY13      -0.2714
     22  N         17.0610  -66.8940   34.7570 N.am   14  TYR14      -0.1959
     23  CA        16.8930  -66.5770   36.1760 C.3    14  TYR14       0.1771
     24  C         15.9950  -67.5720   36.8970 C.2    14  TYR14       0.2619
     25  O         16.1070  -67.7350   38.1150 O.2    14  TYR14      -0.2715
     26  CB        16.3270  -65.1650   36.3360 C.3    14  TYR14       0.0574
     27  CG        17.3640  -64.0960   36.0930 C.ar   14  TYR14      -0.0198
     28  CD1       17.6210  -63.6300   34.8090 C.ar   14  TYR14      -0.0009
     29  CD2       18.1030  -63.5770   37.1420 C.ar   14  TYR14      -0.0009
     30  CE1       18.5860  -62.6560   34.5770 C.ar   14  TYR14       0.0417
     31  CE2       19.0720  -62.6020   36.9210 C.ar   14  TYR14       0.0417
     32  CZ        19.3070  -62.1510   35.6400 C.ar   14  TYR14       0.1957
     33  OH        20.2700  -61.1910   35.4260 O.3    14  TYR14      -0.2866
     34  N         15.0910  -68.2290   36.1820 N.am   15  VAL15      -0.1977
     35  CA        14.2360  -69.2270   36.8180 C.3    15  VAL15       0.1596
     36  C         14.8840  -70.6090   36.7360 C.2    15  VAL15       0.2287
     37  O         15.1230  -71.2540   37.7660 O.2    15  VAL15      -0.2864
     38  CB        12.8290  -69.2080   36.1910 C.3    15  VAL15       0.0276
     39  CG1       11.9860  -70.3930   36.6680 C.3    15  VAL15       0.0022
     40  CG2       12.1320  -67.8740   36.5260 C.3    15  VAL15       0.0022
     41  N         19.7500  -74.9660   26.9650 N.3    36  ASP36      -0.1225
     42  CA        19.4360  -73.6510   26.4340 C.3    36  ASP36       0.1805
     43  C         20.0020  -73.5600   25.0260 C.2    36  ASP36       0.2598
     44  O         20.9960  -74.2180   24.7040 O.2    36  ASP36      -0.2718
     45  CB        20.0170  -72.5450   27.3220 C.3    36  ASP36       0.1424
     46  CG        19.2820  -71.2370   27.1770 C.2    36  ASP36       0.3668
     47  OD1       19.3460  -70.6430   26.0790 O.co2  36  ASP36      -0.2456
     48  OD2       18.6510  -70.7980   28.1660 O.co2  36  ASP36      -0.2456
     49  N         19.3400  -72.7620   24.1820 N.am   37  VAL37      -0.1966
     50  CA        19.8740  -72.4760   22.8540 C.3    37  VAL37       0.1727
     51  C         21.0530  -71.5150   22.9130 C.2    37  VAL37       0.2616
     52  O         21.8890  -71.5040   22.0020 O.2    37  VAL37      -0.2715
     53  CB        18.7780  -71.8960   21.9410 C.3    37  VAL37       0.0290
     54  CG1       17.7540  -72.9630   21.5990 C.3    37  VAL37       0.0023
     55  CG2       18.1080  -70.6980   22.5990 C.3    37  VAL37       0.0023
     56  N         21.1480  -70.7140   23.9700 N.am   38  ASN38      -0.1972
     57  CA        22.1710  -69.6770   24.0820 C.3    38  ASN38       0.1688
     58  C         23.4540  -70.3480   24.5510 C.2    38  ASN38       0.2292
     59  O         23.5900  -70.7020   25.7240 O.2    38  ASN38      -0.2864
     60  CB        21.7120  -68.5820   25.0420 C.3    38  ASN38       0.1181
     61  CG        22.6720  -67.4040   25.0980 C.2    38  ASN38       0.2629
     62  OD1       23.8510  -67.5350   24.7900 O.2    38  ASN38      -0.2716
     63  ND2       22.1630  -66.2420   25.5000 N.am   38  ASN38      -0.0877
     64  N         25.5960  -68.4900   27.2420 N.3    41  ARG41      -0.1245
     65  CA        24.9910  -68.6220   28.5640 C.3    41  ARG41       0.1563
     66  C         25.3110  -69.9810   29.1840 C.2    41  ARG41       0.2260
     67  O         25.6470  -70.0610   30.3720 O.2    41  ARG41      -0.2867
     68  CB        23.4810  -68.3820   28.4680 C.3    41  ARG41       0.0307
     69  CG        22.7340  -68.4790   29.7840 C.3    41  ARG41       0.0489
     70  CD        21.3740  -67.7920   29.7030 C.3    41  ARG41       0.2205
     71  NE        21.4570  -66.4150   30.1720 N.pl3  41  ARG41      -0.0865
     72  CZ        20.4090  -65.6720   30.5140 C.cat  41  ARG41       0.5346
     73  NH1       20.5900  -64.4270   30.9530 N.pl3  41  ARG41       0.1354
     74  NH2       19.1800  -66.1660   30.4080 N.pl3  41  ARG41       0.1354
     75  N         20.1480  -80.0830   23.6370 N.3    75  ILE75      -0.1245
     76  CA        18.7530  -80.1080   24.0710 C.3    75  ILE75       0.1561
     77  C         18.1130  -81.4600   23.7700 C.2    75  ILE75       0.2260
     78  O         17.3740  -82.0130   24.5970 O.2    75  ILE75      -0.2867
     79  CB        17.9890  -78.9500   23.4060 C.3    75  ILE75       0.0252
     80  CG1       18.5980  -77.6090   23.8360 C.3    75  ILE75       0.0019
     81  CG2       16.4960  -79.0330   23.7200 C.3    75  ILE75       0.0019
     82  CD1       18.1980  -76.4140   22.9660 C.3    75  ILE75       0.0001
     83  N         11.0860  -73.5080   31.2300 N.3    88  SER88      -0.1202
     84  CA        11.2810  -72.2430   31.9530 C.3    88  SER88       0.2020
     85  C         11.9120  -71.2290   31.0030 C.2    88  SER88       0.2619
     86  O         13.0630  -70.8200   31.1690 O.2    88  SER88      -0.2717
     87  CB        12.1480  -72.4410   33.1940 C.3    88  SER88       0.2103
     88  OG        11.5300  -73.3300   34.0930 O.3    88  SER88      -0.2182
     89  N         11.1590  -70.8330   29.9870 N.am   89  VAL89      -0.1965
     90  CA        11.6540  -69.9190   28.9740 C.3    89  VAL89       0.1727
     91  C         10.9570  -68.5780   29.1600 C.2    89  VAL89       0.2616
     92  O         10.0470  -68.4300   29.9740 O.2    89  VAL89      -0.2715
     93  CB        11.4490  -70.4680   27.5490 C.3    89  VAL89       0.0290
     94  CG1       12.1780  -71.7990   27.3860 C.3    89  VAL89       0.0023
     95  CG2        9.9660  -70.6300   27.2580 C.3    89  VAL89       0.0023
     96  N         11.4000  -67.5880   28.3990 N.am   90  ASN90      -0.1972
     97  CA        10.8000  -66.2660   28.4800 C.3    90  ASN90       0.1688
     98  C          9.6160  -66.2050   27.5280 C.2    90  ASN90       0.2292
     99  O          9.6530  -66.7710   26.4310 O.2    90  ASN90      -0.2864
    100  CB        11.8190  -65.1860   28.1210 C.3    90  ASN90       0.1181
    101  CG        12.4920  -65.4540   26.7920 C.2    90  ASN90       0.2629
    102  OD1       12.9520  -66.5720   26.5280 O.2    90  ASN90      -0.2716
    103  ND2       12.5440  -64.4340   25.9390 N.am   90  ASN90      -0.0877
    104  N          7.2880  -69.3130   22.0980 N.3   108  TYR108     -0.1241
    105  CA         8.4790  -70.0010   22.5940 C.3   108  TYR108      0.1605
    106  C          8.1090  -71.2090   23.4340 C.2   108  TYR108      0.2264
    107  O          8.7960  -72.2370   23.3830 O.2   108  TYR108     -0.2867
    108  CB         9.3720  -69.0520   23.3940 C.3   108  TYR108      0.0534
    109  CG         9.9930  -67.9460   22.5770 C.ar  108  TYR108     -0.0201
    110  CD1       10.5370  -68.2030   21.3220 C.ar  108  TYR108     -0.0009
    111  CD2       10.0490  -66.6490   23.0610 C.ar  108  TYR108     -0.0009
    112  CE1       11.1110  -67.1920   20.5690 C.ar  108  TYR108      0.0417
    113  CE2       10.6200  -65.6290   22.3150 C.ar  108  TYR108      0.0417
    114  CZ        11.1500  -65.9070   21.0720 C.ar  108  TYR108      0.1957
    115  OH        11.7170  -64.8960   20.3310 O.3   108  TYR108     -0.2866
    116  N          7.1750  -73.8320   20.8560 N.3   111  ALA111     -0.1231
    117  CA         8.3580  -74.4100   20.2260 C.3   111  ALA111      0.1694
    118  C          9.0220  -75.4390   21.1360 C.2   111  ALA111      0.2592
    119  O          9.5130  -76.4690   20.6610 O.2   111  ALA111     -0.2718
    120  CB         9.3460  -73.3060   19.8500 C.3   111  ALA111      0.0304
    121  N          9.0430  -75.1830   22.4460 N.am  112  CYS112     -0.1970
    122  CA         9.5640  -76.1770   23.3830 C.3   112  CYS112      0.1712
    123  C          8.7150  -77.4380   23.3720 C.2   112  CYS112      0.2296
    124  O          9.2470  -78.5550   23.3900 O.2   112  CYS112     -0.2864
    125  CB         9.6200  -75.6010   24.7960 C.3   112  CYS112      0.0983
    126  SG        10.8820  -74.3540   25.0270 S.3   112  CYS112     -0.0798
    127  N          9.4810  -79.3820   20.3270 N.3   115  ARG115     -0.1245
    128  CA        10.7850  -80.0210   20.4240 C.3   115  ARG115      0.1563
    129  C         10.7450  -81.2230   21.3610 C.2   115  ARG115      0.2260
    130  O         11.4210  -82.2250   21.1050 O.2   115  ARG115     -0.2867
    131  CB        11.8470  -79.0180   20.8740 C.3   115  ARG115      0.0307
    132  CG        13.2490  -79.5910   20.7710 C.3   115  ARG115      0.0489
    133  CD        14.2830  -78.5220   20.4880 C.3   115  ARG115      0.2205
    134  NE        15.5570  -79.1050   20.0700 N.pl3 115  ARG115     -0.0865
    135  CZ        16.6440  -78.3920   19.7960 C.cat 115  ARG115      0.5346
    136  NH1       16.6090  -77.0670   19.8930 N.pl3 115  ARG115      0.1354
    137  NH2       17.7650  -78.9980   19.4240 N.pl3 115  ARG115      0.1354
    138  N          7.3630  -70.9370   35.5060 N.3   130  SER130     -0.1202
    139  CA         7.6960  -69.5490   35.2200 C.3   130  SER130      0.2020
    140  C          7.1020  -68.6710   36.3160 C.2   130  SER130      0.2619
    141  O          6.2910  -69.1230   37.1360 O.2   130  SER130     -0.2717
    142  CB         7.1950  -69.1210   33.8300 C.3   130  SER130      0.2103
    143  OG         5.7920  -69.2790   33.7210 O.3   130  SER130     -0.2182
    144  N          7.5110  -67.4050   36.3330 N.am  131  THR131     -0.1952
    145  CA         6.9050  -66.4950   37.2990 C.3   131  THR131      0.1897
    146  C          5.5630  -65.9450   36.8310 C.2   131  THR131      0.2313
    147  O          4.7500  -65.5450   37.6710 O.2   131  THR131     -0.2863
    148  CB         7.8510  -65.3390   37.6200 C.3   131  THR131      0.1794
    149  OG1        8.1240  -64.5870   36.4310 O.3   131  THR131     -0.2208
    150  CG2        9.1630  -65.8730   38.2030 C.3   131  THR131      0.0378
    151  N         14.1530  -62.6000   42.6680 N.3   165  GLU165     -0.1245
    152  CA        15.5610  -62.4790   42.3220 C.3   165  GLU165      0.1567
    153  C         16.2950  -61.6950   43.4020 C.2   165  GLU165      0.2260
    154  O         15.7260  -60.8120   44.0520 O.2   165  GLU165     -0.2867
    155  CB        15.7210  -61.8110   40.9570 C.3   165  GLU165      0.0388
    156  CG        15.1660  -62.6690   39.8170 C.3   165  GLU165      0.1160
    157  CD        15.3290  -62.0120   38.4650 C.2   165  GLU165      0.3649
    158  OE1       16.1040  -61.0320   38.3650 O.co2 165  GLU165     -0.2457
    159  OE2       14.6850  -62.4740   37.5040 O.co2 165  GLU165     -0.2457
    160  N         10.7370  -58.3780   35.5360 N.3   275  SER275     -0.1217
    161  CA        10.0160  -59.0450   34.4600 C.3   275  SER275      0.1889
    162  C          8.7090  -59.6810   34.9110 C.2   275  SER275      0.2288
    163  O          8.0160  -60.2810   34.0820 O.2   275  SER275     -0.2866
    164  CB        10.9050  -60.1130   33.8160 C.3   275  SER275      0.2089
    165  OG        11.2680  -61.0850   34.7820 O.3   275  SER275     -0.2183
    166  N         15.4780  -55.8000   33.8830 N.3   346  ARG346     -0.1245
    167  CA        14.1990  -55.8380   33.1770 C.3   346  ARG346      0.1563
    168  C         13.1730  -54.9430   33.8720 C.2   346  ARG346      0.2260
    169  O         12.9030  -55.0920   35.0700 O.2   346  ARG346     -0.2867
    170  CB        13.6940  -57.2830   33.0670 C.3   346  ARG346      0.0307
    171  CG        14.5190  -58.0810   32.0400 C.3   346  ARG346      0.0489
    172  CD        14.1760  -59.5610   31.9500 C.3   346  ARG346      0.2205
    173  NE        14.4850  -60.2830   33.1820 N.pl3 346  ARG346     -0.0865
    174  CZ        14.2520  -61.5760   33.3660 C.cat 346  ARG346      0.5346
    175  NH1       13.7190  -62.3020   32.3880 N.pl3 346  ARG346      0.1354
    176  NH2       14.5600  -62.1530   34.5250 N.pl3 346  ARG346      0.1354
@<TRIPOS>BOND
     1   137   135    1
     2   135   136    1
     3   135   134    2
     4   120   117    1
     5   134   133    1
     6   117   116    1
     7   117   118    1
     8   127   128    1
     9   115   114    1
    10   128   131    1
    11   128   129    1
    12   133   132    1
    13   112   114   ar
    14   112   110   ar
    15   119   118    2
    16   132   131    1
    17   114   113   ar
    18   130   129    2
    19   118   121   am
    20   110   109   ar
    21    54    53    1
    22    53    55    1
    23    53    50    1
    24    52    51    2
    25   104   105    1
    26   113   111   ar
    27   121   122    1
    28   109   111   ar
    29   109   108    1
    30   105   108    1
    31   105   106    1
    32    50    51    1
    33    50    49    1
    34    51    56   am
    35    82    80    1
    36   123   122    1
    37   123   124    2
    38   107   106    2
    39   122   125    1
    40    79    81    1
    41    79    80    1
    42    79    76    1
    43    75    76    1
    44    77    76    1
    45    77    78    2
    46    56    57    1
    47    57    58    1
    48    57    60    1
    49    49    43   am
    50    58    59    2
    51    44    43    2
    52    62    61    2
    53   125   126    1
    54    43    42    1
    55    60    61    1
    56    61    63   am
    57   103   101   am
    58    47    46   ar
    59    99    98    2
    60    42    41    1
    61    42    45    1
    62     8     6    1
    63     7     5    1
    64   102   101    2
    65   101   100    1
    66    46    45    1
    67    46    48   ar
    68    64    65    1
    69    95    93    1
    70    94    93    1
    71     6     5    1
    72    98    97    1
    73    93    90    1
    74     5     2    1
    75   100    97    1
    76    96    97    1
    77    96    91   am
    78    68    65    1
    79    68    69    1
    80    65    66    1
    81     2     3    1
    82     2     1    1
    83    90    91    1
    84    90    89    1
    85    91    92    2
    86    66    67    2
    87     9     3   am
    88     9    10    1
    89     3     4    2
    90    70    69    1
    91    70    71    1
    92    10    11    1
    93    89    85   am
    94    71    72    2
    95    74    72    1
    96    72    73    1
    97    13    11   am
    98    13    14    1
    99    11    12    2
   100    85    86    2
   101    85    84    1
   102    17    14    1
   103    83    84    1
   104    14    15    1
   105   172   171    1
   106   172   173    1
   107    84    87    1
   108   171   170    1
   109    15    16    2
   110    15    18   am
   111   175   174    1
   112    18    19    1
   113    19    20    1
   114   170   167    1
   115   167   168    1
   116   167   166    1
   117   173   174    2
   118    87    88    1
   119   174   176    1
   120   143   142    1
   121   164   161    1
   122   164   165    1
   123   142   139    1
   124   168   169    2
   125   163   162    2
   126    20    22   am
   127    20    21    2
   128   161   162    1
   129   161   160    1
   130    30    28   ar
   131    30    32   ar
   132    22    23    1
   133    28    27   ar
   134   139   138    1
   135   139   140    1
   136    33    32    1
   137    32    31   ar
   138    27    26    1
   139    27    29   ar
   140    23    26    1
   141    23    24    1
   142    34    35    1
   143    34    24   am
   144    38    40    1
   145    38    39    1
   146    38    35    1
   147   140   144   am
   148   140   141    2
   149   144   145    1
   150   149   148    1
   151    36    35    1
   152    36    37    2
   153   146   145    1
   154   146   147    2
   155    24    25    2
   156    31    29   ar
   157   145   148    1
   158   159   157   ar
   159   148   150    1
   160   158   157   ar
   161   157   156    1
   162   156   155    1
   163   155   152    1
   164   152   151    1
   165   152   153    1
   166   153   154    2
