@<TRIPOS>MOLECULE
tmp/5vrgA05.pdb
 185 187 0 0 0
SMALL
GASTEIGER

@<TRIPOS>ATOM
      1  N         -1.0950  -26.8470    7.3810 N.3    71  TRP71      -0.1227
      2  CA        -1.0200  -25.4030    7.5780 C.3    71  TRP71       0.1737
      3  C         -1.7850  -24.6270    6.5040 C.2    71  TRP71       0.2595
      4  O         -2.2050  -23.4920    6.7670 O.2    71  TRP71      -0.2718
      5  CB         0.4490  -24.9520    7.6340 C.3    71  TRP71       0.0564
      6  CG         1.2860  -25.5030    6.5320 C.ar   71  TRP71       0.0003
      7  CD1        2.0970  -26.5930    6.5910 C.ar   71  TRP71       0.0946
      8  CD2        1.4070  -24.9830    5.2050 C.ar   71  TRP71       0.0152
      9  NE1        2.7080  -26.7960    5.3800 N.ar   71  TRP71      -0.2442
     10  CE2        2.2960  -25.8250    4.5080 C.ar   71  TRP71       0.0810
     11  CE3        0.8600  -23.8760    4.5380 C.ar   71  TRP71       0.0012
     12  CZ2        2.6450  -25.6030    3.1720 C.ar   71  TRP71       0.0191
     13  CZ3        1.1990  -23.6630    3.2080 C.ar   71  TRP71       0.0001
     14  CH2        2.0780  -24.5210    2.5410 C.ar   71  TRP71       0.0015
     15  N         -2.0090  -25.2050    5.3150 N.am   72  VAL72      -0.1980
     16  CA        -2.8080  -24.4960    4.3090 C.3    72  VAL72       0.1595
     17  C         -4.1730  -24.1260    4.8660 C.2    72  VAL72       0.2287
     18  O         -4.8470  -23.2540    4.3090 O.2    72  VAL72      -0.2864
     19  CB        -2.9880  -25.2990    2.9980 C.3    72  VAL72       0.0276
     20  CG1       -1.6460  -25.7250    2.4300 C.3    72  VAL72       0.0022
     21  CG2       -3.9040  -26.4940    3.2170 C.3    72  VAL72       0.0022
     22  N         -4.3250  -20.2000    5.3990 N.3    75  SER75      -0.1217
     23  CA        -4.5640  -19.5490    4.1210 C.3    75  SER75       0.1889
     24  C         -6.0400  -19.6830    3.7670 C.2    75  SER75       0.2288
     25  O         -6.7620  -18.6830    3.6920 O.2    75  SER75      -0.2866
     26  CB        -3.6820  -20.1860    3.0310 C.3    75  SER75       0.2089
     27  OG        -2.3940  -20.5880    3.5250 O.3    75  SER75      -0.2183
     28  N         -7.4270  -31.7900    0.0020 N.3    94  LEU94      -0.1245
     29  CA        -6.1060  -31.5480   -0.5660 C.3    94  LEU94       0.1561
     30  C         -5.0980  -32.6220   -0.1220 C.2    94  LEU94       0.2260
     31  O         -4.3340  -33.1580   -0.9410 O.2    94  LEU94      -0.2867
     32  CB        -5.6220  -30.1510   -0.1740 C.3    94  LEU94       0.0270
     33  CG        -4.1660  -29.9140   -0.5900 C.3    94  LEU94       0.0019
     34  CD1       -4.0620  -29.8540   -2.1130 C.3    94  LEU94       0.0001
     35  CD2       -3.5850  -28.6460    0.0170 C.3    94  LEU94       0.0001
     36  N         -6.0270  -35.5670   -2.1490 N.3    97  TYR97      -0.1227
     37  CA        -5.6430  -35.4770   -3.5510 C.3    97  TYR97       0.1736
     38  C         -4.1550  -35.7760   -3.7500 C.2    97  TYR97       0.2595
     39  O         -3.7740  -36.4490   -4.7170 O.2    97  TYR97      -0.2718
     40  CB        -5.9810  -34.0940   -4.1000 C.3    97  TYR97       0.0548
     41  CG        -5.2230  -33.8030   -5.3660 C.ar   97  TYR97      -0.0200
     42  CD1       -5.6700  -34.2890   -6.5860 C.ar   97  TYR97      -0.0009
     43  CD2       -4.0350  -33.0720   -5.3370 C.ar   97  TYR97      -0.0009
     44  CE1       -4.9630  -34.0350   -7.7490 C.ar   97  TYR97       0.0417
     45  CE2       -3.3230  -32.8230   -6.4850 C.ar   97  TYR97       0.0417
     46  CZ        -3.7940  -33.3030   -7.6920 C.ar   97  TYR97       0.1957
     47  OH        -3.0910  -33.0500   -8.8420 O.3    97  TYR97      -0.2866
     48  N         -3.2910  -35.2460   -2.8750 N.am   98  LEU98      -0.1980
     49  CA        -1.8650  -35.4830   -3.0570 C.3    98  LEU98       0.1596
     50  C         -1.5310  -36.9470   -2.8110 C.2    98  LEU98       0.2287
     51  O         -0.6590  -37.5220   -3.4770 O.2    98  LEU98      -0.2864
     52  CB        -1.0510  -34.5790   -2.1340 C.3    98  LEU98       0.0297
     53  CG        -1.3320  -33.0760   -2.2000 C.3    98  LEU98       0.0022
     54  CD1       -0.7080  -32.3810   -0.9810 C.3    98  LEU98       0.0001
     55  CD2       -0.8100  -32.4600   -3.4810 C.3    98  LEU98       0.0001
     56  N         -2.1910  -30.1790  -12.8720 N.3   140  LEU140     -0.1245
     57  CA        -2.9930  -29.0730  -12.3800 C.3   140  LEU140      0.1561
     58  C         -2.1790  -27.9750  -11.7660 C.2   140  LEU140      0.2260
     59  O         -2.5360  -27.4370  -10.7640 O.2   140  LEU140     -0.2867
     60  CB        -4.0580  -29.5620  -11.4030 C.3   140  LEU140      0.0270
     61  CG        -5.0340  -30.5880  -11.9420 C.3   140  LEU140      0.0019
     62  CD1       -5.9530  -31.1410  -10.8790 C.3   140  LEU140      0.0001
     63  CD2       -5.8060  -29.9790  -13.0800 C.3   140  LEU140      0.0001
     64  N          0.6300  -28.4200  -10.3070 N.3   142  GLY142     -0.1210
     65  CA         1.3870  -29.1550   -9.3650 C.3   142  GLY142      0.1956
     66  C          1.5630  -28.6040   -7.9990 C.2   142  GLY142      0.2611
     67  O          1.3560  -27.4690   -7.7120 O.2   142  GLY142     -0.2717
     68  N          2.0350  -29.4720   -7.1560 N.am  143  PHE143     -0.1976
     69  CA         2.3350  -29.0940   -5.7820 C.3   143  PHE143      0.1639
     70  C          3.4300  -29.9980   -5.2450 C.2   143  PHE143      0.2290
     71  O          3.1480  -30.9150   -4.4690 O.2   143  PHE143     -0.2864
     72  CB         1.0930  -29.1810   -4.8850 C.3   143  PHE143      0.0560
     73  CG         1.2320  -28.4270   -3.5830 C.ar  143  PHE143     -0.0200
     74  CD1        1.5800  -27.0730   -3.5810 C.ar  143  PHE143     -0.0042
     75  CD2        1.0380  -29.0680   -2.3660 C.ar  143  PHE143     -0.0042
     76  CE1        1.7150  -26.3740   -2.3910 C.ar  143  PHE143     -0.0003
     77  CE2        1.1660  -28.3790   -1.1550 C.ar  143  PHE143     -0.0003
     78  CZ         1.5040  -27.0240   -1.1720 C.ar  143  PHE143     -0.0000
     79  N          5.4000  -30.0140   -2.8090 N.3   145  TRP145     -0.1241
     80  CA         5.7730  -29.7650   -1.4210 C.3   145  TRP145      0.1605
     81  C          6.1280  -31.0750   -0.7160 C.2   145  TRP145      0.2264
     82  O          5.5860  -32.1430   -1.0240 O.2   145  TRP145     -0.2867
     83  CB         4.6260  -29.0780   -0.6820 C.3   145  TRP145      0.0550
     84  CG         5.0300  -28.0960    0.3650 C.ar  145  TRP145      0.0003
     85  CD1        5.2420  -28.3520    1.6940 C.ar  145  TRP145      0.0946
     86  CD2        5.2220  -26.6800    0.1940 C.ar  145  TRP145      0.0152
     87  NE1        5.5800  -27.1890    2.3560 N.ar  145  TRP145     -0.2442
     88  CE2        5.5720  -26.1480    1.4630 C.ar  145  TRP145      0.0810
     89  CE3        5.1460  -25.8170   -0.9040 C.ar  145  TRP145      0.0012
     90  CZ2        5.8530  -24.7900    1.6600 C.ar  145  TRP145      0.0191
     91  CZ3        5.4180  -24.4570   -0.7060 C.ar  145  TRP145      0.0001
     92  CH2        5.7610  -23.9570    0.5690 C.ar  145  TRP145      0.0015
     93  N         -0.3560  -19.2610   -7.8610 N.3   336  VAL336     -0.1231
     94  CA        -0.8810  -20.1550   -6.8370 C.3   336  VAL336      0.1678
     95  C         -2.3310  -20.4690   -7.1760 C.2   336  VAL336      0.2434
     96  O         -3.1510  -19.5420   -7.2330 O.2   336  VAL336     -0.2733
     97  CB        -0.7750  -19.5320   -5.4380 C.3   336  VAL336      0.0265
     98  CG1       -1.5860  -20.3520   -4.4490 C.3   336  VAL336      0.0020
     99  CG2        0.6990  -19.4070   -4.9990 C.3   336  VAL336      0.0020
    100  N         -2.6620  -21.7350   -7.3690 N.am  337  PRO337     -0.2718
    101  CA        -4.0270  -22.0870   -7.6920 C.3   337  PRO337      0.1535
    102  C         -4.8850  -21.6380   -6.5530 C.2   337  PRO337      0.2598
    103  O         -4.4380  -21.6570   -5.4290 O.2   337  PRO337     -0.2715
    104  CB        -3.9930  -23.5910   -7.7540 C.3   337  PRO337      0.0310
    105  CG        -2.5960  -23.9350   -7.9520 C.3   337  PRO337      0.0237
    106  CD        -1.8150  -22.9100   -7.2420 C.3   337  PRO337      0.0939
    107  N         -6.0650  -21.1230   -6.8670 N.am  338  PHE338     -0.1974
    108  CA        -7.0260  -20.5790   -5.9070 C.3   338  PHE338      0.1639
    109  C         -6.6760  -19.1890   -5.3660 C.2   338  PHE338      0.2290
    110  O         -7.4750  -18.3010   -5.4350 O.2   338  PHE338     -0.2864
    111  CB        -7.4080  -21.6090   -4.8490 C.3   338  PHE338      0.0560
    112  CG        -7.9480  -22.8590   -5.4330 C.ar  338  PHE338     -0.0200
    113  CD1       -9.2460  -22.9200   -5.8750 C.ar  338  PHE338     -0.0042
    114  CD2       -7.1580  -23.9590   -5.5800 C.ar  338  PHE338     -0.0042
    115  CE1       -9.7560  -24.0680   -6.4380 C.ar  338  PHE338     -0.0003
    116  CE2       -7.6580  -25.1120   -6.1370 C.ar  338  PHE338     -0.0003
    117  CZ        -8.9550  -25.1670   -6.5740 C.ar  338  PHE338     -0.0000
    118  N         -8.3620  -22.4660  -10.7830 N.3   343  PRO343     -0.2102
    119  CA        -7.8280  -23.5010  -11.6500 C.3   343  PRO343      0.1504
    120  C         -8.9170  -24.0510  -12.4970 C.2   343  PRO343      0.2575
    121  O        -10.0030  -24.2270  -11.9780 O.2   343  PRO343     -0.2718
    122  CB        -7.3150  -24.5550  -10.6820 C.3   343  PRO343      0.0282
    123  CG        -7.6200  -24.0520   -9.3280 C.3   343  PRO343      0.0208
    124  CD        -8.6270  -22.9700   -9.4450 C.3   343  PRO343      0.0893
    125  N         -8.5980  -24.2880  -13.7620 N.am  344  LEU344     -0.1980
    126  CA        -9.5030  -24.8080  -14.7500 C.3   344  LEU344      0.1596
    127  C        -10.3320  -23.6270  -15.1750 C.2   344  LEU344      0.2287
    128  O        -11.1250  -23.0960  -14.4210 O.2   344  LEU344     -0.2864
    129  CB       -10.3610  -25.9420  -14.2030 C.3   344  LEU344      0.0297
    130  CG        -9.7590  -27.3500  -14.1830 C.3   344  LEU344      0.0022
    131  CD1       -8.6290  -27.5290  -15.1790 C.3   344  LEU344      0.0001
    132  CD2       -9.3810  -27.8480  -12.8040 C.3   344  LEU344      0.0001
    133  N          7.3490  -15.9560   -4.2160 N.3   374  CYS374     -0.1221
    134  CA         6.5670  -16.8940   -3.3960 C.3   374  CYS374      0.1808
    135  C          7.1140  -18.3010   -3.6730 C.2   374  CYS374      0.2601
    136  O          8.3420  -18.4910   -3.7000 O.2   374  CYS374     -0.2717
    137  CB         5.0840  -16.7090   -3.6460 C.3   374  CYS374      0.0970
    138  SG         4.0350  -17.2490   -2.2570 S.3   374  CYS374     -0.0800
    139  N          6.2600  -19.3010   -3.8840 N.am  375  TYR375     -0.1976
    140  CA         6.7730  -20.6630   -3.9500 C.3   375  TYR375      0.1639
    141  C          7.3350  -21.0160   -5.3190 C.2   375  TYR375      0.2290
    142  O          7.6920  -22.1780   -5.5370 O.2   375  TYR375     -0.2864
    143  CB         5.7040  -21.6700   -3.4630 C.3   375  TYR375      0.0560
    144  CG         4.6410  -22.2020   -4.4130 C.ar  375  TYR375     -0.0198
    145  CD1        4.9550  -23.1230   -5.4070 C.ar  375  TYR375     -0.0009
    146  CD2        3.3010  -21.8830   -4.2270 C.ar  375  TYR375     -0.0009
    147  CE1        3.9940  -23.6450   -6.2430 C.ar  375  TYR375      0.0417
    148  CE2        2.3140  -22.4050   -5.0650 C.ar  375  TYR375      0.0417
    149  CZ         2.6700  -23.2900   -6.0760 C.ar  375  TYR375      0.1957
    150  OH         1.7010  -23.8170   -6.9220 O.3   375  TYR375     -0.2866
    151  N          0.2330  -15.6820    5.0320 N.3   402  TRP402     -0.1227
    152  CA        -0.9610  -16.5010    4.8460 C.3   402  TRP402      0.1737
    153  C         -0.8950  -17.7880    5.6590 C.2   402  TRP402      0.2595
    154  O         -1.9420  -18.3220    6.0460 O.2   402  TRP402     -0.2718
    155  CB        -1.1720  -16.8330    3.3620 C.3   402  TRP402      0.0564
    156  CG        -1.2170  -15.6350    2.4530 C.ar  402  TRP402      0.0003
    157  CD1       -0.1480  -14.9060    2.0000 C.ar  402  TRP402      0.0946
    158  CD2       -2.3900  -15.0250    1.8800 C.ar  402  TRP402      0.0152
    159  NE1       -0.5860  -13.8800    1.1880 N.ar  402  TRP402     -0.2442
    160  CE2       -1.9540  -13.9300    1.0980 C.ar  402  TRP402      0.0810
    161  CE3       -3.7660  -15.2980    1.9510 C.ar  402  TRP402      0.0012
    162  CZ2       -2.8480  -13.1100    0.3890 C.ar  402  TRP402      0.0191
    163  CZ3       -4.6540  -14.4750    1.2500 C.ar  402  TRP402      0.0001
    164  CH2       -4.1880  -13.3980    0.4820 C.ar  402  TRP402      0.0015
    165  N          0.3090  -18.3030    5.9270 N.am  403  PHE403     -0.1976
    166  CA         0.4610  -19.5760    6.6220 C.3   403  PHE403      0.1639
    167  C          0.5810  -19.4240    8.1300 C.2   403  PHE403      0.2290
    168  O          0.8170  -20.4210    8.8160 O.2   403  PHE403     -0.2864
    169  CB         1.6940  -20.3340    6.1270 C.3   403  PHE403      0.0560
    170  CG         1.9480  -20.2240    4.6600 C.ar  403  PHE403     -0.0200
    171  CD1        3.2560  -20.2640    4.1880 C.ar  403  PHE403     -0.0042
    172  CD2        0.8970  -20.1320    3.7500 C.ar  403  PHE403     -0.0042
    173  CE1        3.5310  -20.1820    2.8390 C.ar  403  PHE403     -0.0003
    174  CE2        1.1510  -20.0470    2.4010 C.ar  403  PHE403     -0.0003
    175  CZ         2.4820  -20.0750    1.9370 C.ar  403  PHE403     -0.0000
    176  N          8.7180  -23.8050    3.4180 N.3   412  HIS412     -0.1241
    177  CA         9.0030  -22.9350    2.2800 C.3   412  HIS412      0.1621
    178  C         10.4470  -22.4660    2.3150 C.2   412  HIS412      0.2264
    179  O         11.1520  -22.5280    1.3050 O.2   412  HIS412     -0.2867
    180  CB         8.0420  -21.7430    2.2870 C.3   412  HIS412      0.0745
    181  CG         8.0440  -20.9370    1.0250 C.ar  412  HIS412      0.0817
    182  ND1        7.2110  -19.8530    0.8360 N.ar  412  HIS412     -0.2268
    183  CD2        8.7630  -21.0630   -0.1180 C.ar  412  HIS412      0.1154
    184  CE1        7.4180  -19.3460   -0.3680 C.ar  412  HIS412      0.1986
    185  NE2        8.3570  -20.0600   -0.9650 N.ar  412  HIS412     -0.2212
@<TRIPOS>BOND
     1   131   130    1
     2   127   126    1
     3   127   128    2
     4   126   129    1
     5   126   125    1
     6   129   130    1
     7   130   132    1
     8   125   120   am
     9    63    61    1
    10    56    57    1
    11   120   121    2
    12   120   119    1
    13    57    58    1
    14    57    60    1
    15    61    60    1
    16    61    62    1
    17    58    59    2
    18   119   118    1
    19   119   122    1
    20   118   124    1
    21   122   123    1
    22    64    65    1
    23   124   123    1
    24    65    66    1
    25    47    46    1
    26    66    67    2
    27    66    68   am
    28   105   104    1
    29   105   106    1
    30    93    94    1
    31   104   101    1
    32    44    46   ar
    33    44    42   ar
    34    46    45   ar
    35   101   100    1
    36   101   102    1
    37   100   106    1
    38   100    95   am
    39    96    95    2
    40    95    94    1
    41    68    69    1
    42   150   149    1
    43   107   102   am
    44   107   108    1
    45    94    97    1
    46    42    41   ar
    47   117   115   ar
    48   117   116   ar
    49   102   103    2
    50    45    43   ar
    51   115   113   ar
    52   147   149   ar
    53   147   145   ar
    54   116   114   ar
    55   149   148   ar
    56   108   109    1
    57   108   111    1
    58   113   112   ar
    59    69    70    1
    60    69    72    1
    61   114   112   ar
    62   142   141    2
    63    97    99    1
    64    97    98    1
    65   110   109    2
    66   112   111    1
    67   145   144   ar
    68    41    43   ar
    69    41    40    1
    70   141   140    1
    71    70    71    2
    72   148   146   ar
    73    72    73    1
    74    39    38    2
    75   144   146   ar
    76   144   143    1
    77   133   134    1
    78    40    37    1
    79   140   139    1
    80   140   143    1
    81   139   135   am
    82    38    37    1
    83    38    48   am
    84   136   135    2
    85   135   134    1
    86   137   134    1
    87   137   138    1
    88    73    74   ar
    89    73    75   ar
    90    74    76   ar
    91    37    36    1
    92    55    53    1
    93    51    50    2
    94    49    48    1
    95    49    50    1
    96    49    52    1
    97    79    80    1
    98    76    78   ar
    99    75    77   ar
   100    53    52    1
   101    53    54    1
   102    34    33    1
   103    80    81    1
   104    80    83    1
   105    78    77   ar
   106    82    81    2
   107   185   184   ar
   108   185   183   ar
   109    31    30    2
   110    89    91   ar
   111    89    86   ar
   112    91    92   ar
   113    83    84    1
   114    33    32    1
   115    33    35    1
   116    29    32    1
   117    29    30    1
   118    29    28    1
   119   184   182   ar
   120   183   181   ar
   121    86    84   ar
   122    86    88   ar
   123    84    85   ar
   124   162   164   ar
   125   162   160   ar
   126   164   163   ar
   127    92    90   ar
   128   182   181   ar
   129   181   180    1
   130   160   159   ar
   131   160   158   ar
   132   159   157   ar
   133   163   161   ar
   134   179   178    2
   135    88    90   ar
   136    88    87   ar
   137    85    87   ar
   138   158   161   ar
   139   158   156   ar
   140   175   174   ar
   141   175   173   ar
   142   157   156   ar
   143   177   180    1
   144   177   178    1
   145   177   176    1
   146   174   172   ar
   147    20    19    1
   148   156   155    1
   149    14    12   ar
   150    14    13   ar
   151   173   171   ar
   152    19    21    1
   153    19    16    1
   154    26    27    1
   155    26    23    1
   156    12    10   ar
   157    13    11   ar
   158   155   152    1
   159    25    24    2
   160   172   170   ar
   161    24    23    1
   162    23    22    1
   163   171   170   ar
   164    16    17    1
   165    16    15    1
   166    18    17    2
   167    10     8   ar
   168    10     9   ar
   169    11     8   ar
   170   170   169    1
   171   152   151    1
   172   152   153    1
   173     8     6   ar
   174    15     3   am
   175     9     7   ar
   176   153   165   am
   177   153   154    2
   178   165   166    1
   179   169   166    1
   180     3     4    2
   181     3     2    1
   182     6     7   ar
   183     6     5    1
   184   166   167    1
   185     1     2    1
   186     2     5    1
   187   167   168    2
