@<TRIPOS>MOLECULE
tmp/5vrgA04.pdb
 106 99 0 0 0
SMALL
GASTEIGER

@<TRIPOS>ATOM
      1  N          0.5100  -57.6930   11.9010 N.3     4  ILE4       -0.1231
      2  CA         1.0030  -56.8520   10.8210 C.3     4  ILE4        0.1692
      3  C          0.5460  -57.3690    9.4610 C.2     4  ILE4        0.2591
      4  O          0.5320  -56.6130    8.4800 O.2     4  ILE4       -0.2718
      5  CB         2.5350  -56.7360   10.9640 C.3     4  ILE4        0.0266
      6  CG1        2.8740  -55.6990   12.0440 C.3     4  ILE4        0.0019
      7  CG2        3.2210  -56.3700    9.6590 C.3     4  ILE4        0.0020
      8  CD1        4.3310  -55.7200   12.5110 C.3     4  ILE4        0.0001
      9  N          0.1020  -58.6230    9.3850 N.am    5  GLU5       -0.1979
     10  CA        -0.4170  -59.1350    8.1250 C.3     5  GLU5        0.1602
     11  C         -1.7940  -58.5730    7.7670 C.2     5  GLU5        0.2287
     12  O         -2.2010  -58.6830    6.6030 O.2     5  GLU5       -0.2864
     13  CB        -0.4720  -60.6640    8.1650 C.3     5  GLU5        0.0415
     14  CG         0.8900  -61.3220    8.0080 C.3     5  GLU5        0.1163
     15  CD         1.4990  -61.0880    6.6340 C.2     5  GLU5        0.3649
     16  OE1        0.7420  -61.1070    5.6380 O.co2   5  GLU5       -0.2457
     17  OE2        2.7300  -60.8880    6.5460 O.co2   5  GLU5       -0.2457
     18  N         -1.8640  -52.5350    8.4170 N.3    10  ARG10      -0.1245
     19  CA        -0.8180  -51.9170    7.6210 C.3    10  ARG10       0.1563
     20  C         -1.2080  -50.5040    7.2380 C.2    10  ARG10       0.2260
     21  O         -0.3310  -49.6440    7.0530 O.2    10  ARG10      -0.2867
     22  CB        -0.5350  -52.7610    6.3760 C.3    10  ARG10       0.0307
     23  CG         0.2120  -54.0390    6.6750 C.3    10  ARG10       0.0489
     24  CD         1.1440  -54.4180    5.5430 C.3    10  ARG10       0.2205
     25  NE         1.5600  -55.8200    5.6280 N.pl3  10  ARG10      -0.0865
     26  CZ         2.3700  -56.4250    4.7570 C.cat  10  ARG10       0.5346
     27  NH1        2.8660  -55.7520    3.7200 N.pl3  10  ARG10       0.1354
     28  NH2        2.6810  -57.7100    4.9190 N.pl3  10  ARG10       0.1354
     29  N         -0.5450  -48.3120   10.3270 N.3    13  LEU13      -0.1245
     30  CA         0.8970  -48.1340   10.3720 C.3    13  LEU13       0.1561
     31  C          1.3510  -47.2120    9.2660 C.2    13  LEU13       0.2260
     32  O          2.2900  -46.4330    9.4610 O.2    13  LEU13      -0.2867
     33  CB         1.5890  -49.4900   10.2720 C.3    13  LEU13       0.0270
     34  CG         1.5640  -50.3320   11.5520 C.3    13  LEU13       0.0019
     35  CD1        1.8780  -51.8290   11.3010 C.3    13  LEU13       0.0001
     36  CD2        2.5090  -49.7370   12.6120 C.3    13  LEU13       0.0001
     37  N          4.1070  -44.0170    9.8350 N.3    17  PHE17      -0.1241
     38  CA         5.3630  -43.8390    9.1000 C.3    17  PHE17       0.1605
     39  C          5.2880  -42.6280    8.1690 C.2    17  PHE17       0.2264
     40  O          6.2570  -41.8630    8.0520 O.2    17  PHE17      -0.2867
     41  CB         5.7070  -45.1000    8.3000 C.3    17  PHE17       0.0534
     42  CG         6.3300  -46.1980    9.1290 C.ar   17  PHE17      -0.0203
     43  CD1        5.5890  -47.2980    9.5280 C.ar   17  PHE17      -0.0042
     44  CD2        7.6560  -46.1210    9.5200 C.ar   17  PHE17      -0.0042
     45  CE1        6.1640  -48.2870   10.2870 C.ar   17  PHE17      -0.0003
     46  CE2        8.2340  -47.1090   10.2690 C.ar   17  PHE17      -0.0003
     47  CZ         7.4920  -48.1870   10.6580 C.ar   17  PHE17      -0.0000
     48  N          9.1570  -47.4180    5.9430 N.3    40  GLY40      -0.1225
     49  CA         7.8120  -47.8930    6.2070 C.3    40  GLY40       0.1811
     50  C          7.0140  -48.0610    4.9320 C.2    40  GLY40       0.2280
     51  O          6.3110  -49.0550    4.7470 O.2    40  GLY40      -0.2866
     52  N          8.4610  -51.1950    3.0900 N.3    43  ALA43      -0.1231
     53  CA         8.1940  -52.4780    3.7280 C.3    43  ALA43       0.1694
     54  C          6.6990  -52.7600    3.8380 C.2    43  ALA43       0.2591
     55  O          6.2620  -53.8850    3.5580 O.2    43  ALA43      -0.2718
     56  CB         8.8360  -52.5240    5.1170 C.3    43  ALA43       0.0304
     57  N          5.8990  -51.7690    4.2600 N.am   44  LEU44      -0.1980
     58  CA         4.4750  -52.0290    4.4550 C.3    44  LEU44       0.1596
     59  C          3.7650  -52.3950    3.1580 C.2    44  LEU44       0.2287
     60  O          2.6920  -52.9970    3.2160 O.2    44  LEU44      -0.2864
     61  CB         3.7760  -50.8310    5.0960 C.3    44  LEU44       0.0297
     62  CG         4.0570  -50.6830    6.5920 C.3    44  LEU44       0.0022
     63  CD1        3.5160  -49.3390    7.1110 C.3    44  LEU44       0.0001
     64  CD2        3.5140  -51.8730    7.3880 C.3    44  LEU44       0.0001
     65  N          5.2080  -54.4870    0.9530 N.3    46  PHE46      -0.1227
     66  CA         5.6650  -55.8200    0.5520 C.3    46  PHE46       0.1736
     67  C          4.5210  -56.8250    0.6150 C.2    46  PHE46       0.2595
     68  O          3.6310  -56.7300    1.4640 O.2    46  PHE46      -0.2718
     69  CB         6.7970  -56.3290    1.4560 C.3    46  PHE46       0.0547
     70  CG         8.1270  -55.6960    1.2090 C.ar   46  PHE46      -0.0202
     71  CD1        8.4540  -55.1700   -0.0270 C.ar   46  PHE46      -0.0042
     72  CD2        9.0640  -55.6220    2.2290 C.ar   46  PHE46      -0.0042
     73  CE1        9.7090  -54.5710   -0.2490 C.ar   46  PHE46      -0.0003
     74  CE2       10.3210  -55.0330    2.0120 C.ar   46  PHE46      -0.0003
     75  CZ        10.6340  -54.5070    0.7650 C.ar   46  PHE46      -0.0000
     76  N          4.5640  -57.8030   -0.2860 N.am   47  ASN47      -0.1974
     77  CA         3.6900  -58.9830   -0.2610 C.3    47  ASN47       0.1688
     78  C          2.2210  -58.6010   -0.0630 C.2    47  ASN47       0.2292
     79  O          1.5430  -59.0380    0.8640 O.2    47  ASN47      -0.2864
     80  CB         4.1410  -59.9720    0.8050 C.3    47  ASN47       0.1181
     81  CG         3.3780  -61.2770    0.7310 C.2    47  ASN47       0.2629
     82  OD1        3.1010  -61.7780   -0.3560 O.2    47  ASN47      -0.2716
     83  ND2        3.0310  -61.8370    1.8920 N.am   47  ASN47      -0.0877
     84  N          9.4690  -59.4030   -3.1310 N.3   116  THR116     -0.1218
     85  CA        10.2970  -58.6250   -2.2110 C.3   116  THR116      0.1862
     86  C         11.7670  -58.7700   -2.6340 C.2   116  THR116      0.2287
     87  O         12.5000  -59.6340   -2.1590 O.2   116  THR116     -0.2866
     88  CB        10.0310  -59.0860   -0.7860 C.3   116  THR116      0.1770
     89  OG1        8.6590  -58.8160   -0.4870 O.3   116  THR116     -0.2211
     90  CG2       10.8890  -58.3630    0.2120 C.3   116  THR116      0.0375
     91  N         13.1760  -57.0190    6.4400 N.3   185  VAL185     -0.1231
     92  CA        12.1130  -57.9880    6.1870 C.3   185  VAL185      0.1692
     93  C         12.7040  -59.3660    5.8970 C.2   185  VAL185      0.2591
     94  O         12.2800  -60.3750    6.4710 O.2   185  VAL185     -0.2718
     95  CB        11.1970  -57.5030    5.0500 C.3   185  VAL185      0.0266
     96  CG1       10.2820  -58.6310    4.5860 C.3   185  VAL185      0.0020
     97  CG2       10.3760  -56.3140    5.5180 C.3   185  VAL185      0.0020
     98  N         13.7090  -59.4250    5.0250 N.am  186  LYS186     -0.1980
     99  CA        14.3680  -60.6750    4.6720 C.3   186  LYS186      0.1596
    100  C         15.5820  -60.9840    5.5450 C.2   186  LYS186      0.2287
    101  O         16.3280  -61.9170    5.2240 O.2   186  LYS186     -0.2864
    102  CB        14.7750  -60.6560    3.2020 C.3   186  LYS186      0.0298
    103  CG        13.6370  -60.2830    2.2890 C.3   186  LYS186      0.0038
    104  CD        14.0870  -60.2430    0.8520 C.3   186  LYS186      0.0206
    105  CE        14.4190  -61.6310    0.3400 C.3   186  LYS186      0.1093
    106  NZ        13.1980  -62.4650    0.2920 N.3   186  LYS186     -0.1314
@<TRIPOS>BOND
     1    84    85    1
     2    86    85    1
     3    86    87    2
     4    85    88    1
     5    88    89    1
     6    88    90    1
     7    82    81    2
     8    76    77    1
     9    76    67   am
    10    77    78    1
    11    77    80    1
    12    73    71   ar
    13    73    75   ar
    14    78    79    2
    15    71    70   ar
    16   106   105    1
    17   105   104    1
    18    66    67    1
    19    66    65    1
    20    66    69    1
    21    67    68    2
    22    81    80    1
    23    81    83   am
    24    75    74   ar
    25   104   103    1
    26    70    69    1
    27    70    72   ar
    28    74    72   ar
    29   103   102    1
    30    52    53    1
    31    59    60    2
    32    59    58    1
    33   102    99    1
    34    55    54    2
    35    27    26    1
    36    53    54    1
    37    53    56    1
    38    54    57   am
    39    57    58    1
    40    58    61    1
    41    96    95    1
    42    99    98    1
    43    99   100    1
    44    51    50    2
    45    26    28    1
    46    26    25    2
    47    50    49    1
    48    98    93   am
    49    95    97    1
    50    95    92    1
    51    61    62    1
    52   101   100    2
    53    24    25    1
    54    24    23    1
    55    16    15   ar
    56    93    92    1
    57    93    94    2
    58    48    49    1
    59    92    91    1
    60    22    23    1
    61    22    19    1
    62    17    15   ar
    63    62    63    1
    64    62    64    1
    65    12    11    2
    66    15    14    1
    67    21    20    2
    68    20    19    1
    69    19    18    1
    70    11    10    1
    71    14    13    1
    72    40    39    2
    73    10    13    1
    74    10     9    1
    75    39    38    1
    76    41    38    1
    77    41    42    1
    78     4     3    2
    79    38    37    1
    80    42    44   ar
    81    42    43   ar
    82    31    32    2
    83    31    30    1
    84     9     3   am
    85     3     2    1
    86    44    46   ar
    87    43    45   ar
    88     7     5    1
    89    46    47   ar
    90    33    30    1
    91    33    34    1
    92    45    47   ar
    93    29    30    1
    94     2     5    1
    95     2     1    1
    96     5     6    1
    97    35    34    1
    98    34    36    1
    99     6     8    1
