@<TRIPOS>MOLECULE
tmp/5vrgA00.pdb
 201 196 0 0 0
SMALL
GASTEIGER

@<TRIPOS>ATOM
      1  N         -2.0090  -25.2050    5.3150 N.3    72  VAL72      -0.1245
      2  CA        -2.8080  -24.4960    4.3090 C.3    72  VAL72       0.1561
      3  C         -4.1730  -24.1260    4.8660 C.2    72  VAL72       0.2260
      4  O         -4.8470  -23.2540    4.3090 O.2    72  VAL72      -0.2867
      5  CB        -2.9880  -25.2990    2.9980 C.3    72  VAL72       0.0252
      6  CG1       -1.6460  -25.7250    2.4300 C.3    72  VAL72       0.0019
      7  CG2       -3.9040  -26.4940    3.2170 C.3    72  VAL72       0.0019
      8  N         -4.3250  -20.2000    5.3990 N.3    75  SER75      -0.1202
      9  CA        -4.5640  -19.5490    4.1210 C.3    75  SER75       0.2020
     10  C         -6.0400  -19.6830    3.7670 C.2    75  SER75       0.2618
     11  O         -6.7620  -18.6830    3.6920 O.2    75  SER75      -0.2717
     12  CB        -3.6820  -20.1860    3.0310 C.3    75  SER75       0.2103
     13  OG        -2.3940  -20.5880    3.5250 O.3    75  SER75      -0.2182
     14  N         -6.4880  -20.9340    3.5890 N.am   76  ILE76      -0.1979
     15  CA        -7.8770  -21.2300    3.2330 C.3    76  ILE76       0.1595
     16  C         -8.8420  -20.5110    4.1680 C.2    76  ILE76       0.2287
     17  O         -9.6520  -19.6890    3.7300 O.2    76  ILE76      -0.2864
     18  CB        -8.1340  -22.7510    3.2430 C.3    76  ILE76       0.0276
     19  CG1       -7.3930  -23.4650    2.1070 C.3    76  ILE76       0.0022
     20  CG2       -9.6440  -23.0440    3.1440 C.3    76  ILE76       0.0022
     21  CD1       -7.4900  -25.0030    2.1790 C.3    76  ILE76       0.0001
     22  N         -8.3590  -16.6270    3.5880 N.3    79  PHE79      -0.1241
     23  CA        -8.5300  -16.0830    2.2420 C.3    79  PHE79       0.1605
     24  C         -9.9830  -16.1880    1.7810 C.2    79  PHE79       0.2264
     25  O        -10.5670  -15.2080    1.3040 O.2    79  PHE79      -0.2867
     26  CB        -7.5980  -16.8040    1.2550 C.3    79  PHE79       0.0534
     27  CG        -8.1190  -16.8410   -0.1640 C.ar   79  PHE79      -0.0203
     28  CD1       -7.8730  -15.7900   -1.0340 C.ar   79  PHE79      -0.0042
     29  CD2       -8.8560  -17.9260   -0.6260 C.ar   79  PHE79      -0.0042
     30  CE1       -8.3580  -15.8160   -2.3320 C.ar   79  PHE79      -0.0003
     31  CE2       -9.3420  -17.9540   -1.9210 C.ar   79  PHE79      -0.0003
     32  CZ        -9.0920  -16.8980   -2.7740 C.ar   79  PHE79      -0.0000
     33  N        -11.5600  -29.0650    3.4580 N.3    90  LEU90      -0.1245
     34  CA       -10.7710  -28.7420    2.2740 C.3    90  LEU90       0.1561
     35  C         -9.3220  -29.1640    2.4570 C.2    90  LEU90       0.2260
     36  O         -8.6730  -29.6140    1.5070 O.2    90  LEU90      -0.2867
     37  CB       -10.8620  -27.2470    1.9870 C.3    90  LEU90       0.0270
     38  CG       -12.0020  -26.8260    1.0790 C.3    90  LEU90       0.0019
     39  CD1      -12.2170  -25.3420    1.1620 C.3    90  LEU90       0.0001
     40  CD2      -11.6560  -27.2620   -0.3170 C.3    90  LEU90       0.0001
     41  N         -9.1940  -32.8310    1.8680 N.3    93  LEU93      -0.1231
     42  CA        -9.3520  -33.2100    0.4710 C.3    93  LEU93       0.1693
     43  C         -8.1130  -32.8750   -0.3420 C.2    93  LEU93       0.2591
     44  O         -7.7580  -33.6090   -1.2690 O.2    93  LEU93      -0.2718
     45  CB       -10.6050  -32.5350   -0.0970 C.3    93  LEU93       0.0284
     46  CG       -11.0930  -33.1100   -1.4190 C.3    93  LEU93       0.0019
     47  CD1      -11.9550  -34.3180   -1.1080 C.3    93  LEU93       0.0001
     48  CD2      -11.8710  -32.0660   -2.2290 C.3    93  LEU93       0.0001
     49  N         -7.4270  -31.7900    0.0020 N.am   94  LEU94      -0.1980
     50  CA        -6.1060  -31.5480   -0.5660 C.3    94  LEU94       0.1596
     51  C         -5.0980  -32.6220   -0.1220 C.2    94  LEU94       0.2287
     52  O         -4.3340  -33.1580   -0.9410 O.2    94  LEU94      -0.2864
     53  CB        -5.6220  -30.1510   -0.1740 C.3    94  LEU94       0.0297
     54  CG        -4.1660  -29.9140   -0.5900 C.3    94  LEU94       0.0022
     55  CD1       -4.0620  -29.8540   -2.1130 C.3    94  LEU94       0.0001
     56  CD2       -3.5850  -28.6460    0.0170 C.3    94  LEU94       0.0001
     57  N         -6.0270  -35.5670   -2.1490 N.3    97  TYR97      -0.1241
     58  CA        -5.6430  -35.4770   -3.5510 C.3    97  TYR97       0.1605
     59  C         -4.1550  -35.7760   -3.7500 C.2    97  TYR97       0.2264
     60  O         -3.7740  -36.4490   -4.7170 O.2    97  TYR97      -0.2867
     61  CB        -5.9810  -34.0940   -4.1000 C.3    97  TYR97       0.0534
     62  CG        -5.2230  -33.8030   -5.3660 C.ar   97  TYR97      -0.0201
     63  CD1       -5.6700  -34.2890   -6.5860 C.ar   97  TYR97      -0.0009
     64  CD2       -4.0350  -33.0720   -5.3370 C.ar   97  TYR97      -0.0009
     65  CE1       -4.9630  -34.0350   -7.7490 C.ar   97  TYR97       0.0417
     66  CE2       -3.3230  -32.8230   -6.4850 C.ar   97  TYR97       0.0417
     67  CZ        -3.7940  -33.3030   -7.6920 C.ar   97  TYR97       0.1957
     68  OH        -3.0910  -33.0500   -8.8420 O.3    97  TYR97      -0.2866
     69  N         -2.1910  -30.1790  -12.8720 N.3   140  LEU140     -0.1245
     70  CA        -2.9930  -29.0730  -12.3800 C.3   140  LEU140      0.1561
     71  C         -2.1790  -27.9750  -11.7660 C.2   140  LEU140      0.2260
     72  O         -2.5360  -27.4370  -10.7640 O.2   140  LEU140     -0.2867
     73  CB        -4.0580  -29.5620  -11.4030 C.3   140  LEU140      0.0270
     74  CG        -5.0340  -30.5880  -11.9420 C.3   140  LEU140      0.0019
     75  CD1       -5.9530  -31.1410  -10.8790 C.3   140  LEU140      0.0001
     76  CD2       -5.8060  -29.9790  -13.0800 C.3   140  LEU140      0.0001
     77  N         -3.9840   -5.3890    2.3170 N.3   234  TRP234     -0.1241
     78  CA        -4.5720   -4.7620    1.1370 C.3   234  TRP234      0.1605
     79  C         -5.7220   -3.8140    1.4680 C.2   234  TRP234      0.2264
     80  O         -6.4980   -3.4650    0.5710 O.2   234  TRP234     -0.2867
     81  CB        -5.0600   -5.8250    0.1460 C.3   234  TRP234      0.0550
     82  CG        -3.9800   -6.7410   -0.4160 C.ar  234  TRP234      0.0003
     83  CD1       -3.6470   -7.9890    0.0320 C.ar  234  TRP234      0.0946
     84  CD2       -3.1270   -6.4790   -1.5400 C.ar  234  TRP234      0.0152
     85  NE1       -2.6300   -8.5130   -0.7340 N.ar  234  TRP234     -0.2442
     86  CE2       -2.2970   -7.6070   -1.7070 C.ar  234  TRP234      0.0810
     87  CE3       -2.9880   -5.4010   -2.4210 C.ar  234  TRP234      0.0012
     88  CZ2       -1.3390   -7.6850   -2.7180 C.ar  234  TRP234      0.0191
     89  CZ3       -2.0430   -5.4770   -3.4200 C.ar  234  TRP234      0.0001
     90  CH2       -1.2230   -6.6080   -3.5570 C.ar  234  TRP234      0.0015
     91  N          7.2440   -9.1740   -1.2510 N.3   264  GLU264     -0.1231
     92  CA         6.2130   -9.3630   -2.2670 C.3   264  GLU264      0.1699
     93  C          5.0560   -8.3870   -2.0840 C.2   264  GLU264      0.2592
     94  O          4.4930   -8.2670   -0.9910 O.2   264  GLU264     -0.2718
     95  CB         5.6960  -10.8000   -2.2210 C.3   264  GLU264      0.0402
     96  CG         4.5480  -11.1040   -3.1590 C.3   264  GLU264      0.1161
     97  CD         4.1090  -12.5420   -3.0430 C.2   264  GLU264      0.3649
     98  OE1        4.5190  -13.2110   -2.0710 O.co2 264  GLU264     -0.2457
     99  OE2        3.3540  -13.0160   -3.9160 O.co2 264  GLU264     -0.2457
    100  N          4.7010   -7.7090   -3.1790 N.am  265  SER265     -0.1952
    101  CA         3.6670   -6.6840   -3.1920 C.3   265  SER265      0.1924
    102  C          3.7720   -5.7450   -2.0010 C.2   265  SER265      0.2314
    103  O          2.7440   -5.3570   -1.4330 O.2   265  SER265     -0.2863
    104  CB         2.2950   -7.3380   -3.2330 C.3   265  SER265      0.2116
    105  OG         2.2690   -8.2710   -4.2950 O.3   265  SER265     -0.2180
    106  N          1.8470   -9.9730  -10.7670 N.3   311  ASN311     -0.1240
    107  CA         2.5250   -9.9210   -9.4780 C.3   311  ASN311      0.1653
    108  C          3.9870   -9.6440   -9.8110 C.2   311  ASN311      0.2266
    109  O          4.6610  -10.4950  -10.4060 O.2   311  ASN311     -0.2867
    110  CB         2.3220  -11.2440   -8.7400 C.3   311  ASN311      0.1155
    111  CG         2.8200  -11.2250   -7.3120 C.2   311  ASN311      0.2627
    112  OD1        3.5080  -10.3050   -6.8830 O.2   311  ASN311     -0.2716
    113  ND2        2.4880  -12.2660   -6.5730 N.am  311  ASN311     -0.0877
    114  N         -0.3560  -19.2610   -7.8610 N.3   336  VAL336     -0.1231
    115  CA        -0.8810  -20.1550   -6.8370 C.3   336  VAL336      0.1678
    116  C         -2.3310  -20.4690   -7.1760 C.2   336  VAL336      0.2434
    117  O         -3.1510  -19.5420   -7.2330 O.2   336  VAL336     -0.2733
    118  CB        -0.7750  -19.5320   -5.4380 C.3   336  VAL336      0.0265
    119  CG1       -1.5860  -20.3520   -4.4490 C.3   336  VAL336      0.0020
    120  CG2        0.6990  -19.4070   -4.9990 C.3   336  VAL336      0.0020
    121  N         -2.6620  -21.7350   -7.3690 N.am  337  PRO337     -0.2718
    122  CA        -4.0270  -22.0870   -7.6920 C.3   337  PRO337      0.1535
    123  C         -4.8850  -21.6380   -6.5530 C.2   337  PRO337      0.2599
    124  O         -4.4380  -21.6570   -5.4290 O.2   337  PRO337     -0.2715
    125  CB        -3.9930  -23.5910   -7.7540 C.3   337  PRO337      0.0310
    126  CG        -2.5960  -23.9350   -7.9520 C.3   337  PRO337      0.0237
    127  CD        -1.8150  -22.9100   -7.2420 C.3   337  PRO337      0.0939
    128  N         -6.0650  -21.1230   -6.8670 N.am  338  PHE338     -0.1960
    129  CA        -7.0260  -20.5790   -5.9070 C.3   338  PHE338      0.1771
    130  C         -6.6760  -19.1890   -5.3660 C.2   338  PHE338      0.2620
    131  O         -7.4750  -18.3010   -5.4350 O.2   338  PHE338     -0.2715
    132  CB        -7.4080  -21.6090   -4.8490 C.3   338  PHE338      0.0574
    133  CG        -7.9480  -22.8590   -5.4330 C.ar  338  PHE338     -0.0200
    134  CD1       -9.2460  -22.9200   -5.8750 C.ar  338  PHE338     -0.0042
    135  CD2       -7.1580  -23.9590   -5.5800 C.ar  338  PHE338     -0.0042
    136  CE1       -9.7560  -24.0680   -6.4380 C.ar  338  PHE338     -0.0003
    137  CE2       -7.6580  -25.1120   -6.1370 C.ar  338  PHE338     -0.0003
    138  CZ        -8.9550  -25.1670   -6.5740 C.ar  338  PHE338     -0.0000
    139  N         -5.4960  -19.0240   -4.8110 N.am  339  GLY339     -0.1940
    140  CA        -4.9660  -17.7630   -4.3840 C.3   339  GLY339      0.2014
    141  C         -4.7370  -16.8160   -5.5310 C.2   339  GLY339      0.2638
    142  O         -4.9870  -15.6600   -5.3770 O.2   339  GLY339     -0.2714
    143  N         -4.2540  -17.2570   -6.6780 N.am  340  GLU340     -0.1977
    144  CA        -4.0650  -16.2710   -7.7260 C.3   340  GLU340      0.1602
    145  C         -4.8910  -16.4550   -8.9880 C.2   340  GLU340      0.2287
    146  O         -4.9760  -15.5390   -9.7730 O.2   340  GLU340     -0.2864
    147  CB        -2.6010  -16.1610   -8.0870 C.3   340  GLU340      0.0415
    148  CG        -1.8320  -15.2840   -7.1500 C.3   340  GLU340      0.1163
    149  CD        -0.3680  -15.5930   -7.0880 C.2   340  GLU340      0.3649
    150  OE1        0.0310  -16.6960   -7.3920 O.co2 340  GLU340     -0.2457
    151  OE2        0.3820  -14.7300   -6.6940 O.co2 340  GLU340     -0.2457
    152  N         -8.5980  -24.2880  -13.7620 N.3   344  LEU344     -0.1245
    153  CA        -9.5030  -24.8080  -14.7500 C.3   344  LEU344      0.1561
    154  C        -10.3320  -23.6270  -15.1750 C.2   344  LEU344      0.2260
    155  O        -11.1250  -23.0960  -14.4210 O.2   344  LEU344     -0.2867
    156  CB       -10.3610  -25.9420  -14.2030 C.3   344  LEU344      0.0270
    157  CG        -9.7590  -27.3500  -14.1830 C.3   344  LEU344      0.0019
    158  CD1       -8.6290  -27.5290  -15.1790 C.3   344  LEU344      0.0001
    159  CD2       -9.3810  -27.8480  -12.8040 C.3   344  LEU344      0.0001
    160  N         -4.7930  -13.4400  -11.8220 N.3   352  PHE352     -0.1241
    161  CA        -3.5660  -12.7870  -12.2490 C.3   352  PHE352      0.1605
    162  C         -3.1650  -13.2570  -13.6410 C.2   352  PHE352      0.2264
    163  O         -3.4920  -14.3630  -14.0640 O.2   352  PHE352     -0.2867
    164  CB        -2.4350  -13.0910  -11.2680 C.3   352  PHE352      0.0534
    165  CG        -2.2840  -12.0750  -10.1850 C.ar  352  PHE352     -0.0203
    166  CD1       -1.4860  -10.9620  -10.3750 C.ar  352  PHE352     -0.0042
    167  CD2       -2.9290  -12.2350   -8.9710 C.ar  352  PHE352     -0.0042
    168  CE1       -1.3340  -10.0150   -9.3760 C.ar  352  PHE352     -0.0003
    169  CE2       -2.7860  -11.2970   -7.9630 C.ar  352  PHE352     -0.0003
    170  CZ        -1.9820  -10.1820   -8.1670 C.ar  352  PHE352     -0.0000
    171  N          7.3490  -15.9560   -4.2160 N.3   374  CYS374     -0.1235
    172  CA         6.5670  -16.8940   -3.3960 C.3   374  CYS374      0.1677
    173  C          7.1140  -18.3010   -3.6730 C.2   374  CYS374      0.2270
    174  O          8.3420  -18.4910   -3.7000 O.2   374  CYS374     -0.2867
    175  CB         5.0840  -16.7090   -3.6460 C.3   374  CYS374      0.0956
    176  SG         4.0350  -17.2490   -2.2570 S.3   374  CYS374     -0.0801
    177  N          0.2330  -15.6820    5.0320 N.3   402  TRP402     -0.1227
    178  CA        -0.9610  -16.5010    4.8460 C.3   402  TRP402      0.1737
    179  C         -0.8950  -17.7880    5.6590 C.2   402  TRP402      0.2595
    180  O         -1.9420  -18.3220    6.0460 O.2   402  TRP402     -0.2718
    181  CB        -1.1720  -16.8330    3.3620 C.3   402  TRP402      0.0564
    182  CG        -1.2170  -15.6350    2.4530 C.ar  402  TRP402      0.0003
    183  CD1       -0.1480  -14.9060    2.0000 C.ar  402  TRP402      0.0946
    184  CD2       -2.3900  -15.0250    1.8800 C.ar  402  TRP402      0.0152
    185  NE1       -0.5860  -13.8800    1.1880 N.ar  402  TRP402     -0.2442
    186  CE2       -1.9540  -13.9300    1.0980 C.ar  402  TRP402      0.0810
    187  CE3       -3.7660  -15.2980    1.9510 C.ar  402  TRP402      0.0012
    188  CZ2       -2.8480  -13.1100    0.3890 C.ar  402  TRP402      0.0191
    189  CZ3       -4.6540  -14.4750    1.2500 C.ar  402  TRP402      0.0001
    190  CH2       -4.1880  -13.3980    0.4820 C.ar  402  TRP402      0.0015
    191  N          0.3090  -18.3030    5.9270 N.am  403  PHE403     -0.1976
    192  CA         0.4610  -19.5760    6.6220 C.3   403  PHE403      0.1639
    193  C          0.5810  -19.4240    8.1300 C.2   403  PHE403      0.2290
    194  O          0.8170  -20.4210    8.8160 O.2   403  PHE403     -0.2864
    195  CB         1.6940  -20.3340    6.1270 C.3   403  PHE403      0.0560
    196  CG         1.9480  -20.2240    4.6600 C.ar  403  PHE403     -0.0200
    197  CD1        3.2560  -20.2640    4.1880 C.ar  403  PHE403     -0.0042
    198  CD2        0.8970  -20.1320    3.7500 C.ar  403  PHE403     -0.0042
    199  CE1        3.5310  -20.1820    2.8390 C.ar  403  PHE403     -0.0003
    200  CE2        1.1510  -20.0470    2.4010 C.ar  403  PHE403     -0.0003
    201  CZ         2.4820  -20.0750    1.9370 C.ar  403  PHE403     -0.0000
@<TRIPOS>BOND
     1   158   157    1
     2   154   153    1
     3   154   155    2
     4   153   156    1
     5   153   152    1
     6   156   157    1
     7   157   159    1
     8   163   162    2
     9   162   161    1
    10    76    74    1
    11    69    70    1
    12    70    71    1
    13    70    73    1
    14   161   160    1
    15   161   164    1
    16    74    73    1
    17    74    75    1
    18    71    72    2
    19   164   165    1
    20   106   107    1
    21   109   108    2
    22   166   165   ar
    23   166   168   ar
    24   165   167   ar
    25   108   107    1
    26   146   145    2
    27   107   110    1
    28   168   170   ar
    29   145   144    1
    30   167   169   ar
    31    68    67    1
    32   110   111    1
    33   170   169   ar
    34   147   144    1
    35   147   148    1
    36   126   125    1
    37   126   127    1
    38   114   115    1
    39   125   122    1
    40    65    67   ar
    41    65    63   ar
    42   144   143    1
    43   122   121    1
    44   122   123    1
    45    67    66   ar
    46   150   149   ar
    47   121   127    1
    48   121   116   am
    49   111   112    2
    50   111   113   am
    51   117   116    2
    52   116   115    1
    53   148   149    1
    54   149   151   ar
    55   128   123   am
    56   128   129    1
    57   115   118    1
    58   143   141   am
    59    63    62   ar
    60   138   136   ar
    61   138   137   ar
    62   123   124    2
    63    66    64   ar
    64   136   134   ar
    65   137   135   ar
    66   129   130    1
    67   129   132    1
    68   134   133   ar
    69   135   133   ar
    70   141   142    2
    71   141   140    1
    72   118   120    1
    73   118   119    1
    74   131   130    2
    75   133   132    1
    76    62    64   ar
    77    62    61    1
    78   130   139   am
    79   139   140    1
    80    60    59    2
    81   105   104    1
    82   171   172    1
    83    61    58    1
    84    99    97   ar
    85    59    58    1
    86   174   173    2
    87   173   172    1
    88   175   172    1
    89   175   176    1
    90    90    89   ar
    91    90    88   ar
    92    58    57    1
    93    89    87   ar
    94   104   101    1
    95   101   100    1
    96   101   102    1
    97   100    93   am
    98    96    97    1
    99    96    95    1
   100    97    98   ar
   101    32    30   ar
   102    32    31   ar
   103    88    86   ar
   104    87    84   ar
   105    30    28   ar
   106    92    95    1
   107    92    93    1
   108    92    91    1
   109    48    46    1
   110    55    54    1
   111    93    94    2
   112   102   103    2
   113    31    29   ar
   114    86    84   ar
   115    86    85   ar
   116    84    82   ar
   117    46    47    1
   118    46    45    1
   119    44    43    2
   120    28    27   ar
   121    52    51    2
   122    85    83   ar
   123    29    27   ar
   124    54    53    1
   125    54    56    1
   126    50    53    1
   127    50    51    1
   128    50    49    1
   129    82    83   ar
   130    82    81    1
   131    43    49   am
   132    43    42    1
   133    40    38    1
   134    27    26    1
   135    45    42    1
   136    81    78    1
   137   188   190   ar
   138   188   186   ar
   139    42    41    1
   140   190   189   ar
   141    80    79    2
   142    38    39    1
   143    38    37    1
   144   186   185   ar
   145   186   184   ar
   146    78    79    1
   147    78    77    1
   148   185   183   ar
   149   189   187   ar
   150    26    23    1
   151    25    24    2
   152    36    35    2
   153    24    23    1
   154   184   187   ar
   155   184   182   ar
   156   201   200   ar
   157   201   199   ar
   158    37    34    1
   159   183   182   ar
   160    19    21    1
   161    19    18    1
   162    23    22    1
   163    34    35    1
   164    34    33    1
   165   200   198   ar
   166     6     5    1
   167   182   181    1
   168   199   197   ar
   169     5     7    1
   170     5     2    1
   171    12    13    1
   172    12     9    1
   173    20    18    1
   174    15    18    1
   175    15    14    1
   176    15    16    1
   177   181   178    1
   178    14    10   am
   179    11    10    2
   180    17    16    2
   181   198   196   ar
   182    10     9    1
   183     9     8    1
   184   197   196   ar
   185     4     3    2
   186     2     3    1
   187     2     1    1
   188   196   195    1
   189   178   177    1
   190   178   179    1
   191   179   191   am
   192   179   180    2
   193   191   192    1
   194   195   192    1
   195   192   193    1
   196   193   194    2
