@<TRIPOS>MOLECULE
tmp/5vrgA03.pdb
 167 155 0 0 0
SMALL
GASTEIGER

@<TRIPOS>ATOM
      1  N         15.5030  -56.7290   -4.3930 N.3   118  TRP118     -0.1241
      2  CA        16.2240  -55.4810   -4.5440 C.3   118  TRP118      0.1605
      3  C         15.9130  -54.8370   -5.8880 C.2   118  TRP118      0.2264
      4  O         15.9420  -53.6030   -5.9980 O.2   118  TRP118     -0.2867
      5  CB        17.7240  -55.6990   -4.3620 C.3   118  TRP118      0.0550
      6  CG        18.4040  -56.5730   -5.3650 C.ar  118  TRP118      0.0003
      7  CD1       18.6540  -57.9110   -5.2460 C.ar  118  TRP118      0.0946
      8  CD2       18.9710  -56.1690   -6.6300 C.ar  118  TRP118      0.0152
      9  NE1       19.3230  -58.3660   -6.3620 N.ar  118  TRP118     -0.2442
     10  CE2       19.5350  -57.3150   -7.2200 C.ar  118  TRP118      0.0810
     11  CE3       19.0570  -54.9510   -7.3140 C.ar  118  TRP118      0.0012
     12  CZ2       20.1650  -57.2790   -8.4620 C.ar  118  TRP118      0.0191
     13  CZ3       19.6830  -54.9240   -8.5440 C.ar  118  TRP118      0.0001
     14  CH2       20.2200  -56.0790   -9.1090 C.ar  118  TRP118      0.0015
     15  N         15.3170  -51.1670   -5.1420 N.3   122  ALA122     -0.1231
     16  CA        16.4070  -50.2520   -5.4170 C.3   122  ALA122      0.1694
     17  C         16.4630  -49.7740   -6.8600 C.2   122  ALA122      0.2591
     18  O         17.1650  -48.7910   -7.1440 O.2   122  ALA122     -0.2718
     19  CB        17.7560  -50.8970   -5.0640 C.3   122  ALA122      0.0304
     20  N         15.7670  -50.4330   -7.7760 N.am  123  ILE123     -0.1980
     21  CA        15.8010  -50.0870   -9.1890 C.3   123  ILE123      0.1595
     22  C         14.4540  -49.5580   -9.6520 C.2   123  ILE123      0.2287
     23  O         14.3470  -48.4110  -10.0880 O.2   123  ILE123     -0.2864
     24  CB        16.2560  -51.2880  -10.0460 C.3   123  ILE123      0.0276
     25  CG1       17.5310  -51.9030   -9.4580 C.3   123  ILE123      0.0022
     26  CG2       16.4310  -50.8670  -11.5120 C.3   123  ILE123      0.0022
     27  CD1       18.6770  -50.9290   -9.3140 C.3   123  ILE123      0.0001
     28  N         25.2120  -33.8080   -3.3160 N.3   160  LEU160     -0.1245
     29  CA        24.5990  -34.3060   -4.5480 C.3   160  LEU160      0.1561
     30  C         23.8620  -33.2140   -5.3150 C.2   160  LEU160      0.2260
     31  O         23.7680  -33.2860   -6.5480 O.2   160  LEU160     -0.2867
     32  CB        23.6160  -35.4370   -4.2420 C.3   160  LEU160      0.0270
     33  CG        23.9160  -36.8360   -4.7990 C.3   160  LEU160      0.0019
     34  CD1       22.7430  -37.7740   -4.5430 C.3   160  LEU160      0.0001
     35  CD2       24.2940  -36.8220   -6.2770 C.3   160  LEU160      0.0001
     36  N         23.3180  -32.9880   -9.4160 N.3   164  MET164     -0.1245
     37  CA        22.1480  -33.5420  -10.0790 C.3   164  MET164      0.1570
     38  C         20.8320  -33.0050   -9.5140 C.2   164  MET164      0.2261
     39  O         19.7580  -33.5010   -9.8810 O.2   164  MET164     -0.2867
     40  CB        22.1830  -35.0710   -9.9810 C.3   164  MET164      0.0387
     41  CG        23.4820  -35.7150  -10.4430 C.3   164  MET164      0.0595
     42  SD        23.1910  -37.4190  -10.9690 S.3   164  MET164     -0.1393
     43  CE        22.9280  -38.2730   -9.4310 C.3   164  MET164      0.0692
     44  N         17.7060  -35.8380   -7.3470 N.3   168  ALA168     -0.1245
     45  CA        18.6490  -36.9450   -7.2330 C.3   168  ALA168      0.1562
     46  C         18.7860  -37.3990   -5.7930 C.2   168  ALA168      0.2260
     47  O         18.9650  -38.6020   -5.5300 O.2   168  ALA168     -0.2867
     48  CB        20.0130  -36.5470   -7.7800 C.3   168  ALA168      0.0290
     49  N         15.7780  -39.5060   -5.1970 N.3   171  PHE171     -0.1227
     50  CA        15.9880  -40.7940   -5.8480 C.3   171  PHE171      0.1736
     51  C         16.8530  -41.7210   -4.9920 C.2   171  PHE171      0.2595
     52  O         16.5140  -42.8980   -4.8000 O.2   171  PHE171     -0.2718
     53  CB        16.6250  -40.5090   -7.2140 C.3   171  PHE171      0.0547
     54  CG        16.7360  -41.6830   -8.1410 C.ar  171  PHE171     -0.0202
     55  CD1       15.8010  -41.8780   -9.1430 C.ar  171  PHE171     -0.0042
     56  CD2       17.8480  -42.5270   -8.0950 C.ar  171  PHE171     -0.0042
     57  CE1       15.9360  -42.9240  -10.0490 C.ar  171  PHE171     -0.0003
     58  CE2       17.9820  -43.5770   -9.0040 C.ar  171  PHE171     -0.0003
     59  CZ        17.0210  -43.7640   -9.9790 C.ar  171  PHE171     -0.0000
     60  N         17.9660  -41.1960   -4.4600 N.am  172  LEU172     -0.1980
     61  CA        18.8600  -41.9870   -3.6230 C.3   172  LEU172      0.1596
     62  C         18.2280  -42.3340   -2.2750 C.2   172  LEU172      0.2287
     63  O         18.4670  -43.4300   -1.7480 O.2   172  LEU172     -0.2864
     64  CB        20.1800  -41.2390   -3.4120 C.3   172  LEU172      0.0297
     65  CG        21.2700  -41.9990   -2.6310 C.3   172  LEU172      0.0022
     66  CD1       21.6150  -43.3150   -3.2910 C.3   172  LEU172      0.0001
     67  CD2       22.5310  -41.1470   -2.4300 C.3   172  LEU172      0.0001
     68  N         15.9630  -45.2390   -2.7480 N.3   175  MET175     -0.1245
     69  CA        16.7900  -46.4230   -2.9750 C.3   175  MET175      0.1570
     70  C         17.3690  -46.9440   -1.6640 C.2   175  MET175      0.2261
     71  O         17.2070  -48.1210   -1.3270 O.2   175  MET175     -0.2867
     72  CB        17.9080  -46.0940   -3.9730 C.3   175  MET175      0.0387
     73  CG        18.6110  -47.3120   -4.5910 C.3   175  MET175      0.0595
     74  SD        20.0000  -46.8640   -5.6780 S.3   175  MET175     -0.1393
     75  CE        19.1860  -45.6500   -6.7040 C.3   175  MET175      0.0692
     76  N         16.4510  -50.7050    0.4640 N.3   179  LEU179     -0.1245
     77  CA        17.3180  -51.8210    0.8510 C.3   179  LEU179      0.1561
     78  C         17.4210  -51.9780    2.3580 C.2   179  LEU179      0.2260
     79  O         17.6510  -53.0840    2.8450 O.2   179  LEU179     -0.2867
     80  CB        18.7250  -51.6640    0.2620 C.3   179  LEU179      0.0270
     81  CG        18.7660  -51.6390   -1.2510 C.3   179  LEU179      0.0019
     82  CD1       19.7360  -50.5490   -1.6830 C.3   179  LEU179      0.0001
     83  CD2       19.1270  -52.9990   -1.8340 C.3   179  LEU179      0.0001
     84  N         14.3140  -53.8620    2.8850 N.3   182  LEU182     -0.1245
     85  CA        14.5480  -55.2010    2.3500 C.3   182  LEU182      0.1561
     86  C         15.3930  -56.0210    3.3080 C.2   182  LEU182      0.2260
     87  O         15.1220  -57.2040    3.5390 O.2   182  LEU182     -0.2867
     88  CB        15.2490  -55.1090    0.9970 C.3   182  LEU182      0.0270
     89  CG        15.4660  -56.4240    0.2570 C.3   182  LEU182      0.0019
     90  CD1       14.1580  -56.9180   -0.3620 C.3   182  LEU182      0.0001
     91  CD2       16.5230  -56.2270   -0.8160 C.3   182  LEU182      0.0001
     92  N         18.5270  -60.1090    5.9420 N.3   188  ASN188     -0.1240
     93  CA        19.7390  -60.3370    5.1640 C.3   188  ASN188      0.1653
     94  C         20.6220  -59.0970    5.2490 C.2   188  ASN188      0.2266
     95  O         20.1220  -57.9660    5.2280 O.2   188  ASN188     -0.2867
     96  CB        19.3710  -60.6670    3.6960 C.3   188  ASN188      0.1155
     97  CG        20.5730  -60.6860    2.7540 C.2   188  ASN188      0.2627
     98  OD1       21.7290  -60.8080    3.1720 O.2   188  ASN188     -0.2716
     99  ND2       20.2950  -60.5810    1.4630 N.am  188  ASN188     -0.0877
    100  N         23.2380  -58.2350    3.1400 N.3   190  ARG190     -0.1231
    101  CA        23.7500  -57.6620    1.8970 C.3   190  ARG190      0.1679
    102  C         23.0480  -56.3680    1.5030 C.2   190  ARG190      0.2434
    103  O         23.7470  -55.3840    1.2100 O.2   190  ARG190     -0.2733
    104  CB        23.6710  -58.7070    0.7860 C.3   190  ARG190      0.0321
    105  CG        24.6950  -59.7760    0.9620 C.3   190  ARG190      0.0489
    106  CD        24.5660  -60.8490   -0.0780 C.3   190  ARG190      0.2205
    107  NE        25.3320  -62.0100    0.3370 N.pl3 190  ARG190     -0.0865
    108  CZ        26.6560  -62.0880    0.2530 C.cat 190  ARG190      0.5346
    109  NH1       27.2860  -63.1870    0.6560 N.pl3 190  ARG190      0.1354
    110  NH2       27.3480  -61.0650   -0.2330 N.pl3 190  ARG190      0.1354
    111  N         21.7120  -56.2810    1.4600 N.am  191  PRO191     -0.2729
    112  CA        21.1060  -54.9720    1.1710 C.3   191  PRO191      0.1401
    113  C         21.3790  -53.9540    2.2590 C.2   191  PRO191      0.2269
    114  O         21.4250  -52.7560    1.9640 O.2   191  PRO191     -0.2865
    115  CB        19.6080  -55.2860    1.0400 C.3   191  PRO191      0.0296
    116  CG        19.5410  -56.7610    0.8250 C.3   191  PRO191      0.0237
    117  CD        20.6810  -57.3220    1.6160 C.3   191  PRO191      0.0939
    118  N         24.8510  -52.6250    1.2160 N.3   194  VAL194     -0.1245
    119  CA        24.6880  -51.8150    0.0150 C.3   194  VAL194      0.1561
    120  C         24.0320  -50.4840    0.3640 C.2   194  VAL194      0.2260
    121  O         24.4740  -49.4160   -0.0850 O.2   194  VAL194     -0.2867
    122  CB        23.8740  -52.6020   -1.0320 C.3   194  VAL194      0.0252
    123  CG1       23.5000  -51.7270   -2.2340 C.3   194  VAL194      0.0019
    124  CG2       24.6340  -53.8560   -1.4670 C.3   194  VAL194      0.0019
    125  N         25.9480  -46.8420   -0.4280 N.3   198  LEU198     -0.1245
    126  CA        25.3450  -45.8550   -1.3150 C.3   198  LEU198      0.1561
    127  C         25.0160  -44.5850   -0.5600 C.2   198  LEU198      0.2260
    128  O         25.0420  -43.4830   -1.1250 O.2   198  LEU198     -0.2867
    129  CB        24.0620  -46.4130   -1.9330 C.3   198  LEU198      0.0270
    130  CG        24.0570  -47.5190   -2.9840 C.3   198  LEU198      0.0019
    131  CD1       22.6320  -47.9640   -3.2160 C.3   198  LEU198      0.0001
    132  CD2       24.6650  -47.0580   -4.2920 C.3   198  LEU198      0.0001
    133  N         28.5220  -42.9720   -0.0900 N.3   201  LEU201     -0.1245
    134  CA        29.2770  -42.6110   -1.2860 C.3   201  LEU201      0.1561
    135  C         29.2220  -41.1260   -1.6350 C.2   201  LEU201      0.2260
    136  O         30.2700  -40.5820   -2.0210 O.2   201  LEU201     -0.2867
    137  CB        28.8190  -43.4620   -2.4720 C.3   201  LEU201      0.0270
    138  CG        29.9010  -43.6470   -3.5230 C.3   201  LEU201      0.0019
    139  CD1       31.0220  -44.5390   -2.9820 C.3   201  LEU201      0.0001
    140  CD2       29.3010  -44.2240   -4.8010 C.3   201  LEU201      0.0001
    141  N         19.5270  -36.9670  -14.3490 N.3   478  LEU478     -0.1245
    142  CA        18.7620  -37.8770  -13.4970 C.3   478  LEU478      0.1561
    143  C         17.6630  -38.5810  -14.2860 C.2   478  LEU478      0.2260
    144  O         17.4480  -39.7840  -14.1130 O.2   478  LEU478     -0.2867
    145  CB        18.1780  -37.1290  -12.2860 C.3   478  LEU478      0.0270
    146  CG        17.1070  -37.9180  -11.5260 C.3   478  LEU478      0.0019
    147  CD1       17.7460  -39.1200  -10.8890 C.3   478  LEU478      0.0001
    148  CD2       16.4570  -37.0500  -10.4690 C.3   478  LEU478      0.0001
    149  N         19.0560  -41.4740  -16.0540 N.3   481  LEU481     -0.1245
    150  CA        19.2630  -42.5690  -15.1120 C.3   481  LEU481      0.1561
    151  C         17.9420  -43.2330  -14.7340 C.2   481  LEU481      0.2260
    152  O         17.8770  -44.4640  -14.6300 O.2   481  LEU481     -0.2867
    153  CB        19.9990  -42.0720  -13.8700 C.3   481  LEU481      0.0270
    154  CG        20.1140  -43.0360  -12.6810 C.3   481  LEU481      0.0019
    155  CD1       21.3510  -43.9330  -12.7820 C.3   481  LEU481      0.0001
    156  CD2       20.1600  -42.2570  -11.3770 C.3   481  LEU481      0.0001
    157  N         16.9950  -47.0860  -15.3050 N.3   485  PHE485     -0.1241
    158  CA        16.4030  -47.9230  -14.2620 C.3   485  PHE485      0.1605
    159  C         15.0260  -48.4290  -14.6770 C.2   485  PHE485      0.2264
    160  O         14.7330  -49.6270  -14.5650 O.2   485  PHE485     -0.2867
    161  CB        16.3040  -47.1490  -12.9510 C.3   485  PHE485      0.0534
    162  CG        17.5620  -47.1580  -12.1560 C.ar  485  PHE485     -0.0203
    163  CD1       18.7860  -47.3290  -12.7850 C.ar  485  PHE485     -0.0042
    164  CD2       17.5300  -46.9940  -10.7760 C.ar  485  PHE485     -0.0042
    165  CE1       19.9590  -47.3260  -12.0610 C.ar  485  PHE485     -0.0003
    166  CE2       18.7050  -46.9930  -10.0370 C.ar  485  PHE485     -0.0003
    167  CZ        19.9200  -47.1590  -10.6810 C.ar  485  PHE485     -0.0000
@<TRIPOS>BOND
     1   149   150    1
     2   157   158    1
     3   150   151    1
     4   150   153    1
     5   151   152    2
     6   159   160    2
     7   159   158    1
     8   141   142    1
     9   143   144    2
    10   143   142    1
    11   158   161    1
    12   153   154    1
    13   142   145    1
    14   161   162    1
    15   163   162   ar
    16   163   165   ar
    17   155   154    1
    18   154   156    1
    19   145   146    1
    20   162   164   ar
    21   165   167   ar
    22   146   147    1
    23   146   148    1
    24    26    24    1
    25    42    41    1
    26    42    43    1
    27   164   166   ar
    28   167   166   ar
    29    41    40    1
    30    23    22    2
    31    37    40    1
    32    37    38    1
    33    37    36    1
    34    57    59   ar
    35    57    55   ar
    36    24    25    1
    37    24    21    1
    38    59    58   ar
    39    39    38    2
    40    22    21    1
    41    25    27    1
    42    21    20    1
    43    55    54   ar
    44    14    13   ar
    45    14    12   ar
    46    58    56   ar
    47    13    11   ar
    48    12    10   ar
    49    54    56   ar
    50    54    53    1
    51    48    45    1
    52    20    17   am
    53    44    45    1
    54    11     8   ar
    55    45    46    1
    56    10     8   ar
    57    10     9   ar
    58    53    50    1
    59    18    17    2
    60    17    16    1
    61    75    74    1
    62     8     6   ar
    63    31    30    2
    64     9     7   ar
    65    35    33    1
    66     4     3    2
    67     3     2    1
    68    50    49    1
    69    50    51    1
    70    46    47    2
    71    74    73    1
    72    16    15    1
    73    16    19    1
    74     6     7   ar
    75     6     5    1
    76    30    29    1
    77    51    52    2
    78    51    60   am
    79   140   138    1
    80    33    34    1
    81    33    32    1
    82    73    72    1
    83    29    32    1
    84    29    28    1
    85     2     1    1
    86     2     5    1
    87    60    61    1
    88   132   130    1
    89    72    69    1
    90    61    64    1
    91    61    62    1
    92   138   139    1
    93   138   137    1
    94    64    65    1
    95    66    65    1
    96   131   130    1
    97   130   129    1
    98    69    68    1
    99    69    70    1
   100    65    67    1
   101   137   134    1
   102    62    63    2
   103   123   122    1
   104   136   135    2
   105   129   126    1
   106    83    81    1
   107    82    81    1
   108    70    71    2
   109   135   134    1
   110   124   122    1
   111   126   127    1
   112   126   125    1
   113   134   133    1
   114    81    80    1
   115   128   127    2
   116   122   119    1
   117    91    89    1
   118    90    89    1
   119   110   108    1
   120   121   120    2
   121   106   107    1
   122   106   105    1
   123   119   120    1
   124   119   118    1
   125   108   107    2
   126   108   109    1
   127    89    88    1
   128    80    77    1
   129    76    77    1
   130   104   105    1
   131   104   101    1
   132   116   115    1
   133   116   117    1
   134    77    78    1
   135    88    85    1
   136   115   112    1
   137   112   111    1
   138   112   113    1
   139   103   102    2
   140   111   102   am
   141   111   117    1
   142    99    97   am
   143   102   101    1
   144   101   100    1
   145   114   113    2
   146    85    84    1
   147    85    86    1
   148    78    79    2
   149    97    98    2
   150    97    96    1
   151    86    87    2
   152    96    93    1
   153    93    94    1
   154    93    92    1
   155    95    94    2
