@<TRIPOS>MOLECULE
tmp/5vrgA01.pdb
 95 88 0 0 0
SMALL
GASTEIGER

@<TRIPOS>ATOM
      1  N         -0.5450  -48.3120   10.3270 N.3    13  LEU13      -0.1245
      2  CA         0.8970  -48.1340   10.3720 C.3    13  LEU13       0.1561
      3  C          1.3510  -47.2120    9.2660 C.2    13  LEU13       0.2260
      4  O          2.2900  -46.4330    9.4610 O.2    13  LEU13      -0.2867
      5  CB         1.5890  -49.4900   10.2720 C.3    13  LEU13       0.0270
      6  CG         1.5640  -50.3320   11.5520 C.3    13  LEU13       0.0019
      7  CD1        1.8780  -51.8290   11.3010 C.3    13  LEU13       0.0001
      8  CD2        2.5090  -49.7370   12.6120 C.3    13  LEU13       0.0001
      9  N          1.3010  -43.6440   10.3900 N.3    16  LEU16      -0.1231
     10  CA         2.3230  -43.2410   11.3460 C.3    16  LEU16       0.1693
     11  C          3.6750  -43.0510   10.6590 C.2    16  LEU16       0.2592
     12  O          4.3310  -42.0250   10.8600 O.2    16  LEU16      -0.2718
     13  CB         2.4110  -44.2500   12.4940 C.3    16  LEU16       0.0284
     14  CG         1.1040  -44.5340   13.2560 C.3    16  LEU16       0.0019
     15  CD1        1.2880  -45.6250   14.3150 C.3    16  LEU16       0.0001
     16  CD2        0.4840  -43.2730   13.8900 C.3    16  LEU16       0.0001
     17  N          4.1070  -44.0170    9.8350 N.am   17  PHE17      -0.1976
     18  CA         5.3630  -43.8390    9.1000 C.3    17  PHE17       0.1639
     19  C          5.2880  -42.6280    8.1690 C.2    17  PHE17       0.2290
     20  O          6.2570  -41.8630    8.0520 O.2    17  PHE17      -0.2864
     21  CB         5.7070  -45.1000    8.3000 C.3    17  PHE17       0.0560
     22  CG         6.3300  -46.1980    9.1290 C.ar   17  PHE17      -0.0200
     23  CD1        5.5890  -47.2980    9.5280 C.ar   17  PHE17      -0.0042
     24  CD2        7.6560  -46.1210    9.5200 C.ar   17  PHE17      -0.0042
     25  CE1        6.1640  -48.2870   10.2870 C.ar   17  PHE17      -0.0003
     26  CE2        8.2340  -47.1090   10.2690 C.ar   17  PHE17      -0.0003
     27  CZ         7.4920  -48.1870   10.6580 C.ar   17  PHE17      -0.0000
     28  N          3.2900  -39.7960    8.5100 N.3    19  ALA19      -0.1231
     29  CA         3.3600  -38.5930    9.3280 C.3    19  ALA19       0.1694
     30  C          4.7440  -38.4150    9.9360 C.2    19  ALA19       0.2592
     31  O          5.1660  -37.2820   10.1900 O.2    19  ALA19      -0.2718
     32  CB         2.2850  -38.6450   10.4200 C.3    19  ALA19       0.0304
     33  N          5.4700  -39.5200   10.1510 N.am   20  CYS20      -0.1970
     34  CA         6.8510  -39.4500   10.6220 C.3    20  CYS20       0.1712
     35  C          7.7390  -38.6310    9.6830 C.2    20  CYS20       0.2296
     36  O          8.6800  -37.9670   10.1390 O.2    20  CYS20      -0.2864
     37  CB         7.3940  -40.8700   10.7780 C.3    20  CYS20       0.0983
     38  SG         9.1600  -40.9950   11.1660 S.3    20  CYS20      -0.0798
     39  N          7.1000  -35.9240    8.1100 N.3    22  THR22      -0.1203
     40  CA         6.9950  -34.5020    8.3740 C.3    22  THR22       0.1994
     41  C          8.1050  -34.0380    9.3020 C.2    22  THR22       0.2617
     42  O          8.5420  -32.8840    9.2160 O.2    22  THR22      -0.2717
     43  CB         5.6110  -34.1950    8.9620 C.3    22  THR22       0.1784
     44  OG1        4.5930  -34.5380    8.0050 O.3    22  THR22      -0.2211
     45  CG2        5.4860  -32.7290    9.3480 C.3    22  THR22       0.0376
     46  N          8.6020  -34.9340   10.1710 N.am   23  LEU23      -0.1979
     47  CA         9.6840  -34.5770   11.0870 C.3    23  LEU23       0.1596
     48  C         11.0080  -34.3610   10.3690 C.2    23  LEU23       0.2287
     49  O         11.8870  -33.6930   10.9180 O.2    23  LEU23      -0.2864
     50  CB         9.8620  -35.6540   12.1520 C.3    23  LEU23       0.0297
     51  CG         8.7130  -35.7900   13.1470 C.3    23  LEU23       0.0022
     52  CD1        8.9990  -36.9190   14.1370 C.3    23  LEU23       0.0001
     53  CD2        8.4470  -34.4480   13.8690 C.3    23  LEU23       0.0001
     54  N         11.4670  -29.1210   12.3530 N.3    28  TYR28      -0.1241
     55  CA        11.8970  -30.2970   13.1030 C.3    28  TYR28       0.1605
     56  C         13.3170  -30.6920   12.7370 C.2    28  TYR28       0.2264
     57  O         14.1690  -30.8610   13.6150 O.2    28  TYR28      -0.2867
     58  CB        10.9170  -31.4380   12.8480 C.3    28  TYR28       0.0534
     59  CG         9.4830  -30.9910   13.0060 C.ar   28  TYR28      -0.0201
     60  CD1        8.6790  -30.7850   11.9100 C.ar   28  TYR28      -0.0009
     61  CD2        8.9510  -30.7440   14.2640 C.ar   28  TYR28      -0.0009
     62  CE1        7.3600  -30.3680   12.0580 C.ar   28  TYR28       0.0417
     63  CE2        7.6560  -30.3330   14.4240 C.ar   28  TYR28       0.0417
     64  CZ         6.8570  -30.1440   13.3170 C.ar   28  TYR28       0.1957
     65  OH         5.5460  -29.7160   13.4690 O.3    28  TYR28      -0.2866
     66  N         13.3390  -43.3030    7.9660 N.3    36  ILE36      -0.1245
     67  CA        12.3360  -44.0680    8.7040 C.3    36  ILE36       0.1561
     68  C         11.0540  -44.1670    7.8920 C.2    36  ILE36       0.2260
     69  O         10.5040  -45.2550    7.6670 O.2    36  ILE36      -0.2867
     70  CB        12.0610  -43.4170   10.0720 C.3    36  ILE36       0.0252
     71  CG1       13.3090  -43.4490   10.9640 C.3    36  ILE36       0.0019
     72  CG2       10.8540  -44.0940   10.7230 C.3    36  ILE36       0.0019
     73  CD1       14.0200  -44.7750   10.9270 C.3    36  ILE36       0.0001
     74  N         -0.2400  -34.4300    7.9680 N.3    67  SER67      -0.1217
     75  CA         0.5080  -33.8080    9.0590 C.3    67  SER67       0.1889
     76  C          1.3940  -32.6600    8.5870 C.2    67  SER67       0.2288
     77  O          1.7280  -31.7710    9.3850 O.2    67  SER67      -0.2866
     78  CB         1.3700  -34.8470    9.7970 C.3    67  SER67       0.2089
     79  OG         2.1300  -35.6300    8.9020 O.3    67  SER67      -0.2183
     80  N         -1.0630  -29.4350    6.4950 N.3    70  ASN70      -0.1240
     81  CA        -2.3200  -28.9620    7.0640 C.3    70  ASN70       0.1653
     82  C         -2.2710  -27.4770    7.4310 C.2    70  ASN70       0.2266
     83  O         -3.3170  -26.8930    7.7380 O.2    70  ASN70      -0.2867
     84  CB        -2.7200  -29.8260    8.2750 C.3    70  ASN70       0.1155
     85  CG        -1.7970  -29.6510    9.4660 C.2    70  ASN70       0.2627
     86  OD1       -1.6740  -28.5470   10.0160 O.2    70  ASN70      -0.2716
     87  ND2       -1.1370  -30.7470    9.8790 N.am   70  ASN70      -0.0877
     88  N          4.3330  -24.5960   10.5860 N.3   407  ILE407     -0.1245
     89  CA         5.5610  -25.1090    9.9780 C.3   407  ILE407      0.1561
     90  C          5.6680  -24.7500    8.5030 C.2   407  ILE407      0.2260
     91  O          6.7440  -24.9080    7.9120 O.2   407  ILE407     -0.2867
     92  CB         5.6400  -26.6320   10.2040 C.3   407  ILE407      0.0252
     93  CG1        4.5730  -27.3570    9.3740 C.3   407  ILE407      0.0019
     94  CG2        5.4700  -26.9550   11.6900 C.3   407  ILE407      0.0019
     95  CD1        4.5120  -28.8320    9.6250 C.3   407  ILE407      0.0001
@<TRIPOS>BOND
     1    80    81    1
     2    81    82    1
     3    81    84    1
     4    82    83    2
     5    69    68    2
     6    68    67    1
     7    91    90    2
     8    66    67    1
     9    74    75    1
    10    44    43    1
    11    20    19    2
    12    39    40    1
    13    19    18    1
    14    84    85    1
    15    21    18    1
    16    21    22    1
    17    40    43    1
    18    40    41    1
    19    90    89    1
    20    28    29    1
    21    76    75    1
    22    76    77    2
    23    67    70    1
    24    79    78    1
    25    43    45    1
    26    75    78    1
    27    18    17    1
    28    22    24   ar
    29    22    23   ar
    30    42    41    2
    31     3     4    2
    32     3     2    1
    33    41    46   am
    34    29    30    1
    35    29    32    1
    36    93    95    1
    37    93    92    1
    38    85    87   am
    39    85    86    2
    40    24    26   ar
    41    23    25   ar
    42    35    36    2
    43    35    34    1
    44    17    11   am
    45    30    33   am
    46    30    31    2
    47    89    92    1
    48    89    88    1
    49    70    72    1
    50    70    71    1
    51    33    34    1
    52    46    47    1
    53    92    94    1
    54    26    27   ar
    55     5     2    1
    56     5     6    1
    57    25    27   ar
    58     1     2    1
    59    48    49    2
    60    48    47    1
    61     9    10    1
    62    34    37    1
    63    11    12    2
    64    11    10    1
    65    37    38    1
    66    73    71    1
    67    47    50    1
    68     7     6    1
    69    10    13    1
    70     6     8    1
    71    60    62   ar
    72    60    59   ar
    73    62    64   ar
    74    50    51    1
    75    54    55    1
    76    13    14    1
    77    56    55    1
    78    56    57    2
    79    58    59    1
    80    58    55    1
    81    59    61   ar
    82    51    53    1
    83    51    52    1
    84    14    16    1
    85    14    15    1
    86    64    65    1
    87    64    63   ar
    88    61    63   ar
