@<TRIPOS>MOLECULE
tmp/5vrhA04.pdb
 195 192 0 0 0
SMALL
GASTEIGER

@<TRIPOS>ATOM
      1  N        -10.6220  -12.2560  -13.2940 N.3    71  TRP71      -0.1227
      2  CA       -10.4900  -12.5880  -14.7070 C.3    71  TRP71       0.1737
      3  C         -9.0430  -12.5290  -15.1770 C.2    71  TRP71       0.2595
      4  O         -8.7300  -13.0650  -16.2450 O.2    71  TRP71      -0.2718
      5  CB       -11.3520  -11.6510  -15.5570 C.3    71  TRP71       0.0564
      6  CG       -11.1940  -10.1990  -15.2140 C.ar   71  TRP71       0.0003
      7  CD1      -12.0190   -9.4510  -14.4270 C.ar   71  TRP71       0.0946
      8  CD2      -10.1500   -9.3190  -15.6520 C.ar   71  TRP71       0.0152
      9  NE1      -11.5530   -8.1620  -14.3430 N.ar   71  TRP71      -0.2442
     10  CE2      -10.4080   -8.0540  -15.0870 C.ar   71  TRP71       0.0810
     11  CE3       -9.0240   -9.4770  -16.4670 C.ar   71  TRP71       0.0012
     12  CZ2       -9.5800   -6.9540  -15.3080 C.ar   71  TRP71       0.0191
     13  CZ3       -8.2030   -8.3840  -16.6840 C.ar   71  TRP71       0.0001
     14  CH2       -8.4850   -7.1380  -16.1060 C.ar   71  TRP71       0.0015
     15  N         -8.1530  -11.8950  -14.4070 N.am   72  VAL72      -0.1980
     16  CA        -6.7370  -11.8780  -14.7600 C.3    72  VAL72       0.1595
     17  C         -6.1420  -13.2780  -14.7320 C.2    72  VAL72       0.2287
     18  O         -5.0320  -13.4870  -15.2340 O.2    72  VAL72      -0.2864
     19  CB        -5.9460  -10.9340  -13.8300 C.3    72  VAL72       0.0276
     20  CG1       -6.5560   -9.5360  -13.8270 C.3    72  VAL72       0.0022
     21  CG2       -5.8780  -11.5040  -12.4210 C.3    72  VAL72       0.0022
     22  N         -5.7740  -13.9900  -18.1970 N.3    75  SER75      -0.1217
     23  CA        -4.6050  -13.2800  -18.7070 C.3    75  SER75       0.1889
     24  C         -3.3230  -14.0320  -18.3760 C.2    75  SER75       0.2288
     25  O         -2.4690  -14.2430  -19.2450 O.2    75  SER75      -0.2866
     26  CB        -4.5590  -11.8630  -18.1330 C.3    75  SER75       0.2089
     27  OG        -5.8570  -11.3030  -18.0390 O.3    75  SER75      -0.2183
     28  N         -2.3240  -10.8790   -6.4790 N.3    94  LEU94      -0.1245
     29  CA        -2.7530   -9.5920   -7.0250 C.3    94  LEU94       0.1561
     30  C         -3.8370   -8.9630   -6.1590 C.2    94  LEU94       0.2260
     31  O         -3.7300   -7.7940   -5.7670 O.2    94  LEU94      -0.2867
     32  CB        -3.2430   -9.7570   -8.4700 C.3    94  LEU94       0.0270
     33  CG        -3.6840   -8.5200   -9.2770 C.3    94  LEU94       0.0019
     34  CD1       -2.8620   -7.2590   -8.9590 C.3    94  LEU94       0.0001
     35  CD2       -3.7010   -8.8190  -10.7800 C.3    94  LEU94       0.0001
     36  N         -2.4180   -7.6780   -2.9510 N.3    97  TYR97      -0.1241
     37  CA        -1.6300   -6.4560   -3.0830 C.3    97  TYR97       0.1605
     38  C         -2.5280   -5.2290   -3.1820 C.2    97  TYR97       0.2264
     39  O         -2.2610   -4.2010   -2.5490 O.2    97  TYR97      -0.2867
     40  CB        -0.7110   -6.5400   -4.3030 C.3    97  TYR97       0.0534
     41  CG        -0.1690   -5.1950   -4.7300 C.ar   97  TYR97      -0.0201
     42  CD1        0.8830   -4.6010   -4.0450 C.ar   97  TYR97      -0.0009
     43  CD2       -0.7180   -4.5110   -5.8090 C.ar   97  TYR97      -0.0009
     44  CE1        1.3780   -3.3680   -4.4240 C.ar   97  TYR97       0.0417
     45  CE2       -0.2310   -3.2760   -6.1950 C.ar   97  TYR97       0.0417
     46  CZ         0.8180   -2.7090   -5.5000 C.ar   97  TYR97       0.1957
     47  OH         1.3060   -1.4810   -5.8830 O.3    97  TYR97      -0.2866
     48  N          1.6990    3.6620   -7.6410 N.3   139  VAL139     -0.1231
     49  CA         2.8240    2.8460   -7.1970 C.3   139  VAL139      0.1692
     50  C          3.0850    1.7330   -8.2000 C.2   139  VAL139      0.2591
     51  O          2.1670    1.0030   -8.5970 O.2   139  VAL139     -0.2718
     52  CB         2.5510    2.2810   -5.7950 C.3   139  VAL139      0.0266
     53  CG1        3.6350    1.2840   -5.3990 C.3   139  VAL139      0.0020
     54  CG2        2.4550    3.4090   -4.7770 C.3   139  VAL139      0.0020
     55  N          4.3480    1.6030   -8.6180 N.am  140  LEU140     -0.1980
     56  CA         4.7700    0.5730   -9.5690 C.3   140  LEU140      0.1596
     57  C          3.9810    0.6770  -10.8730 C.2   140  LEU140      0.2287
     58  O          3.5930   -0.3320  -11.4650 O.2   140  LEU140     -0.2864
     59  CB         4.6470   -0.8270   -8.9580 C.3   140  LEU140      0.0297
     60  CG         5.5200   -1.1120   -7.7300 C.3   140  LEU140      0.0022
     61  CD1        5.0250   -2.3440   -6.9810 C.3   140  LEU140      0.0001
     62  CD2        6.9860   -1.2750   -8.1110 C.3   140  LEU140      0.0001
     63  N          1.0960    1.3960  -11.2140 N.3   142  GLY142     -0.1210
     64  CA        -0.2590    1.4280  -10.7050 C.3   142  GLY142      0.1956
     65  C         -1.2090    0.4810  -11.4190 C.2   142  GLY142      0.2611
     66  O         -0.9530   -0.0060  -12.5200 O.2   142  GLY142     -0.2717
     67  N         -2.3370    0.2320  -10.7570 N.am  143  PHE143     -0.1976
     68  CA        -3.4220   -0.5780  -11.3160 C.3   143  PHE143      0.1639
     69  C         -4.7310   -0.0730  -10.7350 C.2   143  PHE143      0.2290
     70  O         -5.2610   -0.6280   -9.7620 O.2   143  PHE143     -0.2864
     71  CB        -3.2210   -2.0650  -11.0140 C.3   143  PHE143      0.0560
     72  CG        -4.1410   -2.9730  -11.7840 C.ar  143  PHE143     -0.0200
     73  CD1       -4.0510   -3.0680  -13.1640 C.ar  143  PHE143     -0.0042
     74  CD2       -5.0920   -3.7390  -11.1270 C.ar  143  PHE143     -0.0042
     75  CE1       -4.8960   -3.9010  -13.8730 C.ar  143  PHE143     -0.0003
     76  CE2       -5.9380   -4.5770  -11.8310 C.ar  143  PHE143     -0.0003
     77  CZ        -5.8390   -4.6580  -13.2050 C.ar  143  PHE143     -0.0000
     78  N         -5.5810   -3.2700  -32.0800 N.3   264  GLU264     -0.1245
     79  CA        -4.2190   -3.2270  -31.5570 C.3   264  GLU264      0.1567
     80  C         -3.3750   -4.3660  -32.1110 C.2   264  GLU264      0.2260
     81  O         -3.7700   -5.5340  -32.0460 O.2   264  GLU264     -0.2867
     82  CB        -4.2400   -3.3000  -30.0300 C.3   264  GLU264      0.0388
     83  CG        -2.8610   -3.4580  -29.4120 C.3   264  GLU264      0.1160
     84  CD        -2.9160   -3.7670  -27.9310 C.2   264  GLU264      0.3649
     85  OE1       -4.0300   -3.9700  -27.4060 O.co2 264  GLU264     -0.2457
     86  OE2       -1.8430   -3.8140  -27.2930 O.co2 264  GLU264     -0.2457
     87  N          2.6000    3.5870  -27.9110 N.3   332  LYS332     -0.1245
     88  CA         2.0460    3.3560  -26.5820 C.3   332  LYS332      0.1561
     89  C          2.9900    3.8760  -25.5070 C.2   332  LYS332      0.2260
     90  O          4.2000    3.6350  -25.5540 O.2   332  LYS332     -0.2867
     91  CB         1.7820    1.8640  -26.3760 C.3   332  LYS332      0.0271
     92  CG         0.5610    1.5520  -25.5140 C.3   332  LYS332      0.0035
     93  CD         0.5290    0.0820  -25.1180 C.3   332  LYS332      0.0206
     94  CE        -0.3890   -0.1560  -23.9280 C.3   332  LYS332      0.1093
     95  NZ        -0.5570   -1.6090  -23.6500 N.3   332  LYS332     -0.1314
     96  N          1.9620   -2.4440  -19.9800 N.3   336  VAL336     -0.1231
     97  CA         1.4080   -3.3280  -18.9560 C.3   336  VAL336      0.1678
     98  C          2.5490   -4.0500  -18.2510 C.2   336  VAL336      0.2434
     99  O          3.4650   -4.5680  -18.9100 O.2   336  VAL336     -0.2733
    100  CB         0.3910   -4.3180  -19.5510 C.3   336  VAL336      0.0265
    101  CG1       -0.8360   -3.5730  -20.0540 C.3   336  VAL336      0.0020
    102  CG2        1.0140   -5.1370  -20.6710 C.3   336  VAL336      0.0020
    103  N          2.5600   -4.0820  -16.9210 N.am  337  PRO337     -0.2718
    104  CA         3.6300   -4.7830  -16.2050 C.3   337  PRO337      0.1535
    105  C          3.6040   -6.2800  -16.4920 C.2   337  PRO337      0.2598
    106  O          2.5380   -6.8900  -16.6000 O.2   337  PRO337     -0.2715
    107  CB         3.3310   -4.4800  -14.7330 C.3   337  PRO337      0.0310
    108  CG         2.5310   -3.2120  -14.7670 C.3   337  PRO337      0.0237
    109  CD         1.6960   -3.3120  -16.0080 C.3   337  PRO337      0.0939
    110  N          4.8030   -6.8570  -16.6260 N.am  338  PHE338     -0.1974
    111  CA         5.0270   -8.2650  -16.9550 C.3   338  PHE338      0.1639
    112  C          4.6380   -8.5820  -18.3950 C.2   338  PHE338      0.2290
    113  O          5.3590   -9.3070  -19.0880 O.2   338  PHE338     -0.2864
    114  CB         4.2830   -9.1840  -15.9820 C.3   338  PHE338      0.0560
    115  CG         4.6930   -9.0010  -14.5520 C.ar  338  PHE338     -0.0200
    116  CD1        5.8990   -9.5050  -14.0950 C.ar  338  PHE338     -0.0042
    117  CD2        3.8780   -8.3200  -13.6660 C.ar  338  PHE338     -0.0042
    118  CE1        6.2820   -9.3350  -12.7790 C.ar  338  PHE338     -0.0003
    119  CE2        4.2550   -8.1480  -12.3490 C.ar  338  PHE338     -0.0003
    120  CZ         5.4580   -8.6570  -11.9060 C.ar  338  PHE338     -0.0000
    121  N          4.3070   -6.3700  -21.0140 N.3   340  GLU340     -0.1245
    122  CA         5.0680   -5.5840  -21.9740 C.3   340  GLU340      0.1567
    123  C          6.4140   -5.1030  -21.4490 C.2   340  GLU340      0.2260
    124  O          7.1990   -4.5540  -22.2310 O.2   340  GLU340     -0.2867
    125  CB         4.2450   -4.3710  -22.4390 C.3   340  GLU340      0.0388
    126  CG         3.2120   -4.7050  -23.5070 C.3   340  GLU340      0.1160
    127  CD         2.1780   -3.6090  -23.6940 C.2   340  GLU340      0.3649
    128  OE1        1.9630   -2.8230  -22.7490 O.co2 340  GLU340     -0.2457
    129  OE2        1.5750   -3.5360  -24.7850 O.co2 340  GLU340     -0.2457
    130  N          9.0940   -4.8040  -13.9620 N.3   343  PRO343     -0.2102
    131  CA         9.3050   -3.6800  -13.0320 C.3   343  PRO343      0.1504
    132  C         10.7540   -3.4680  -12.6220 C.2   343  PRO343      0.2575
    133  O         11.0860   -2.3840  -12.1240 O.2   343  PRO343     -0.2718
    134  CB         8.4370   -4.0620  -11.8260 C.3   343  PRO343      0.0282
    135  CG         7.3800   -4.9570  -12.3970 C.3   343  PRO343      0.0208
    136  CD         8.0780   -5.7470  -13.4670 C.3   343  PRO343      0.0893
    137  N         11.6260   -4.4550  -12.8070 N.am  344  LEU344     -0.1980
    138  CA        13.0170   -4.3010  -12.4140 C.3   344  LEU344      0.1596
    139  C         13.7740   -3.4450  -13.4270 C.2   344  LEU344      0.2287
    140  O         13.3630   -3.2860  -14.5800 O.2   344  LEU344     -0.2864
    141  CB        13.6910   -5.6670  -12.2750 C.3   344  LEU344      0.0297
    142  CG        13.2550   -6.5220  -11.0850 C.3   344  LEU344      0.0022
    143  CD1       13.9140   -7.8770  -11.1980 C.3   344  LEU344      0.0001
    144  CD2       13.6350   -5.8950   -9.7690 C.3   344  LEU344      0.0001
    145  N         -5.6280    0.3900  -25.8480 N.3   370  SER370     -0.1202
    146  CA        -6.1610   -0.5320  -24.8510 C.3   370  SER370      0.2020
    147  C         -6.2380    0.0830  -23.4570 C.2   370  SER370      0.2618
    148  O         -6.9470    1.0740  -23.2400 O.2   370  SER370     -0.2717
    149  CB        -5.3200   -1.8140  -24.8160 C.3   370  SER370      0.2103
    150  OG        -4.0300   -1.5650  -24.2850 O.3   370  SER370     -0.2182
    151  N         -5.5070   -0.5120  -22.5120 N.am  371  TYR371     -0.1975
    152  CA        -5.4700   -0.1400  -21.0990 C.3   371  TYR371      0.1639
    153  C         -5.3530    1.3620  -20.8690 C.2   371  TYR371      0.2290
    154  O         -5.8810    1.8860  -19.8810 O.2   371  TYR371     -0.2864
    155  CB        -4.3050   -0.8760  -20.4240 C.3   371  TYR371      0.0560
    156  CG        -4.0850   -0.5780  -18.9520 C.ar  371  TYR371     -0.0198
    157  CD1       -4.5250   -1.4620  -17.9760 C.ar  371  TYR371     -0.0009
    158  CD2       -3.3860    0.5540  -18.5400 C.ar  371  TYR371     -0.0009
    159  CE1       -4.3140   -1.2110  -16.6330 C.ar  371  TYR371      0.0417
    160  CE2       -3.1710    0.8140  -17.2000 C.ar  371  TYR371      0.0417
    161  CZ        -3.6350   -0.0730  -16.2490 C.ar  371  TYR371      0.1957
    162  OH        -3.4200    0.1790  -14.9130 O.3   371  TYR371     -0.2866
    163  N         -6.8560   -5.3300  -27.8190 N.3   395  ASN395     -0.1240
    164  CA        -7.0000   -6.7760  -27.9600 C.3   395  ASN395      0.1653
    165  C         -7.4310   -7.2900  -26.5910 C.2   395  ASN395      0.2266
    166  O         -6.5940   -7.5850  -25.7330 O.2   395  ASN395     -0.2867
    167  CB        -5.7040   -7.4290  -28.4420 C.3   395  ASN395      0.1155
    168  CG        -5.8490   -8.9240  -28.6600 C.2   395  ASN395      0.2627
    169  OD1       -4.8570   -9.6470  -28.7610 O.2   395  ASN395     -0.2716
    170  ND2       -7.0870   -9.3960  -28.7320 N.am  395  ASN395     -0.0877
    171  N         -6.9370  -10.7240  -23.7250 N.3   398  TRP398     -0.1227
    172  CA        -6.2020  -10.7260  -22.4660 C.3   398  TRP398      0.1737
    173  C         -7.0780  -10.4010  -21.2640 C.2   398  TRP398      0.2595
    174  O         -6.5910  -10.4700  -20.1310 O.2   398  TRP398     -0.2718
    175  CB        -5.0450   -9.7290  -22.5370 C.3   398  TRP398      0.0564
    176  CG        -4.0450  -10.0310  -23.6100 C.ar  398  TRP398      0.0003
    177  CD1       -3.8950   -9.3770  -24.7990 C.ar  398  TRP398      0.0946
    178  CD2       -3.0480  -11.0590  -23.5890 C.ar  398  TRP398      0.0152
    179  NE1       -2.8680   -9.9360  -25.5200 N.ar  398  TRP398     -0.2442
    180  CE2       -2.3320  -10.9710  -24.8000 C.ar  398  TRP398      0.0810
    181  CE3       -2.6930  -12.0480  -22.6660 C.ar  398  TRP398      0.0012
    182  CZ2       -1.2810  -11.8320  -25.1100 C.ar  398  TRP398      0.0191
    183  CZ3       -1.6500  -12.9020  -22.9760 C.ar  398  TRP398      0.0001
    184  CH2       -0.9570  -12.7890  -24.1890 C.ar  398  TRP398      0.0015
    185  N         -8.3410  -10.0380  -21.4730 N.am  399  PHE399     -0.1976
    186  CA        -9.2670   -9.7740  -20.3820 C.3   399  PHE399      0.1639
    187  C        -10.2420  -10.9190  -20.1540 C.2   399  PHE399      0.2290
    188  O        -11.1200  -10.8070  -19.2920 O.2   399  PHE399     -0.2864
    189  CB       -10.0350   -8.4770  -20.6500 C.3   399  PHE399      0.0560
    190  CG        -9.1700   -7.2510  -20.6180 C.ar  399  PHE399     -0.0200
    191  CD1       -8.5740   -6.7790  -21.7730 C.ar  399  PHE399     -0.0042
    192  CD2       -8.9470   -6.5760  -19.4320 C.ar  399  PHE399     -0.0042
    193  CE1       -7.7720   -5.6550  -21.7470 C.ar  399  PHE399     -0.0003
    194  CE2       -8.1460   -5.4530  -19.3980 C.ar  399  PHE399     -0.0003
    195  CZ        -7.5600   -4.9910  -20.5570 C.ar  399  PHE399     -0.0000
@<TRIPOS>BOND
     1    80    81    2
     2    80    79    1
     3    78    79    1
     4    79    82    1
     5    82    83    1
     6    83    84    1
     7   169   168    2
     8   170   168   am
     9   168   167    1
    10   167   164    1
    11   164   163    1
    12   164   165    1
    13    84    85   ar
    14    84    86   ar
    15    87    88    1
    16   165   166    2
    17    88    91    1
    18    88    89    1
    19    91    92    1
    20   145   146    1
    21    90    89    2
    22   179   180   ar
    23   179   177   ar
    24    92    93    1
    25    93    94    1
    26   182   180   ar
    27   182   184   ar
    28   146   149    1
    29   146   147    1
    30   149   150    1
    31   180   178   ar
    32   177   176   ar
    33   129   127   ar
    34   184   183   ar
    35    94    95    1
    36   171   172    1
    37   127   126    1
    38   127   128   ar
    39   176   178   ar
    40   176   175    1
    41   178   181   ar
    42   126   125    1
    43   147   148    2
    44   147   151   am
    45   183   181   ar
    46   175   172    1
    47   151   152    1
    48   172   173    1
    49   125   122    1
    50   124   123    2
    51   122   123    1
    52   122   121    1
    53   191   193   ar
    54   191   190   ar
    55   193   195   ar
    56   185   173   am
    57   185   186    1
    58   173   174    2
    59   152   153    1
    60   152   155    1
    61   153   154    2
    62   102   100    1
    63   189   190    1
    64   189   186    1
    65   190   192   ar
    66   195   194   ar
    67   155   156    1
    68   186   187    1
    69   187   188    2
    70   101   100    1
    71    96    97    1
    72   100    97    1
    73   192   194   ar
    74    25    24    2
    75   113   112    2
    76    97    98    1
    77   156   158   ar
    78   156   157   ar
    79    99    98    2
    80    23    24    1
    81    23    22    1
    82    23    26    1
    83   158   160   ar
    84   112   111    1
    85    98   103   am
    86    26    27    1
    87   157   159   ar
    88   160   161   ar
    89   111   110    1
    90   111   114    1
    91   103   104    1
    92   103   109    1
    93    13    11   ar
    94    13    14   ar
    95   159   161   ar
    96   110   105   am
    97   106   105    2
    98   105   104    1
    99    11     8   ar
   100   161   162    1
   101     4     3    2
   102   104   107    1
   103    14    12   ar
   104   109   108    1
   105   114   115    1
   106     8     6   ar
   107     8    10   ar
   108     5     6    1
   109     5     2    1
   110    12    10   ar
   111    18    17    2
   112     6     7   ar
   113     3     2    1
   114     3    15   am
   115    10     9   ar
   116   108   107    1
   117    16    17    1
   118    16    15    1
   119    16    19    1
   120     2     1    1
   121   140   139    2
   122   115   116   ar
   123   115   117   ar
   124     7     9   ar
   125   116   118   ar
   126   130   136    1
   127   130   131    1
   128    75    77   ar
   129    75    73   ar
   130    19    20    1
   131    19    21    1
   132   117   119   ar
   133   136   135    1
   134   139   138    1
   135    77    76   ar
   136    73    72   ar
   137   131   132    1
   138   131   134    1
   139   137   132   am
   140   137   138    1
   141   118   120   ar
   142   132   133    2
   143    66    65    2
   144   138   141    1
   145   135   134    1
   146   119   120   ar
   147   141   142    1
   148    76    74   ar
   149    72    74   ar
   150    72    71    1
   151    58    57    2
   152    65    67   am
   153    65    64    1
   154    68    71    1
   155    68    67    1
   156    68    69    1
   157    63    64    1
   158   143   142    1
   159   142   144    1
   160    57    56    1
   161    35    33    1
   162    69    70    2
   163    56    59    1
   164    56    55    1
   165    33    34    1
   166    33    32    1
   167    59    60    1
   168    55    50   am
   169    51    50    2
   170    32    29    1
   171    50    49    1
   172    62    60    1
   173    60    61    1
   174    48    49    1
   175    49    52    1
   176    29    28    1
   177    29    30    1
   178    45    43   ar
   179    45    46   ar
   180    30    31    2
   181    47    46    1
   182    43    41   ar
   183    52    53    1
   184    52    54    1
   185    46    44   ar
   186    41    40    1
   187    41    42   ar
   188    44    42   ar
   189    40    37    1
   190    38    37    1
   191    38    39    2
   192    37    36    1
