@<TRIPOS>MOLECULE
tmp/5vrwD00.pdb
 144 138 0 0 0
SMALL
GASTEIGER

@<TRIPOS>ATOM
      1  N         41.9160    0.9580  122.3510 N.3    18  GLU18      -0.1245
      2  CA        42.3870    2.0410  121.4860 C.3    18  GLU18       0.1567
      3  C         41.5960    3.3380  121.6960 C.2    18  GLU18       0.2260
      4  O         42.1530    4.4310  121.5870 O.2    18  GLU18      -0.2867
      5  CB        42.3270    1.6280  120.0120 C.3    18  GLU18       0.0388
      6  CG        43.2070    0.4390  119.6410 C.3    18  GLU18       0.1160
      7  CD        44.6890    0.6650  119.8970 C.2    18  GLU18       0.3649
      8  OE1       45.1450    1.8290  119.8670 O.co2  18  GLU18      -0.2457
      9  OE2       45.4060   -0.3340  120.1250 O.co2  18  GLU18      -0.2457
     10  N         40.1110    6.3390  115.3900 N.3    26  HIS26      -0.1226
     11  CA        40.0070    5.6890  114.0850 C.3    26  HIS26       0.1752
     12  C         40.5080    4.2460  114.1130 C.2    26  HIS26       0.2595
     13  O         40.0480    3.4150  113.3290 O.2    26  HIS26      -0.2718
     14  CB        40.7390    6.5160  113.0280 C.3    26  HIS26       0.0759
     15  CG        40.1920    7.9020  112.8810 C.ar   26  HIS26       0.0818
     16  ND1       40.8790    9.0230  113.2950 N.ar   26  HIS26      -0.2268
     17  CD2       39.0060    8.3450  112.4020 C.ar   26  HIS26       0.1154
     18  CE1       40.1480   10.0980  113.0580 C.ar   26  HIS26       0.1986
     19  NE2       39.0070    9.7140  112.5150 N.ar   26  HIS26      -0.2212
     20  N         41.4420    3.9470  115.0120 N.am   27  LYS27      -0.1980
     21  CA        41.8160    2.5590  115.2860 C.3    27  LYS27       0.1596
     22  C         40.6370    1.8150  115.9130 C.2    27  LYS27       0.2287
     23  O         40.3710    0.6600  115.5780 O.2    27  LYS27      -0.2864
     24  CB        43.0340    2.4910  116.2110 C.3    27  LYS27       0.0298
     25  CG        44.3480    2.8350  115.5250 C.3    27  LYS27       0.0038
     26  CD        45.5350    2.5410  116.4300 C.3    27  LYS27       0.0206
     27  CE        46.8510    2.6240  115.6770 C.3    27  LYS27       0.1093
     28  NZ        47.9920    2.1610  116.5140 N.3    27  LYS27      -0.1314
     29  N         38.2080    1.1130  113.1710 N.3    30  ALA30      -0.1231
     30  CA        38.7060    0.0200  112.3340 C.3    30  ALA30       0.1694
     31  C         38.4140   -1.3480  112.9520 C.2    30  ALA30       0.2592
     32  O         38.0040   -2.2750  112.2510 O.2    30  ALA30      -0.2718
     33  CB        40.1980    0.1780  112.0900 C.3    30  ALA30       0.0304
     34  N         38.6310   -1.4650  114.2620 N.am   31  TYR31      -0.1976
     35  CA        38.3260   -2.7000  114.9890 C.3    31  TYR31       0.1639
     36  C         36.8230   -2.9850  115.0370 C.2    31  TYR31       0.2290
     37  O         36.4100   -4.1440  114.9700 O.2    31  TYR31      -0.2864
     38  CB        38.8900   -2.6580  116.4150 C.3    31  TYR31       0.0560
     39  CG        40.3660   -2.9900  116.5180 C.ar   31  TYR31      -0.0198
     40  CD1       40.8470   -4.2380  116.1300 C.ar   31  TYR31      -0.0009
     41  CD2       41.2770   -2.0660  117.0250 C.ar   31  TYR31      -0.0009
     42  CE1       42.1940   -4.5520  116.2270 C.ar   31  TYR31       0.0417
     43  CE2       42.6250   -2.3720  117.1290 C.ar   31  TYR31       0.0417
     44  CZ        43.0780   -3.6140  116.7280 C.ar   31  TYR31       0.1957
     45  OH        44.4150   -3.9170  116.8300 O.3    31  TYR31      -0.2866
     46  N         34.5410   -1.9010  112.7130 N.3    33  LYS33      -0.1245
     47  CA        34.1900   -2.2920  111.3480 C.3    33  LYS33       0.1561
     48  C         34.6240   -3.7310  111.0690 C.2    33  LYS33       0.2260
     49  O         33.9010   -4.4850  110.4190 O.2    33  LYS33      -0.2867
     50  CB        34.8260   -1.3390  110.3320 C.3    33  LYS33       0.0271
     51  CG        34.3950   -1.5890  108.8950 C.3    33  LYS33       0.0035
     52  CD        34.9960   -0.5700  107.9430 C.3    33  LYS33       0.0206
     53  CE        34.6730   -0.9140  106.4980 C.3    33  LYS33       0.1093
     54  NZ        35.4120   -0.0420  105.5450 N.3    33  LYS33      -0.1314
     55  N         40.8060  -11.8400  106.0410 N.3    52  LYS52      -0.1245
     56  CA        41.3220  -10.6770  105.3010 C.3    52  LYS52       0.1561
     57  C         40.5430  -10.3680  104.0160 C.2    52  LYS52       0.2260
     58  O         40.5270   -9.2220  103.5630 O.2    52  LYS52      -0.2867
     59  CB        42.8120  -10.8580  104.9730 C.3    52  LYS52       0.0271
     60  CG        43.4200   -9.6960  104.1970 C.3    52  LYS52       0.0035
     61  CD        44.9380   -9.6880  104.2430 C.3    52  LYS52       0.0206
     62  CE        45.4890   -8.5170  103.4420 C.3    52  LYS52       0.1093
     63  NZ        46.9660   -8.3800  103.5720 N.3    52  LYS52      -0.1314
     64  N         37.4140  -10.1850  103.7550 N.3    54  LEU54      -0.1231
     65  CA        36.3030   -9.3070  104.1230 C.3    54  LEU54       0.1678
     66  C         36.7650   -7.8520  104.1970 C.2    54  LEU54       0.2434
     67  O         37.8920   -7.5830  104.6130 O.2    54  LEU54      -0.2733
     68  CB        35.7100   -9.7270  105.4700 C.3    54  LEU54       0.0284
     69  CG        35.2030  -11.1670  105.5760 C.3    54  LEU54       0.0019
     70  CD1       34.7490  -11.4650  106.9960 C.3    54  LEU54       0.0001
     71  CD2       34.0800  -11.4220  104.5830 C.3    54  LEU54       0.0001
     72  N         35.8930   -6.9050  103.8000 N.am   55  PRO55      -0.2718
     73  CA        36.2830   -5.4950  103.7820 C.3    55  PRO55       0.1535
     74  C         36.4410   -4.9180  105.1880 C.2    55  PRO55       0.2599
     75  O         35.5730   -5.1140  106.0400 O.2    55  PRO55      -0.2715
     76  CB        35.1270   -4.8200  103.0400 C.3    55  PRO55       0.0310
     77  CG        33.9520   -5.6940  103.2990 C.3    55  PRO55       0.0237
     78  CD        34.4840   -7.0950  103.4110 C.3    55  PRO55       0.0939
     79  N         37.5490   -4.2160  105.4170 N.am   56  GLY56      -0.1941
     80  CA        37.8770   -3.6750  106.7340 C.3    56  GLY56       0.2014
     81  C         38.7340   -4.5990  107.5850 C.2    56  GLY56       0.2639
     82  O         38.9710   -4.3110  108.7590 O.2    56  GLY56      -0.2714
     83  N         39.1930   -5.7070  107.0030 N.am   57  VAL57      -0.1963
     84  CA        40.0930   -6.6380  107.6860 C.3    57  VAL57       0.1727
     85  C         41.4080   -6.6840  106.9170 C.2    57  VAL57       0.2617
     86  O         41.4360   -7.1060  105.7590 O.2    57  VAL57      -0.2715
     87  CB        39.5000   -8.0590  107.7590 C.3    57  VAL57       0.0290
     88  CG1       40.3880   -8.9650  108.6040 C.3    57  VAL57       0.0023
     89  CG2       38.0830   -8.0190  108.3180 C.3    57  VAL57       0.0023
     90  N         42.4910   -6.2520  107.5640 N.am   58  GLY58      -0.1940
     91  CA        43.7980   -6.1470  106.9150 C.3    58  GLY58       0.2014
     92  C         44.8380   -7.1080  107.4520 C.2    58  GLY58       0.2640
     93  O         44.5090   -8.1160  108.0800 O.2    58  GLY58      -0.2714
     94  N         46.1020   -6.7740  107.2070 N.am   59  THR59      -0.1936
     95  CA        47.2280   -7.6500  107.5200 C.3    59  THR59       0.2028
     96  C         47.3730   -7.9130  109.0170 C.2    59  THR59       0.2642
     97  O         47.6480   -9.0400  109.4270 O.2    59  THR59      -0.2714
     98  CB        48.5550   -7.0540  106.9970 C.3    59  THR59       0.1808
     99  OG1       48.3540   -6.4980  105.6920 O.3    59  THR59      -0.2208
    100  CG2       49.6460   -8.1180  106.9290 C.3    59  THR59       0.0379
    101  N         47.1880   -6.8730  109.8240 N.am   60  LYS60      -0.1963
    102  CA        47.4210   -6.9690  111.2660 C.3    60  LYS60       0.1728
    103  C         46.3140   -7.7200  112.0050 C.2    60  LYS60       0.2616
    104  O         46.6020   -8.5360  112.8830 O.2    60  LYS60      -0.2715
    105  CB        47.6210   -5.5770  111.8690 C.3    60  LYS60       0.0311
    106  CG        49.0040   -5.0020  111.6020 C.3    60  LYS60       0.0038
    107  CD        49.0800   -3.5310  111.9790 C.3    60  LYS60       0.0206
    108  CE        50.4330   -3.1720  112.5720 C.3    60  LYS60       0.1093
    109  NZ        50.5970   -3.7010  113.9560 N.3    60  LYS60      -0.1314
    110  N         45.0580   -7.4500  111.6550 N.am   61  ILE61      -0.1977
    111  CA        43.9240   -8.1430  112.2750 C.3    61  ILE61       0.1596
    112  C         43.9300   -9.6190  111.8720 C.2    61  ILE61       0.2287
    113  O         43.6360  -10.4880  112.6930 O.2    61  ILE61      -0.2864
    114  CB        42.5720   -7.4680  111.9350 C.3    61  ILE61       0.0276
    115  CG1       42.4640   -6.1270  112.6710 C.3    61  ILE61       0.0022
    116  CG2       41.3980   -8.3600  112.3250 C.3    61  ILE61       0.0022
    117  CD1       41.2940   -5.2660  112.2450 C.3    61  ILE61       0.0001
    118  N         46.3350  -11.3730  114.0360 N.3    64  LYS64      -0.1245
    119  CA        45.7450  -11.5250  115.3680 C.3    64  LYS64       0.1561
    120  C         44.7220  -12.6610  115.4050 C.2    64  LYS64       0.2260
    121  O         44.6090  -13.3630  116.4120 O.2    64  LYS64      -0.2867
    122  CB        45.1000  -10.2180  115.8380 C.3    64  LYS64       0.0271
    123  CG        46.0980   -9.1420  116.2320 C.3    64  LYS64       0.0035
    124  CD        45.3980   -7.9460  116.8560 C.3    64  LYS64       0.0206
    125  CE        46.3880   -6.8870  117.3120 C.3    64  LYS64       0.1093
    126  NZ        46.9500   -6.1150  116.1700 N.3    64  LYS64      -0.1314
    127  N         48.7980   -9.6770  123.3830 N.3    76  LYS76      -0.1245
    128  CA        48.5690   -8.2430  123.5300 C.3    76  LYS76       0.1561
    129  C         47.4460   -7.9570  124.5270 C.2    76  LYS76       0.2260
    130  O         47.5740   -7.0670  125.3660 O.2    76  LYS76      -0.2867
    131  CB        48.2350   -7.6180  122.1730 C.3    76  LYS76       0.0271
    132  CG        48.1130   -6.1020  122.1890 C.3    76  LYS76       0.0035
    133  CD        47.9400   -5.5510  120.7840 C.3    76  LYS76       0.0206
    134  CE        47.8760   -4.0330  120.7870 C.3    76  LYS76       0.1093
    135  NZ        47.9040   -3.4790  119.4060 N.3    76  LYS76      -0.1314
    136  N         31.2950    7.8960   99.4720 N.3   278  GLU278     -0.1245
    137  CA        31.7670    7.2470   98.2410 C.3   278  GLU278      0.1567
    138  C         30.8130    7.4530   97.0540 C.2   278  GLU278      0.2260
    139  O         31.2510    7.4550   95.9020 O.2   278  GLU278     -0.2867
    140  CB        31.9860    5.7490   98.4730 C.3   278  GLU278      0.0388
    141  CG        33.1030    5.4030   99.3840 C.3   278  GLU278      0.1160
    142  CD        33.1280    3.9520   99.8270 C.2   278  GLU278      0.3649
    143  OE1       32.1870    3.1780   99.5240 O.co2 278  GLU278     -0.2457
    144  OE2       34.0060    3.5550  100.5600 O.co2 278  GLU278     -0.2457
@<TRIPOS>BOND
     1   139   138    2
     2   138   137    1
     3   137   140    1
     4   137   136    1
     5   140   141    1
     6   141   142    1
     7   143   142   ar
     8   142   144   ar
     9    76    77    1
    10    76    73    1
    11    77    78    1
    12    78    72    1
    13    62    63    1
    14    62    61    1
    15    58    57    2
    16    64    65    1
    17    73    72    1
    18    73    74    1
    19    72    66   am
    20    57    56    1
    21    65    66    1
    22    65    68    1
    23    60    61    1
    24    60    59    1
    25    66    67    2
    26    71    69    1
    27    59    56    1
    28    74    79   am
    29    74    75    2
    30    56    55    1
    31    79    80    1
    32    68    69    1
    33    54    53    1
    34    69    70    1
    35    99    98    1
    36    86    85    2
    37    53    52    1
    38    80    81    1
    39    91    92    1
    40    91    90    1
    41    85    90   am
    42    85    84    1
    43   100    98    1
    44    98    95    1
    45    83    81   am
    46    83    84    1
    47    94    92   am
    48    94    95    1
    49    92    93    2
    50    95    96    1
    51    81    82    2
    52    84    87    1
    53    87    89    1
    54    87    88    1
    55    52    51    1
    56    51    50    1
    57    96    97    2
    58    96   101   am
    59   101   102    1
    60    50    47    1
    61    49    48    2
    62    48    47    1
    63   102   105    1
    64   102   103    1
    65    47    46    1
    66   106   105    1
    67   106   107    1
    68   110   103   am
    69   110   111    1
    70   112   111    1
    71   112   113    2
    72   114   111    1
    73   114   116    1
    74   114   115    1
    75   107   108    1
    76   103   104    2
    77    33    30    1
    78   117   115    1
    79    32    31    2
    80    30    31    1
    81    30    29    1
    82    17    19   ar
    83    17    15   ar
    84    19    18   ar
    85   108   109    1
    86    15    14    1
    87    15    16   ar
    88    31    34   am
    89    14    11    1
    90    18    16   ar
    91    13    12    2
    92   118   119    1
    93    11    12    1
    94    11    10    1
    95    12    20   am
    96    34    35    1
    97    37    36    2
    98    35    36    1
    99    35    38    1
   100    20    21    1
   101    21    22    1
   102    21    24    1
   103   119   120    1
   104   119   122    1
   105   120   121    2
   106    25    24    1
   107    25    26    1
   108    23    22    2
   109    27    26    1
   110    27    28    1
   111   122   123    1
   112    40    42   ar
   113    40    39   ar
   114   126   125    1
   115    42    44   ar
   116   123   124    1
   117    38    39    1
   118    39    41   ar
   119    44    45    1
   120    44    43   ar
   121   124   125    1
   122    41    43   ar
   123   135   134    1
   124     6     7    1
   125     6     5    1
   126     8     7   ar
   127     7     9   ar
   128     5     2    1
   129   133   134    1
   130   133   132    1
   131     2     3    1
   132     2     1    1
   133     4     3    2
   134   131   132    1
   135   131   128    1
   136   127   128    1
   137   128   129    1
   138   129   130    2
