@<TRIPOS>MOLECULE
tmp/5vs6B00.pdb
 187 184 0 0 0
SMALL
GASTEIGER

@<TRIPOS>ATOM
      1  N         71.1600  -55.7220  209.5800 N.3    16  TYR16      -0.1241
      2  CA        70.8350  -56.2340  208.2500 C.3    16  TYR16       0.1605
      3  C         71.5910  -55.5580  207.1080 C.2    16  TYR16       0.2264
      4  O         71.4710  -56.0090  205.9620 O.2    16  TYR16      -0.2867
      5  CB        69.3170  -56.1080  207.9840 C.3    16  TYR16       0.0534
      6  CG        68.6930  -54.8130  208.4600 C.ar   16  TYR16      -0.0201
      7  CD1       68.7330  -53.6670  207.6640 C.ar   16  TYR16      -0.0009
      8  CD2       68.0600  -54.7380  209.7000 C.ar   16  TYR16      -0.0009
      9  CE1       68.1810  -52.4940  208.0900 C.ar   16  TYR16       0.0417
     10  CE2       67.5000  -53.5680  210.1360 C.ar   16  TYR16       0.0417
     11  CZ        67.5680  -52.4500  209.3140 C.ar   16  TYR16       0.1957
     12  OH        67.0170  -51.2760  209.7040 O.3    16  TYR16      -0.2866
     13  N         64.1010  -49.0940  211.8760 N.3    86  HIS86      -0.1226
     14  CA        63.6920  -49.2780  210.4890 C.3    86  HIS86       0.1752
     15  C         63.6700  -50.7550  210.1270 C.2    86  HIS86       0.2596
     16  O         64.5170  -51.5200  210.5900 O.2    86  HIS86      -0.2718
     17  CB        64.6410  -48.5510  209.5300 C.3    86  HIS86       0.0759
     18  CG        64.5830  -47.0600  209.6430 C.ar   86  HIS86       0.0818
     19  ND1       65.3520  -46.3460  210.5410 N.ar   86  HIS86      -0.2268
     20  CD2       63.8300  -46.1500  208.9840 C.ar   86  HIS86       0.1154
     21  CE1       65.0760  -45.0610  210.4240 C.ar   86  HIS86       0.1986
     22  NE2       64.1570  -44.9140  209.4870 N.ar   86  HIS86      -0.2212
     23  N         62.7140  -51.1470  209.2820 N.am   87  ASP87      -0.1960
     24  CA        62.7650  -52.4340  208.5970 C.3    87  ASP87       0.1840
     25  C         63.7750  -52.3890  207.4490 C.2    87  ASP87       0.2622
     26  O         64.1830  -51.3220  206.9860 O.2    87  ASP87      -0.2715
     27  CB        61.3910  -52.8270  208.0440 C.3    87  ASP87       0.1450
     28  CG        60.3590  -53.0720  209.1360 C.2    87  ASP87       0.3671
     29  OD1       60.4570  -54.0930  209.8710 O.co2  87  ASP87      -0.2456
     30  OD2       59.4440  -52.2310  209.2620 O.co2  87  ASP87      -0.2456
     31  N         64.1640  -53.5790  206.9790 N.am   88  VAL88      -0.1963
     32  CA        65.2220  -53.6780  205.9730 C.3    88  VAL88       0.1727
     33  C         64.8150  -52.9720  204.6760 C.2    88  VAL88       0.2616
     34  O         65.6410  -52.3240  204.0210 O.2    88  VAL88      -0.2715
     35  CB        65.5830  -55.1610  205.7390 C.3    88  VAL88       0.0290
     36  CG1       64.3540  -55.9620  205.3160 C.3    88  VAL88       0.0023
     37  CG2       66.7470  -55.3090  204.7370 C.3    88  VAL88       0.0023
     38  N         63.5410  -53.0790  204.2790 N.am   89  GLN89      -0.1977
     39  CA        63.1300  -52.4370  203.0350 C.3    89  GLN89       0.1601
     40  C         63.1780  -50.9170  203.1460 C.2    89  GLN89       0.2287
     41  O         63.3010  -50.2300  202.1240 O.2    89  GLN89      -0.2864
     42  CB        61.7200  -52.9030  202.6080 C.3    89  GLN89       0.0394
     43  CG        60.5450  -52.5350  203.5410 C.3    89  GLN89       0.0908
     44  CD        60.3800  -53.5280  204.6940 C.2    89  GLN89       0.2608
     45  OE1       61.3180  -54.2350  205.0560 O.2    89  GLN89      -0.2717
     46  NE2       59.1890  -53.5840  205.2670 N.am   89  GLN89      -0.0878
     47  N         55.4570  -57.1130  201.3120 N.3   143  GLN143     -0.1245
     48  CA        55.5330  -57.6400  202.6660 C.3   143  GLN143      0.1566
     49  C         54.5790  -58.8200  202.7790 C.2   143  GLN143      0.2260
     50  O         53.3720  -58.6590  202.5830 O.2   143  GLN143     -0.2867
     51  CB        55.1960  -56.5480  203.6780 C.3   143  GLN143      0.0367
     52  CG        56.3160  -55.5170  203.8350 C.3   143  GLN143      0.0905
     53  CD        56.4770  -54.6160  202.6220 C.2   143  GLN143      0.2608
     54  OE1       55.5340  -53.9630  202.1930 O.2   143  GLN143     -0.2717
     55  NE2       57.6770  -54.5830  202.0640 N.am  143  GLN143     -0.0878
     56  N         59.8070  -59.2770  201.6190 N.3   197  GLN197     -0.1231
     57  CA        60.0920  -59.3350  203.0420 C.3   197  GLN197      0.1698
     58  C         59.1000  -60.2720  203.7030 C.2   197  GLN197      0.2592
     59  O         57.9340  -60.3390  203.3060 O.2   197  GLN197     -0.2718
     60  CB        60.0350  -57.9490  203.6850 C.3   197  GLN197      0.0381
     61  CG        61.2860  -57.1390  203.3940 C.3   197  GLN197      0.0905
     62  CD        61.1860  -56.4210  202.0630 C.2   197  GLN197      0.2608
     63  OE1       60.1060  -55.9640  201.6920 O.2   197  GLN197     -0.2717
     64  NE2       62.3070  -56.3140  201.3400 N.am  197  GLN197     -0.0878
     65  N         59.5750  -61.0230  204.6860 N.am  198  LEU198     -0.1966
     66  CA        58.7120  -61.9110  205.4510 C.3   198  LEU198      0.1728
     67  C         58.4170  -61.2510  206.7850 C.2   198  LEU198      0.2616
     68  O         59.3280  -60.7520  207.4580 O.2   198  LEU198     -0.2715
     69  CB        59.3600  -63.2820  205.6460 C.3   198  LEU198      0.0311
     70  CG        59.8900  -63.9750  204.3830 C.3   198  LEU198      0.0022
     71  CD1       60.4080  -65.3730  204.7170 C.3   198  LEU198      0.0001
     72  CD2       58.8520  -64.0330  203.2430 C.3   198  LEU198      0.0001
     73  N         57.1430  -61.2170  207.1530 N.am  199  MET199     -0.1963
     74  CA        56.7270  -60.4440  208.3200 C.3   199  MET199      0.1736
     75  C         56.9150  -61.2840  209.5840 C.2   199  MET199      0.2616
     76  O         55.9690  -61.7190  210.2410 O.2   199  MET199     -0.2715
     77  CB        55.2970  -59.9620  208.1440 C.3   199  MET199      0.0427
     78  CG        55.1350  -58.9230  207.0260 C.3   199  MET199      0.0599
     79  SD        53.3950  -58.5350  206.7020 S.3   199  MET199     -0.1393
     80  CE        52.8620  -58.2050  208.3720 C.3   199  MET199      0.0692
     81  N         58.1860  -61.4930  209.9340 N.am  200  ARG200     -0.1963
     82  CA        58.5060  -62.2890  211.1160 C.3   200  ARG200      0.1729
     83  C         58.4540  -61.4770  212.4030 C.2   200  ARG200      0.2616
     84  O         58.1830  -62.0440  213.4650 O.2   200  ARG200     -0.2715
     85  CB        59.8910  -62.9280  210.9660 C.3   200  ARG200      0.0348
     86  CG        59.8850  -64.1600  210.0510 C.3   200  ARG200      0.0492
     87  CD        61.1640  -64.9470  210.1670 C.3   200  ARG200      0.2205
     88  NE        61.1580  -66.1430  209.3240 N.pl3 200  ARG200     -0.0865
     89  CZ        60.7150  -67.3240  209.7350 C.cat 200  ARG200      0.5346
     90  NH1       60.7560  -68.3850  208.9380 N.pl3 200  ARG200      0.1354
     91  NH2       60.2400  -67.4420  210.9610 N.pl3 200  ARG200      0.1354
     92  N         58.7180  -60.1670  212.3390 N.am  201  PHE201     -0.1960
     93  CA        58.7200  -59.3110  213.5270 C.3   201  PHE201      0.1771
     94  C         57.3120  -58.7590  213.6790 C.2   201  PHE201      0.2619
     95  O         56.9140  -57.8560  212.9400 O.2   201  PHE201     -0.2715
     96  CB        59.7370  -58.1840  213.3810 C.3   201  PHE201      0.0574
     97  CG        60.3920  -57.7640  214.6800 C.ar  201  PHE201     -0.0200
     98  CD1       60.6570  -58.6950  215.6850 C.ar  201  PHE201     -0.0042
     99  CD2       60.7500  -56.4310  214.8880 C.ar  201  PHE201     -0.0042
    100  CE1       61.2800  -58.3140  216.8820 C.ar  201  PHE201     -0.0003
    101  CE2       61.3720  -56.0290  216.0730 C.ar  201  PHE201     -0.0003
    102  CZ        61.6400  -56.9700  217.0770 C.ar  201  PHE201     -0.0000
    103  N         56.5520  -59.2890  214.6380 N.am  202  MET202     -0.1977
    104  CA        55.1490  -58.9240  214.7850 C.3   202  MET202      0.1605
    105  C         54.8840  -58.3320  216.1600 C.2   202  MET202      0.2287
    106  O         55.5110  -58.7140  217.1550 O.2   202  MET202     -0.2864
    107  CB        54.2180  -60.1230  214.5530 C.3   202  MET202      0.0413
    108  CG        54.1130  -60.5530  213.0970 C.3   202  MET202      0.0598
    109  SD        53.6550  -59.2080  211.9850 S.3   202  MET202     -0.1393
    110  CE        51.9250  -58.9820  212.4020 C.3   202  MET202      0.0692
    111  N         59.9780  -61.4480  217.3800 N.3   212  LYS212     -0.1245
    112  CA        60.2860  -62.2050  216.1760 C.3   212  LYS212      0.1561
    113  C         59.5870  -63.5570  216.2150 C.2   212  LYS212      0.2260
    114  O         59.6730  -64.2780  217.2140 O.2   212  LYS212     -0.2867
    115  CB        61.7960  -62.4120  216.0400 C.3   212  LYS212      0.0271
    116  CG        62.1610  -63.3270  214.8640 C.3   212  LYS212      0.0035
    117  CD        63.6550  -63.6050  214.7400 C.3   212  LYS212      0.0206
    118  CE        63.9200  -64.4020  213.4780 C.3   212  LYS212      0.1093
    119  NZ        65.2290  -65.1040  213.4300 N.3   212  LYS212     -0.1314
    120  N         68.5140  -64.2580  209.6120 N.3   248  HIS248     -0.1241
    121  CA        68.7640  -63.8010  210.9650 C.3   248  HIS248      0.1621
    122  C         68.6540  -65.0060  211.8900 C.2   248  HIS248      0.2264
    123  O         67.7570  -65.8430  211.7210 O.2   248  HIS248     -0.2867
    124  CB        67.7560  -62.7220  211.3280 C.3   248  HIS248      0.0745
    125  CG        67.8170  -62.2780  212.7500 C.ar  248  HIS248      0.0817
    126  ND1       67.2220  -62.9820  213.7710 N.ar  248  HIS248     -0.2268
    127  CD2       68.3650  -61.1800  213.3170 C.ar  248  HIS248      0.1154
    128  CE1       67.4110  -62.3440  214.9100 C.ar  248  HIS248      0.1986
    129  NE2       68.1030  -61.2470  214.6610 N.ar  248  HIS248     -0.2212
    130  N         66.6030  -63.5970  218.2670 N.3   251  ASP251     -0.1225
    131  CA        65.3230  -63.0070  218.6190 C.3   251  ASP251      0.1805
    132  C         65.3330  -61.4890  218.6720 C.2   251  ASP251      0.2598
    133  O         64.2980  -60.8960  218.9920 O.2   251  ASP251     -0.2718
    134  CB        64.8560  -63.5400  219.9830 C.3   251  ASP251      0.1424
    135  CG        64.5400  -65.0150  219.9470 C.2   251  ASP251      0.3668
    136  OD1       65.4030  -65.8240  220.3390 O.co2 251  ASP251     -0.2456
    137  OD2       63.4250  -65.3630  219.5050 O.co2 251  ASP251     -0.2456
    138  N         66.4520  -60.8440  218.3670 N.am  252  ASN252     -0.1960
    139  CA        66.5950  -59.4180  218.6170 C.3   252  ASN252      0.1819
    140  C         67.7020  -58.8650  217.7210 C.2   252  ASN252      0.2621
    141  O         68.3450  -59.5970  216.9560 O.2   252  ASN252     -0.2715
    142  CB        66.8750  -59.1610  220.1020 C.3   252  ASN252      0.1195
    143  CG        67.9550  -60.0930  220.6710 C.2   252  ASN252      0.2630
    144  OD1       69.0970  -60.0880  220.2150 O.2   252  ASN252     -0.2716
    145  ND2       67.5910  -60.8810  221.6750 N.am  252  ASN252     -0.0877
    146  N         67.9140  -57.5470  217.8190 N.am  253  HIS253     -0.1973
    147  CA        68.9330  -56.8940  217.0070 C.3   253  HIS253      0.1656
    148  C         70.3490  -57.2970  217.4100 C.2   253  HIS253      0.2291
    149  O         71.2950  -56.9890  216.6760 O.2   253  HIS253     -0.2864
    150  CB        68.7590  -55.3690  217.0730 C.3   253  HIS253      0.0771
    151  CG        67.5120  -54.8760  216.3980 C.ar  253  HIS253      0.0820
    152  ND1       66.3300  -54.6630  217.0770 N.ar  253  HIS253     -0.2267
    153  CD2       67.2580  -54.5750  215.1010 C.ar  253  HIS253      0.1154
    154  CE1       65.4010  -54.2560  216.2290 C.ar  253  HIS253      0.1986
    155  NE2       65.9380  -54.1920  215.0240 N.ar  253  HIS253     -0.2212
    156  N         73.3830  -61.8520  211.6090 N.3   257  TYR257     -0.1241
    157  CA        72.8240  -61.5360  210.2970 C.3   257  TYR257      0.1605
    158  C         73.7620  -62.0600  209.2150 C.2   257  TYR257      0.2264
    159  O         74.9440  -61.7010  209.2010 O.2   257  TYR257     -0.2867
    160  CB        72.6230  -60.0140  210.1050 C.3   257  TYR257      0.0534
    161  CG        71.5810  -59.3430  211.0030 C.ar  257  TYR257     -0.0201
    162  CD1       71.9030  -58.9380  212.2950 C.ar  257  TYR257     -0.0009
    163  CD2       70.2780  -59.1130  210.5520 C.ar  257  TYR257     -0.0009
    164  CE1       70.9590  -58.3370  213.1110 C.ar  257  TYR257      0.0417
    165  CE2       69.3270  -58.5050  211.3600 C.ar  257  TYR257      0.0417
    166  CZ        69.6760  -58.1080  212.6300 C.ar  257  TYR257      0.1957
    167  OH        68.7430  -57.5010  213.4490 O.3   257  TYR257     -0.2866
    168  N         66.5360  -68.3740  210.3990 N.3   295  ASN295     -0.1240
    169  CA        65.5510  -68.3700  209.3210 C.3   295  ASN295      0.1653
    170  C         65.6560  -67.0960  208.4880 C.2   295  ASN295      0.2266
    171  O         66.3160  -66.1180  208.8630 O.2   295  ASN295     -0.2867
    172  CB        64.1310  -68.5400  209.8780 C.3   295  ASN295      0.1155
    173  CG        63.8820  -67.6740  211.1030 C.2   295  ASN295      0.2627
    174  OD1       64.1260  -66.4680  211.0800 O.2   295  ASN295     -0.2716
    175  ND2       63.4250  -68.2920  212.1880 N.am  295  ASN295     -0.0877
    176  N         64.2620  -63.6940  206.5150 N.3   297  TYR297     -0.1241
    177  CA        63.3480  -62.5740  206.6370 C.3   297  TYR297      0.1605
    178  C         63.1820  -61.7940  205.3350 C.2   297  TYR297      0.2264
    179  O         62.3460  -60.8850  205.2760 O.2   297  TYR297     -0.2867
    180  CB        63.8150  -61.6110  207.7440 C.3   297  TYR297      0.0534
    181  CG        65.1670  -60.9610  207.4810 C.ar  297  TYR297     -0.0201
    182  CD1       65.2610  -59.7680  206.7660 C.ar  297  TYR297     -0.0009
    183  CD2       66.3460  -61.5280  207.9600 C.ar  297  TYR297     -0.0009
    184  CE1       66.4870  -59.1660  206.5190 C.ar  297  TYR297      0.0417
    185  CE2       67.5830  -60.9260  207.7120 C.ar  297  TYR297      0.0417
    186  CZ        67.6390  -59.7460  206.9970 C.ar  297  TYR297      0.1957
    187  OH        68.8490  -59.1400  206.7490 O.3   297  TYR297     -0.2866
@<TRIPOS>BOND
     1    47    48    1
     2    64    62   am
     3    56    57    1
     4    63    62    2
     5    62    61    1
     6    55    53   am
     7    41    40    2
     8    54    53    2
     9    50    49    2
    10    42    39    1
    11    42    43    1
    12    53    52    1
    13    48    49    1
    14    48    51    1
    15    39    40    1
    16    39    38    1
    17    57    60    1
    18    57    58    1
    19    72    70    1
    20    59    58    2
    21    61    60    1
    22    43    44    1
    23    51    52    1
    24    58    65   am
    25    34    33    2
    26    38    33   am
    27    70    71    1
    28    70    69    1
    29    33    32    1
    30    65    66    1
    31    44    45    2
    32    44    46   am
    33    37    35    1
    34   179   178    2
    35    36    35    1
    36   178   177    1
    37    66    69    1
    38    66    67    1
    39    35    32    1
    40     4     3    2
    41    32    31    1
    42   176   177    1
    43   184   182   ar
    44   184   186   ar
    45   177   180    1
    46    79    78    1
    47    79    80    1
    48   187   186    1
    49   182   181   ar
    50    67    73   am
    51    67    68    2
    52    31    25   am
    53    26    25    2
    54   186   185   ar
    55    78    77    1
    56     3     2    1
    57    73    74    1
    58    25    24    1
    59   181   180    1
    60   181   183   ar
    61     7     9   ar
    62     7     6   ar
    63   185   183   ar
    64     5     2    1
    65     5     6    1
    66    27    24    1
    67    27    28    1
    68     9    11   ar
    69    77    74    1
    70     2     1    1
    71    74    75    1
    72     6     8   ar
    73   170   171    2
    74   170   169    1
    75    24    23    1
    76    90    89    1
    77    20    22   ar
    78    20    18   ar
    79    28    30   ar
    80    28    29   ar
    81   159   158    2
    82   158   157    1
    83    23    15   am
    84    11    12    1
    85    11    10   ar
    86   169   172    1
    87   169   168    1
    88    88    89    2
    89    88    87    1
    90    22    21   ar
    91    17    18    1
    92    17    14    1
    93    75    81   am
    94    75    76    2
    95   120   121    1
    96    18    19   ar
    97     8    10   ar
    98    89    91    1
    99   172   173    1
   100    81    82    1
   101    86    87    1
   102    86    85    1
   103   160   157    1
   104   160   161    1
   105    15    14    1
   106    15    16    2
   107   157   156    1
   108    21    19   ar
   109    14    13    1
   110   163   161   ar
   111   163   165   ar
   112   121   124    1
   113   121   122    1
   114    85    82    1
   115   161   162   ar
   116   174   173    2
   117   173   175   am
   118    82    83    1
   119   124   125    1
   120   165   166   ar
   121   123   122    2
   122   109   110    1
   123   109   108    1
   124   162   164   ar
   125    92    83   am
   126    92    93    1
   127    83    84    2
   128   166   164   ar
   129   166   167    1
   130   125   127   ar
   131   125   126   ar
   132    95    94    2
   133   108   107    1
   134   127   129   ar
   135    96    93    1
   136    96    97    1
   137   119   118    1
   138   118   117    1
   139    93    94    1
   140    94   103   am
   141   126   128   ar
   142   107   104    1
   143   103   104    1
   144   129   128   ar
   145    97    99   ar
   146    97    98   ar
   147   117   116    1
   148   104   105    1
   149   116   115    1
   150    99   101   ar
   151   155   153   ar
   152   155   154   ar
   153   153   151   ar
   154    98   100   ar
   155   115   112    1
   156   101   102   ar
   157   105   106    2
   158   112   113    1
   159   112   111    1
   160   113   114    2
   161   154   152   ar
   162   151   150    1
   163   151   152   ar
   164   149   148    2
   165   100   102   ar
   166   141   140    2
   167   147   150    1
   168   147   148    1
   169   147   146    1
   170   140   146   am
   171   140   139    1
   172   130   131    1
   173   138   139    1
   174   138   132   am
   175   139   142    1
   176   131   132    1
   177   131   134    1
   178   132   133    2
   179   137   135   ar
   180   135   134    1
   181   135   136   ar
   182   142   143    1
   183   144   143    2
   184   143   145   am
