@<TRIPOS>MOLECULE
tmp/5vscA01.pdb
 147 141 0 0 0
SMALL
GASTEIGER

@<TRIPOS>ATOM
      1  N         12.7840   19.9980   22.2190 N.3   157  ASP157     -0.1239
      2  CA        11.9360   20.1500   23.3970 C.3   157  ASP157      0.1674
      3  C         10.9160   21.2660   23.2080 C.2   157  ASP157      0.2266
      4  O          9.7930   21.1680   23.7120 O.2   157  ASP157     -0.2867
      5  CB        12.7520   20.2630   24.6880 C.3   157  ASP157      0.1410
      6  CG        13.4410   21.5910   24.8360 C.2   157  ASP157      0.3668
      7  OD1       14.2720   21.9320   23.9700 O.co2 157  ASP157     -0.2456
      8  OD2       13.1550   22.2890   25.8320 O.co2 157  ASP157     -0.2456
      9  N          8.1780   19.6160   21.3960 N.3   160  ALA160     -0.1231
     10  CA         7.4540   18.7750   22.3450 C.3   160  ALA160      0.1694
     11  C          6.5600   19.6060   23.2600 C.2   160  ALA160      0.2592
     12  O          5.4810   19.1510   23.6570 O.2   160  ALA160     -0.2718
     13  CB         8.4350   17.9240   23.1550 C.3   160  ALA160      0.0304
     14  N          6.9830   20.8300   23.5890 N.am  161  ASP161     -0.1960
     15  CA         6.2070   21.6930   24.4740 C.3   161  ASP161      0.1840
     16  C          4.8690   22.1180   23.8810 C.2   161  ASP161      0.2622
     17  O          3.9960   22.5710   24.6310 O.2   161  ASP161     -0.2715
     18  CB         7.0180   22.9420   24.8230 C.3   161  ASP161      0.1450
     19  CG         7.6500   22.8610   26.1940 C.2   161  ASP161      0.3671
     20  OD1        7.0290   22.2620   27.0990 O.co2 161  ASP161     -0.2456
     21  OD2        8.7600   23.4080   26.3700 O.co2 161  ASP161     -0.2456
     22  N          4.6770   21.9950   22.5660 N.am  162  VAL162     -0.1963
     23  CA         3.4340   22.4240   21.9400 C.3   162  VAL162      0.1727
     24  C          2.6410   21.2730   21.3350 C.2   162  VAL162      0.2616
     25  O          1.6440   21.5100   20.6530 O.2   162  VAL162     -0.2715
     26  CB         3.6390   23.5640   20.9220 C.3   162  VAL162      0.0290
     27  CG1        4.1320   24.8210   21.6210 C.3   162  VAL162      0.0023
     28  CG2        4.6000   23.1270   19.8270 C.3   162  VAL162      0.0023
     29  N          3.0360   20.0310   21.5850 N.am  163  ARG163     -0.1963
     30  CA         2.3390   18.9020   20.9870 C.3   163  ARG163      0.1729
     31  C          1.2100   18.4040   21.8780 C.2   163  ARG163      0.2616
     32  O          1.3970   18.2050   23.0820 O.2   163  ARG163     -0.2715
     33  CB         3.2980   17.7800   20.6220 C.3   163  ARG163      0.0348
     34  CG         4.1310   18.1860   19.4480 C.3   163  ARG163      0.0492
     35  CD         4.6330   17.0030   18.7150 C.3   163  ARG163      0.2205
     36  NE         5.1910   17.4000   17.4310 N.pl3 163  ARG163     -0.0865
     37  CZ         5.6250   16.5350   16.5220 C.cat 163  ARG163      0.5346
     38  NH1        5.5650   15.2330   16.7700 N.pl3 163  ARG163      0.1354
     39  NH2        6.1220   16.9760   15.3740 N.pl3 163  ARG163      0.1354
     40  N          0.0390   18.2180   21.2660 N.am  164  GLU164     -0.1977
     41  CA        -1.1500   17.7890   21.9960 C.3   164  GLU164      0.1602
     42  C         -0.9390   16.4400   22.6710 C.2   164  GLU164      0.2287
     43  O         -1.0920   16.3070   23.8910 O.2   164  GLU164     -0.2864
     44  CB        -2.3350   17.7180   21.0330 C.3   164  GLU164      0.0415
     45  CG        -2.9640   19.0610   20.7180 C.3   164  GLU164      0.1163
     46  CD        -4.4110   18.9290   20.2920 C.2   164  GLU164      0.3649
     47  OE1       -4.9590   17.8130   20.4170 O.co2 164  GLU164     -0.2457
     48  OE2       -4.9980   19.9330   19.8330 O.co2 164  GLU164     -0.2457
     49  N          1.0380   13.7080   24.1560 N.3   166  ASP166     -0.1239
     50  CA         2.3360   13.4170   24.7510 C.3   166  ASP166      0.1674
     51  C          2.4080   12.0110   25.3390 C.2   166  ASP166      0.2266
     52  O          3.2300   11.7580   26.2250 O.2   166  ASP166     -0.2867
     53  CB         2.7150   14.4710   25.7960 C.3   166  ASP166      0.1410
     54  CG         1.7030   14.5800   26.9250 C.2   166  ASP166      0.3668
     55  OD1        0.6470   13.9100   26.8710 O.co2 166  ASP166     -0.2456
     56  OD2        1.9640   15.3470   27.8740 O.co2 166  ASP166     -0.2456
     57  N          6.1070    9.8970   24.1390 N.3   169  LEU169     -0.1231
     58  CA         7.2970   10.7440   24.1470 C.3   169  LEU169      0.1693
     59  C          8.3660   10.1370   25.0380 C.2   169  LEU169      0.2592
     60  O          8.0810    9.7190   26.1670 O.2   169  LEU169     -0.2718
     61  CB         6.9850   12.1420   24.6890 C.3   169  LEU169      0.0284
     62  CG         6.3170   13.1950   23.8130 C.3   169  LEU169      0.0019
     63  CD1        6.2180   14.5120   24.5620 C.3   169  LEU169      0.0001
     64  CD2        7.1380   13.3790   22.5620 C.3   169  LEU169      0.0001
     65  N          9.6040   10.1350   24.5450 N.am  170  PHE170     -0.1962
     66  CA        10.7650    9.7330   25.3290 C.3   170  PHE170      0.1771
     67  C         11.7640   10.8850   25.3350 C.2   170  PHE170      0.2619
     68  O         12.2170   11.3190   24.2710 O.2   170  PHE170     -0.2715
     69  CB        11.3950    8.4540   24.7680 C.3   170  PHE170      0.0574
     70  CG        12.3350    7.7830   25.7210 C.ar  170  PHE170     -0.0200
     71  CD1       13.6270    8.2600   25.9040 C.ar  170  PHE170     -0.0042
     72  CD2       11.9250    6.6790   26.4530 C.ar  170  PHE170     -0.0042
     73  CE1       14.4920    7.6560   26.7980 C.ar  170  PHE170     -0.0003
     74  CE2       12.7790    6.0690   27.3490 C.ar  170  PHE170     -0.0003
     75  CZ        14.0810    6.5530   27.5180 C.ar  170  PHE170     -0.0000
     76  N         12.0920   11.3910   26.5230 N.am  171  ASP171     -0.1971
     77  CA        13.0290   12.5060   26.6430 C.3   171  ASP171      0.1709
     78  C         14.4560   11.9930   26.4630 C.2   171  ASP171      0.2293
     79  O         14.8560   11.0150   27.1020 O.2   171  ASP171     -0.2864
     80  CB        12.8840   13.1670   28.0160 C.3   171  ASP171      0.1436
     81  CG        11.5310   13.8390   28.2090 C.2   171  ASP171      0.3671
     82  OD1       10.9000   14.2330   27.2060 O.co2 171  ASP171     -0.2456
     83  OD2       11.0940   13.9690   29.3750 O.co2 171  ASP171     -0.2456
     84  N         17.7760   20.0740   24.9540 N.3   175  VAL175     -0.1245
     85  CA        17.3720   18.6750   24.9600 C.3   175  VAL175      0.1561
     86  C         16.4000   18.3970   23.8210 C.2   175  VAL175      0.2260
     87  O         15.7070   19.2870   23.3210 O.2   175  VAL175     -0.2867
     88  CB        16.7940   18.2170   26.3130 C.3   175  VAL175      0.0252
     89  CG1       17.8960   18.1530   27.3530 C.3   175  VAL175      0.0019
     90  CG2       15.6870   19.1500   26.7590 C.3   175  VAL175      0.0019
     91  N         13.7590   15.0520   21.9970 N.3   177  CYS177     -0.1235
     92  CA        12.8250   13.9970   22.3500 C.3   177  CYS177      0.1677
     93  C         12.5650   13.1250   21.1370 C.2   177  CYS177      0.2270
     94  O         12.7260   13.5560   19.9930 O.2   177  CYS177     -0.2867
     95  CB        11.4670   14.5750   22.7330 C.3   177  CYS177      0.0956
     96  SG        11.4550   15.6510   24.1450 S.3   177  CYS177     -0.0801
     97  N          8.2270    4.4670   32.8220 N.3   233  TYR233     -0.1241
     98  CA         8.0980    5.7010   32.0490 C.3   233  TYR233      0.1605
     99  C          8.6680    6.9050   32.7890 C.2   233  TYR233      0.2264
    100  O          8.9750    7.9150   32.1540 O.2   233  TYR233     -0.2867
    101  CB         6.6310    6.0190   31.7570 C.3   233  TYR233      0.0534
    102  CG         5.9180    5.1790   30.7190 C.ar  233  TYR233     -0.0201
    103  CD1        6.5330    4.1090   30.0830 C.ar  233  TYR233     -0.0009
    104  CD2        4.6020    5.4680   30.3880 C.ar  233  TYR233     -0.0009
    105  CE1        5.8440    3.3520   29.1310 C.ar  233  TYR233      0.0417
    106  CE2        3.9120    4.7330   29.4510 C.ar  233  TYR233      0.0417
    107  CZ         4.5210    3.6750   28.8320 C.ar  233  TYR233      0.1957
    108  OH         3.7940    2.9640   27.8970 O.3   233  TYR233     -0.2866
    109  N          8.1000   12.3340   35.0790 N.3   236  ARG236     -0.1231
    110  CA         7.5280   13.3660   34.2180 C.3   236  ARG236      0.1694
    111  C          6.2340   12.8790   33.5820 C.2   236  ARG236      0.2592
    112  O          5.2160   13.5810   33.6010 O.2   236  ARG236     -0.2718
    113  CB         8.5260   13.7940   33.1410 C.3   236  ARG236      0.0321
    114  CG         7.9780   14.8800   32.2210 C.3   236  ARG236      0.0489
    115  CD         9.0840   15.6480   31.5150 C.3   236  ARG236      0.2205
    116  NE         9.7340   16.6050   32.4050 N.pl3 236  ARG236     -0.0865
    117  CZ        11.0020   16.9850   32.2950 C.cat 236  ARG236      0.5346
    118  NH1       11.7630   16.4880   31.3290 N.pl3 236  ARG236      0.1354
    119  NH2       11.5110   17.8600   33.1510 N.pl3 236  ARG236      0.1354
    120  N          6.2570   11.6670   33.0220 N.am  237  PHE237     -0.1976
    121  CA         5.0440   11.0750   32.4680 C.3   237  PHE237      0.1639
    122  C          3.9320   11.0320   33.5090 C.2   237  PHE237      0.2290
    123  O          2.8130   11.4940   33.2580 O.2   237  PHE237     -0.2864
    124  CB         5.3400    9.6650   31.9480 C.3   237  PHE237      0.0560
    125  CG         4.1370    8.9710   31.3640 C.ar  237  PHE237     -0.0200
    126  CD1        3.2260    8.3090   32.1860 C.ar  237  PHE237     -0.0042
    127  CD2        3.9130    8.9820   29.9960 C.ar  237  PHE237     -0.0042
    128  CE1        2.1170    7.6860   31.6560 C.ar  237  PHE237     -0.0003
    129  CE2        2.8120    8.3470   29.4520 C.ar  237  PHE237     -0.0003
    130  CZ         1.9030    7.7080   30.2890 C.ar  237  PHE237     -0.0000
    131  N          2.2460   14.1770   34.8390 N.3   240  ILE240     -0.1231
    132  CA         1.2970   14.7500   33.8910 C.3   240  ILE240      0.1692
    133  C          0.0380   13.8960   33.7900 C.2   240  ILE240      0.2591
    134  O         -1.0850   14.4120   33.8480 O.2   240  ILE240     -0.2718
    135  CB         1.9650   14.9490   32.5180 C.3   240  ILE240      0.0266
    136  CG1        2.9300   16.1360   32.5600 C.3   240  ILE240      0.0019
    137  CG2        0.9130   15.1470   31.4390 C.3   240  ILE240      0.0020
    138  CD1        3.8430   16.2190   31.3570 C.3   240  ILE240      0.0001
    139  N          0.1990   12.5790   33.6560 N.am  241  LYS241     -0.1980
    140  CA        -0.9150   11.7170   33.2750 C.3   241  LYS241      0.1596
    141  C         -1.7610   11.2300   34.4430 C.2   241  LYS241      0.2287
    142  O         -2.8870   10.7730   34.2100 O.2   241  LYS241     -0.2864
    143  CB        -0.4140   10.5040   32.4850 C.3   241  LYS241      0.0298
    144  CG         0.1890   10.8590   31.1360 C.3   241  LYS241      0.0038
    145  CD        -0.8450   11.4710   30.2060 C.3   241  LYS241      0.0206
    146  CE        -0.3880   11.3650   28.7530 C.3   241  LYS241      0.1093
    147  NZ        -1.2710   12.1340   27.8300 N.3   241  LYS241     -0.1314
@<TRIPOS>BOND
     1    39    37    1
     2    37    38    1
     3    37    36    2
     4    36    35    1
     5    35    34    1
     6    34    33    1
     7    28    26    1
     8    48    46   ar
     9    94    93    2
    10    46    47   ar
    11    46    45    1
    12    33    30    1
    13    25    24    2
    14    45    44    1
    15    26    27    1
    16    26    23    1
    17    30    29    1
    18    30    31    1
    19    44    41    1
    20    93    92    1
    21    40    31   am
    22    40    41    1
    23    24    29   am
    24    24    23    1
    25     9    10    1
    26    31    32    2
    27    23    22    1
    28    41    42    1
    29    91    92    1
    30     1     2    1
    31    10    13    1
    32    10    11    1
    33    92    95    1
    34    64    62    1
    35    22    16   am
    36    42    43    2
    37    95    96    1
    38     3     2    1
    39     3     4    2
    40    11    14   am
    41    11    12    2
    42    87    86    2
    43     2     5    1
    44    14    15    1
    45    62    63    1
    46    62    61    1
    47    86    85    1
    48    16    15    1
    49    16    17    2
    50     7     6   ar
    51    57    58    1
    52    58    61    1
    53    58    59    1
    54    49    50    1
    55    68    67    2
    56    15    18    1
    57    65    59   am
    58    65    66    1
    59     5     6    1
    60    50    51    1
    61    50    53    1
    62    69    66    1
    63    69    70    1
    64    18    19    1
    65     6     8   ar
    66    84    85    1
    67    85    88    1
    68    59    60    2
    69    66    67    1
    70    67    76   am
    71    51    52    2
    72    70    71   ar
    73    70    72   ar
    74    53    54    1
    75    71    73   ar
    76    19    21   ar
    77    19    20   ar
    78    88    90    1
    79    88    89    1
    80    72    74   ar
    81    78    77    1
    82    78    79    2
    83    76    77    1
    84    77    80    1
    85    73    75   ar
    86    55    54   ar
    87    54    56   ar
    88    82    81   ar
    89    74    75   ar
    90   147   146    1
    91   108   107    1
    92    80    81    1
    93    81    83   ar
    94   146   145    1
    95   107   105   ar
    96   107   106   ar
    97   105   103   ar
    98   106   104   ar
    99   129   127   ar
   100   129   130   ar
   101   127   125   ar
   102   103   102   ar
   103   145   144    1
   104   130   128   ar
   105   104   102   ar
   106   102   101    1
   107   144   143    1
   108   118   117    1
   109   138   136    1
   110   125   124    1
   111   125   126   ar
   112   137   135    1
   113   115   114    1
   114   115   116    1
   115   128   126   ar
   116   101    98    1
   117   124   121    1
   118    98    99    1
   119    98    97    1
   120   100    99    2
   121   114   113    1
   122   117   116    2
   123   117   119    1
   124   121   120    1
   125   121   122    1
   126   143   140    1
   127   135   136    1
   128   135   132    1
   129   120   111   am
   130   113   110    1
   131   123   122    2
   132   140   139    1
   133   140   141    1
   134   111   112    2
   135   111   110    1
   136   139   133   am
   137   133   134    2
   138   133   132    1
   139   132   131    1
   140   142   141    2
   141   110   109    1
