@<TRIPOS>MOLECULE
tmp/5vseA01.pdb
 167 162 0 0 0
SMALL
GASTEIGER

@<TRIPOS>ATOM
      1  N         12.8010   20.2960   21.9890 N.3   156  ASP156     -0.1239
      2  CA        12.0110   20.5160   23.1950 C.3   156  ASP156      0.1674
      3  C         10.9530   21.5910   22.9770 C.2   156  ASP156      0.2266
      4  O          9.8400   21.4790   23.5020 O.2   156  ASP156     -0.2867
      5  CB        12.9310   20.8710   24.3670 C.3   156  ASP156      0.1410
      6  CG        13.7990   22.0840   24.1000 C.2   156  ASP156      0.3668
      7  OD1       13.9430   22.4820   22.9240 O.co2 156  ASP156     -0.2456
      8  OD2       14.3630   22.6240   25.0760 O.co2 156  ASP156     -0.2456
      9  N          8.1650   19.7800   21.2200 N.3   159  ALA159     -0.1231
     10  CA         7.4430   18.9680   22.1940 C.3   159  ALA159      0.1694
     11  C          6.5180   19.8110   23.0680 C.2   159  ALA159      0.2592
     12  O          5.4480   19.3390   23.4690 O.2   159  ALA159     -0.2718
     13  CB         8.4330   18.1910   23.0610 C.3   159  ALA159      0.0304
     14  N          6.9050   21.0530   23.3740 N.am  160  ASP160     -0.1960
     15  CA         6.0940   21.9070   24.2380 C.3   160  ASP160      0.1840
     16  C          4.7420   22.2710   23.6330 C.2   160  ASP160      0.2622
     17  O          3.8340   22.6620   24.3770 O.2   160  ASP160     -0.2715
     18  CB         6.8600   23.1800   24.5910 C.3   160  ASP160      0.1450
     19  CG         7.4340   23.1380   25.9880 C.2   160  ASP160      0.3671
     20  OD1        8.3960   23.8870   26.2600 O.co2 160  ASP160     -0.2456
     21  OD2        6.9100   22.3630   26.8190 O.co2 160  ASP160     -0.2456
     22  N          4.5830   22.1720   22.3140 N.am  161  VAL161     -0.1963
     23  CA         3.3110   22.4740   21.6680 C.3   161  VAL161      0.1727
     24  C          2.6510   21.2240   21.1020 C.2   161  VAL161      0.2616
     25  O          1.6030   21.3240   20.4530 O.2   161  VAL161     -0.2715
     26  CB         3.4680   23.5460   20.5770 C.3   161  VAL161      0.0290
     27  CG1        3.8800   24.8740   21.1880 C.3   161  VAL161      0.0023
     28  CG2        4.4730   23.0940   19.5300 C.3   161  VAL161      0.0023
     29  N          3.2170   20.0460   21.3490 N.am  162  ARG162     -0.1963
     30  CA         2.5990   18.8130   20.8800 C.3   162  ARG162      0.1729
     31  C          1.3740   18.5050   21.7310 C.2   162  ARG162      0.2616
     32  O          1.4560   18.4640   22.9620 O.2   162  ARG162     -0.2715
     33  CB         3.5930   17.6550   20.9440 C.3   162  ARG162      0.0348
     34  CG         4.7110   17.7250   19.9020 C.3   162  ARG162      0.0492
     35  CD         4.2840   17.0460   18.6110 C.3   162  ARG162      0.2205
     36  NE         5.0220   17.5000   17.4210 N.pl3 162  ARG162     -0.0865
     37  CZ         5.6010   16.6700   16.5610 C.cat 162  ARG162      0.5346
     38  NH1        5.5360   15.3570   16.7650 N.pl3 162  ARG162      0.1354
     39  NH2        6.2320   17.1470   15.4960 N.pl3 162  ARG162      0.1354
     40  N          0.2360   18.2790   21.0720 N.am  163  GLU163     -0.1977
     41  CA        -0.9960   18.0470   21.8170 C.3   163  GLU163      0.1602
     42  C         -1.0250   16.6580   22.4500 C.2   163  GLU163      0.2287
     43  O         -1.3950   16.5200   23.6220 O.2   163  GLU163     -0.2864
     44  CB        -2.2020   18.2520   20.8990 C.3   163  GLU163      0.0415
     45  CG        -3.5060   17.6630   21.4140 C.3   163  GLU163      0.1163
     46  CD        -4.6960   18.0780   20.5680 C.2   163  GLU163      0.3649
     47  OE1       -5.8360   17.7000   20.9100 O.co2 163  GLU163     -0.2457
     48  OE2       -4.4890   18.7860   19.5590 O.co2 163  GLU163     -0.2457
     49  N          0.9440   13.8580   24.0160 N.3   165  ASP165     -0.1239
     50  CA         2.2390   13.5540   24.6130 C.3   165  ASP165      0.1674
     51  C          2.2690   12.1520   25.2180 C.2   165  ASP165      0.2266
     52  O          3.0360   11.8860   26.1470 O.2   165  ASP165     -0.2867
     53  CB         2.6120   14.6080   25.6580 C.3   165  ASP165      0.1410
     54  CG         1.5640   14.7670   26.7340 C.2   165  ASP165      0.3668
     55  OD1        0.5110   14.0940   26.6600 O.co2 165  ASP165     -0.2456
     56  OD2        1.7800   15.5870   27.6560 O.co2 165  ASP165     -0.2456
     57  N          5.9620   10.0470   24.0720 N.3   168  LEU168     -0.1231
     58  CA         7.1490   10.9010   24.0980 C.3   168  LEU168      0.1693
     59  C          8.2260   10.2930   24.9820 C.2   168  LEU168      0.2592
     60  O          7.9410    9.8400   26.0930 O.2   168  LEU168     -0.2718
     61  CB         6.8190   12.3030   24.6290 C.3   168  LEU168      0.0284
     62  CG         6.1440   13.3160   23.7230 C.3   168  LEU168      0.0019
     63  CD1        6.0640   14.6600   24.4400 C.3   168  LEU168      0.0001
     64  CD2        6.9510   13.4490   22.4580 C.3   168  LEU168      0.0001
     65  N          9.4690   10.3110   24.4950 N.am  169  PHE169     -0.1962
     66  CA        10.6290    9.9050   25.2830 C.3   169  PHE169      0.1771
     67  C         11.6530   11.0400   25.2710 C.2   169  PHE169      0.2619
     68  O         12.1460   11.4140   24.2040 O.2   169  PHE169     -0.2715
     69  CB        11.2500    8.6110   24.7300 C.3   169  PHE169      0.0574
     70  CG        12.2110    7.9530   25.6760 C.ar  169  PHE169     -0.0200
     71  CD1       13.5110    8.4250   25.8100 C.ar  169  PHE169     -0.0042
     72  CD2       11.8220    6.8550   26.4310 C.ar  169  PHE169     -0.0042
     73  CE1       14.3860    7.8410   26.6990 C.ar  169  PHE169     -0.0003
     74  CE2       12.6920    6.2610   27.3200 C.ar  169  PHE169     -0.0003
     75  CZ        13.9880    6.7490   27.4490 C.ar  169  PHE169     -0.0000
     76  N         11.9660   11.5890   26.4500 N.am  170  ASP170     -0.1971
     77  CA        12.9150   12.6960   26.5640 C.3   170  ASP170      0.1709
     78  C         14.3440   12.1810   26.4030 C.2   170  ASP170      0.2293
     79  O         14.7320   11.2090   27.0610 O.2   170  ASP170     -0.2864
     80  CB        12.7710   13.3840   27.9220 C.3   170  ASP170      0.1436
     81  CG        11.3790   13.9710   28.1560 C.2   170  ASP170      0.3671
     82  OD1       10.9900   14.0990   29.3430 O.co2 170  ASP170     -0.2456
     83  OD2       10.6670   14.2800   27.1800 O.co2 170  ASP170     -0.2456
     84  N         17.3490   14.4360   26.6680 N.3   172  ASP172     -0.1239
     85  CA        18.0990   15.1730   27.6890 C.3   172  ASP172      0.1674
     86  C         19.6040   15.2650   27.4420 C.2   172  ASP172      0.2266
     87  O         20.1910   14.4340   26.7420 O.2   172  ASP172     -0.2867
     88  CB        17.8620   14.5550   29.0720 C.3   172  ASP172      0.1410
     89  CG        16.4850   14.8600   29.6190 C.2   172  ASP172      0.3668
     90  OD1       15.8990   15.8850   29.2110 O.co2 172  ASP172     -0.2456
     91  OD2       15.9890   14.0770   30.4590 O.co2 172  ASP172     -0.2456
     92  N         17.8760   20.2980   24.4390 N.3   175  VAL175     -0.1231
     93  CA        17.3200   18.9940   24.7760 C.3   175  VAL175      0.1692
     94  C         16.3060   18.6040   23.7080 C.2   175  VAL175      0.2592
     95  O         15.5580   19.4530   23.2120 O.2   175  VAL175     -0.2718
     96  CB        16.6780   19.0280   26.1780 C.3   175  VAL175      0.0266
     97  CG1       15.9450   17.7410   26.4770 C.3   175  VAL175      0.0020
     98  CG2       17.7440   19.2930   27.2270 C.3   175  VAL175      0.0020
     99  N         16.2670   17.3160   23.3680 N.am  176  TYR176     -0.1962
    100  CA        15.4260   16.8250   22.2870 C.3   176  TYR176      0.1771
    101  C         14.5730   15.6700   22.7920 C.2   176  TYR176      0.2619
    102  O         14.7690   15.1610   23.9000 O.2   176  TYR176     -0.2715
    103  CB        16.2780   16.3980   21.0800 C.3   176  TYR176      0.0574
    104  CG        16.9850   17.5770   20.4540 C.ar  176  TYR176     -0.0198
    105  CD1       18.1590   18.0680   21.0050 C.ar  176  TYR176     -0.0009
    106  CD2       16.4610   18.2160   19.3380 C.ar  176  TYR176     -0.0009
    107  CE1       18.7990   19.1630   20.4560 C.ar  176  TYR176      0.0417
    108  CE2       17.1020   19.3150   18.7730 C.ar  176  TYR176      0.0417
    109  CZ        18.2690   19.7780   19.3390 C.ar  176  TYR176      0.1957
    110  OH        18.9240   20.8640   18.8000 O.3   176  TYR176     -0.2866
    111  N         13.6330   15.2450   21.9470 N.am  177  CYS177     -0.1968
    112  CA        12.6630   14.2110   22.2850 C.3   177  CYS177      0.1712
    113  C         12.4510   13.3030   21.0890 C.2   177  CYS177      0.2296
    114  O         12.5910   13.7320   19.9420 O.2   177  CYS177     -0.2864
    115  CB        11.2990   14.7960   22.6490 C.3   177  CYS177      0.0983
    116  SG        11.1890   15.5010   24.2660 S.3   177  CYS177     -0.0798
    117  N          8.0730    4.6790   32.7860 N.3   233  TYR233     -0.1241
    118  CA         7.9410    5.8950   31.9850 C.3   233  TYR233      0.1605
    119  C          8.5240    7.1150   32.6840 C.2   233  TYR233      0.2264
    120  O          8.8560    8.0980   32.0120 O.2   233  TYR233     -0.2867
    121  CB         6.4750    6.1960   31.6740 C.3   233  TYR233      0.0534
    122  CG         5.7820    5.3510   30.6270 C.ar  233  TYR233     -0.0201
    123  CD1        6.4150    4.2820   29.9980 C.ar  233  TYR233     -0.0009
    124  CD2        4.4440    5.6060   30.3140 C.ar  233  TYR233     -0.0009
    125  CE1        5.7370    3.5160   29.0410 C.ar  233  TYR233      0.0417
    126  CE2        3.7760    4.8690   29.3760 C.ar  233  TYR233      0.0417
    127  CZ         4.3990    3.8240   28.7540 C.ar  233  TYR233      0.1957
    128  OH         3.6670    3.1100   27.8220 O.3   233  TYR233     -0.2866
    129  N          7.8420   12.4940   35.0760 N.3   236  ARG236     -0.1231
    130  CA         7.3060   13.5390   34.2070 C.3   236  ARG236      0.1694
    131  C          6.0310   13.0660   33.5190 C.2   236  ARG236      0.2592
    132  O          5.0290   13.7900   33.4740 O.2   236  ARG236     -0.2718
    133  CB         8.3550   13.9730   33.1810 C.3   236  ARG236      0.0321
    134  CG         7.8190   14.9350   32.1240 C.3   236  ARG236      0.0489
    135  CD         8.9410   15.6020   31.3390 C.3   236  ARG236      0.2205
    136  NE         9.6890   16.5630   32.1460 N.pl3 236  ARG236     -0.0865
    137  CZ        10.9850   16.8130   31.9960 C.cat 236  ARG236      0.5346
    138  NH1       11.6870   16.1680   31.0720 N.pl3 236  ARG236      0.1354
    139  NH2       11.5840   17.7040   32.7730 N.pl3 236  ARG236      0.1354
    140  N          6.0470   11.8370   32.9940 N.am  237  PHE237     -0.1976
    141  CA         4.8440   11.2780   32.3810 C.3   237  PHE237      0.1639
    142  C          3.6940   11.2210   33.3860 C.2   237  PHE237      0.2290
    143  O          2.5810   11.6870   33.1000 O.2   237  PHE237     -0.2864
    144  CB         5.1410    9.8900   31.8050 C.3   237  PHE237      0.0560
    145  CG         3.9280    9.1910   31.2300 C.ar  237  PHE237     -0.0200
    146  CD1        3.6840    9.2090   29.8640 C.ar  237  PHE237     -0.0042
    147  CD2        3.0410    8.5040   32.0500 C.ar  237  PHE237     -0.0042
    148  CE1        2.5740    8.5660   29.3260 C.ar  237  PHE237     -0.0003
    149  CE2        1.9280    7.8660   31.5210 C.ar  237  PHE237     -0.0003
    150  CZ         1.6890    7.8930   30.1660 C.ar  237  PHE237     -0.0000
    151  N          1.9470   14.3320   34.6730 N.3   240  ILE240     -0.1231
    152  CA         1.0080   14.9040   33.7160 C.3   240  ILE240      0.1692
    153  C         -0.2440   14.0480   33.5820 C.2   240  ILE240      0.2591
    154  O         -1.3620   14.5710   33.5370 O.2   240  ILE240     -0.2718
    155  CB         1.7070   15.0990   32.3610 C.3   240  ILE240      0.0266
    156  CG1        2.6890   16.2720   32.4410 C.3   240  ILE240      0.0019
    157  CG2        0.6830   15.2850   31.2450 C.3   240  ILE240      0.0020
    158  CD1        3.6460   16.3490   31.2770 C.3   240  ILE240      0.0001
    159  N         -0.0830   12.7280   33.4910 N.am  241  LYS241     -0.1980
    160  CA        -1.1850   11.8570   33.1000 C.3   241  LYS241      0.1596
    161  C         -2.0420   11.3580   34.2570 C.2   241  LYS241      0.2287
    162  O         -3.1680   10.9180   34.0090 O.2   241  LYS241     -0.2864
    163  CB        -0.6500   10.6420   32.3390 C.3   241  LYS241      0.0298
    164  CG        -0.0540   10.9830   30.9800 C.3   241  LYS241      0.0038
    165  CD        -1.1200   11.5250   30.0390 C.3   241  LYS241      0.0206
    166  CE        -0.6970   11.2960   28.5950 C.3   241  LYS241      0.1093
    167  NZ        -1.4940   12.0920   27.6270 N.3   241  LYS241     -0.1314
@<TRIPOS>BOND
     1    39    37    1
     2    37    38    1
     3    37    36    2
     4    36    35    1
     5    35    34    1
     6   108   106   ar
     7   108   109   ar
     8   110   109    1
     9   106   104   ar
    10   109   107   ar
    11    28    26    1
    12    48    46   ar
    13    34    33    1
    14   114   113    2
    15    25    24    2
    16   104   105   ar
    17   104   103    1
    18   107   105   ar
    19    46    47   ar
    20    46    45    1
    21    26    27    1
    22    26    23    1
    23    30    33    1
    24    30    29    1
    25    30    31    1
    26    44    45    1
    27    44    41    1
    28    40    31   am
    29    40    41    1
    30   103   100    1
    31   113   112    1
    32    24    29   am
    33    24    23    1
    34     9    10    1
    35    23    22    1
    36    31    32    2
    37    41    42    1
    38   111   112    1
    39   111   101   am
    40     1     2    1
    41    10    13    1
    42    10    11    1
    43   112   115    1
    44   100   101    1
    45   100    99    1
    46    22    16   am
    47    42    43    2
    48    64    62    1
    49   115   116    1
    50   101   102    2
    51     7     6   ar
    52     3     2    1
    53     3     4    2
    54    11    14   am
    55    11    12    2
    56     2     5    1
    57    95    94    2
    58    99    94   am
    59    14    15    1
    60    16    15    1
    61    16    17    2
    62    94    93    1
    63    62    63    1
    64    62    61    1
    65    49    50    1
    66    57    58    1
    67    58    61    1
    68    58    59    1
    69     6     5    1
    70     6     8   ar
    71    68    67    2
    72    15    18    1
    73    92    93    1
    74    65    59   am
    75    65    66    1
    76    18    19    1
    77    50    51    1
    78    50    53    1
    79    69    66    1
    80    69    70    1
    81    93    96    1
    82    59    60    2
    83    51    52    2
    84    67    66    1
    85    67    76   am
    86    53    54    1
    87    70    71   ar
    88    70    72   ar
    89    71    73   ar
    90    19    20   ar
    91    19    21   ar
    92    96    97    1
    93    96    98    1
    94    78    77    1
    95    78    79    2
    96    72    74   ar
    97    76    77    1
    98    77    80    1
    99    55    54   ar
   100    84    85    1
   101    73    75   ar
   102    54    56   ar
   103    87    86    2
   104    83    81   ar
   105    74    75   ar
   106    86    85    1
   107   167   166    1
   108    85    88    1
   109   128   127    1
   110    80    81    1
   111    81    82   ar
   112   166   165    1
   113   127   125   ar
   114   127   126   ar
   115   125   123   ar
   116    88    89    1
   117    90    89   ar
   118   148   146   ar
   119   148   150   ar
   120   126   124   ar
   121    89    91   ar
   122   146   145   ar
   123   123   122   ar
   124   165   164    1
   125   150   149   ar
   126   124   122   ar
   127   122   121    1
   128   164   163    1
   129   138   137    1
   130   145   144    1
   131   145   147   ar
   132   157   155    1
   133   158   156    1
   134   135   134    1
   135   135   136    1
   136   149   147   ar
   137   121   118    1
   138   144   141    1
   139   118   119    1
   140   118   117    1
   141   137   136    2
   142   137   139    1
   143   120   119    2
   144   134   133    1
   145   163   160    1
   146   155   156    1
   147   155   152    1
   148   141   140    1
   149   141   142    1
   150   140   131   am
   151   143   142    2
   152   160   159    1
   153   160   161    1
   154   133   130    1
   155   132   131    2
   156   159   153   am
   157   131   130    1
   158   154   153    2
   159   153   152    1
   160   152   151    1
   161   162   161    2
   162   130   129    1
