@<TRIPOS>MOLECULE
tmp/5vsfA01.pdb
 147 141 0 0 0
SMALL
GASTEIGER

@<TRIPOS>ATOM
      1  N         21.7190  -14.2080  -12.6430 N.3   157  ASP157     -0.1239
      2  CA        22.5760  -13.9440  -11.4860 C.3   157  ASP157      0.1674
      3  C         23.1260  -12.5220  -11.5060 C.2   157  ASP157      0.2266
      4  O         23.2590  -11.8840  -10.4550 O.2   157  ASP157     -0.2867
      5  CB        23.7290  -14.9470  -11.4270 C.3   157  ASP157      0.1410
      6  CG        24.4340  -15.1070  -12.7620 C.2   157  ASP157      0.3668
      7  OD1       24.1170  -14.3600  -13.7150 O.co2 157  ASP157     -0.2456
      8  OD2       25.3230  -15.9770  -12.8510 O.co2 157  ASP157     -0.2456
      9  N         20.4050  -10.3740  -10.1800 N.3   160  ALA160     -0.1231
     10  CA        20.3150  -10.5480   -8.7350 C.3   160  ALA160      0.1694
     11  C         21.4390   -9.8060   -8.0240 C.2   160  ALA160      0.2592
     12  O         21.2440   -9.3160   -6.9060 O.2   160  ALA160     -0.2718
     13  CB        20.3500  -12.0350   -8.3760 C.3   160  ALA160      0.0304
     14  N         22.6110   -9.6980   -8.6630 N.am  161  ASP161     -0.1960
     15  CA        23.7510   -8.9990   -8.0690 C.3   161  ASP161      0.1840
     16  C         23.4900   -7.5160   -7.8590 C.2   161  ASP161      0.2622
     17  O         24.1930   -6.8810   -7.0640 O.2   161  ASP161     -0.2715
     18  CB        24.9930   -9.1560   -8.9470 C.3   161  ASP161      0.1450
     19  CG        25.7060  -10.4680   -8.7230 C.2   161  ASP161      0.3671
     20  OD1       25.5070  -11.0770   -7.6510 O.co2 161  ASP161     -0.2456
     21  OD2       26.4780  -10.8790   -9.6170 O.co2 161  ASP161     -0.2456
     22  N         22.5200   -6.9420   -8.5610 N.am  162  VAL162     -0.1963
     23  CA        22.2120   -5.5280   -8.4070 C.3   162  VAL162      0.1727
     24  C         20.8180   -5.3340   -7.8240 C.2   162  VAL162      0.2616
     25  O         20.2880   -4.2390   -7.8430 O.2   162  VAL162     -0.2715
     26  CB        22.3730   -4.7600   -9.7330 C.3   162  VAL162      0.0290
     27  CG1       23.8150   -4.8220  -10.2070 C.3   162  VAL162      0.0023
     28  CG2       21.4110   -5.2880  -10.7840 C.3   162  VAL162      0.0023
     29  N         20.2340   -6.3810   -7.2620 N.am  163  ARG163     -0.1963
     30  CA        18.9560   -6.2320   -6.5900 C.3   163  ARG163      0.1729
     31  C         19.2180   -6.0170   -5.1080 C.2   163  ARG163      0.2616
     32  O         19.6980   -6.9120   -4.4130 O.2   163  ARG163     -0.2715
     33  CB        18.0560   -7.4410   -6.8270 C.3   163  ARG163      0.0348
     34  CG        17.6490   -7.5220   -8.2810 C.3   163  ARG163      0.0492
     35  CD        16.1780   -7.7280   -8.4400 C.3   163  ARG163      0.2205
     36  NE        15.8210   -7.5210   -9.8400 N.pl3 163  ARG163     -0.0865
     37  CZ        14.6590   -7.8720  -10.3680 C.cat 163  ARG163      0.5346
     38  NH1       13.7570   -8.4810   -9.6180 N.pl3 163  ARG163      0.1354
     39  NH2       14.4200   -7.6430  -11.6500 N.pl3 163  ARG163      0.1354
     40  N         18.8630   -4.8320   -4.6420 N.am  164  GLU164     -0.1977
     41  CA        19.0760   -4.4290   -3.2610 C.3   164  GLU164      0.1602
     42  C         18.2010   -5.2250   -2.2790 C.2   164  GLU164      0.2287
     43  O         18.6380   -5.5500   -1.1630 O.2   164  GLU164     -0.2864
     44  CB        18.9100   -2.9200   -3.2870 C.3   164  GLU164      0.0415
     45  CG        20.2750   -2.3380   -3.5100 C.3   164  GLU164      0.1163
     46  CD        20.3990   -0.8740   -3.1950 C.2   164  GLU164      0.3649
     47  OE1       20.4170   -0.4600   -2.0100 O.co2 164  GLU164     -0.2457
     48  OE2       20.8410   -0.1610   -4.1290 O.co2 164  GLU164     -0.2457
     49  N         16.9520   -8.5450   -1.2770 N.3   166  ASP166     -0.1239
     50  CA        17.2620   -9.9420   -1.5460 C.3   166  ASP166      0.1674
     51  C         16.5970  -10.8980   -0.5570 C.2   166  ASP166      0.2266
     52  O         16.9890  -12.0640   -0.4740 O.2   166  ASP166     -0.2867
     53  CB        18.7810  -10.1440   -1.5720 C.3   166  ASP166      0.1410
     54  CG        19.4580   -9.7250   -0.2780 C.2   166  ASP166      0.3668
     55  OD1       18.7950   -9.1010    0.5810 O.co2 166  ASP166     -0.2456
     56  OD2       20.6580  -10.0250   -0.1240 O.co2 166  ASP166     -0.2456
     57  N         14.5640  -14.1550   -2.4890 N.3   169  LEU169     -0.1231
     58  CA        15.3140  -14.7470   -3.5930 C.3   169  LEU169      0.1693
     59  C         15.4730  -16.2450   -3.3850 C.2   169  LEU169      0.2592
     60  O         15.8030  -16.6930   -2.2780 O.2   169  LEU169     -0.2718
     61  CB        16.7030  -14.1240   -3.7120 C.3   169  LEU169      0.0284
     62  CG        16.8550  -12.7720   -4.3730 C.3   169  LEU169      0.0019
     63  CD1       18.3270  -12.4020   -4.4170 C.3   169  LEU169      0.0001
     64  CD2       16.2930  -12.8820   -5.7830 C.3   169  LEU169      0.0001
     65  N         15.2640  -17.0160   -4.4520 N.am  170  PHE170     -0.1962
     66  CA        15.5630  -18.4440   -4.4650 C.3   170  PHE170      0.1771
     67  C         16.5610  -18.7190   -5.5840 C.2   170  PHE170      0.2619
     68  O         16.2550  -18.4720   -6.7580 O.2   170  PHE170     -0.2715
     69  CB        14.2920  -19.2750   -4.6650 C.3   170  PHE170      0.0574
     70  CG        14.4600  -20.7080   -4.2660 C.ar  170  PHE170     -0.0200
     71  CD1       15.1460  -21.5990   -5.0870 C.ar  170  PHE170     -0.0042
     72  CD2       13.9790  -21.1600   -3.0420 C.ar  170  PHE170     -0.0042
     73  CE1       15.3320  -22.9200   -4.7090 C.ar  170  PHE170     -0.0003
     74  CE2       14.1580  -22.4710   -2.6480 C.ar  170  PHE170     -0.0003
     75  CZ        14.8390  -23.3660   -3.4850 C.ar  170  PHE170     -0.0000
     76  N         17.7400  -19.2330   -5.2270 N.am  171  ASP171     -0.1971
     77  CA        18.7760  -19.5370   -6.2100 C.3   171  ASP171      0.1709
     78  C         18.4540  -20.8350   -6.9400 C.2   171  ASP171      0.2293
     79  O         18.1850  -21.8580   -6.3040 O.2   171  ASP171     -0.2864
     80  CB        20.1500  -19.6730   -5.5540 C.3   171  ASP171      0.1436
     81  CG        20.5990  -18.4060   -4.8600 C.2   171  ASP171      0.3671
     82  OD1       21.3740  -18.5140   -3.8880 O.co2 171  ASP171     -0.2456
     83  OD2       20.1970  -17.3090   -5.2970 O.co2 171  ASP171     -0.2456
     84  N         23.7850  -19.3460  -14.0320 N.3   179  VAL179     -0.1245
     85  CA        22.9110  -19.4890  -12.8750 C.3   179  VAL179      0.1561
     86  C         21.8230  -18.4220  -12.9150 C.2   179  VAL179      0.2260
     87  O         22.0630  -17.2720  -13.2990 O.2   179  VAL179     -0.2867
     88  CB        23.6970  -19.3820  -11.5450 C.3   179  VAL179      0.0252
     89  CG1       22.8780  -19.9530  -10.4020 C.3   179  VAL179      0.0019
     90  CG2       25.0350  -20.0770  -11.6500 C.3   179  VAL179      0.0019
     91  N         17.8260  -17.1170  -10.8650 N.3   181  CYS181     -0.1235
     92  CA        17.1910  -16.9010   -9.5720 C.3   181  CYS181      0.1677
     93  C         15.7090  -16.6760   -9.7870 C.2   181  CYS181      0.2270
     94  O         15.2910  -16.1840  -10.8370 O.2   181  CYS181     -0.2867
     95  CB        17.7330  -15.6640   -8.8470 C.3   181  CYS181      0.0956
     96  SG        19.3520  -15.8010   -8.1280 S.3   181  CYS181     -0.0801
     97  N         16.0000  -21.8600    4.1310 N.3   237  TYR237     -0.1241
     98  CA        16.4610  -20.8620    3.1610 C.3   237  TYR237      0.1605
     99  C         17.8780  -21.1370    2.6880 C.2   237  TYR237      0.2264
    100  O         18.2890  -20.6130    1.6430 O.2   237  TYR237     -0.2867
    101  CB        16.4390  -19.4470    3.7600 C.3   237  TYR237      0.0534
    102  CG        15.0780  -18.8200    4.0000 C.ar  237  TYR237     -0.0201
    103  CD1       13.8900  -19.4970    3.7140 C.ar  237  TYR237     -0.0009
    104  CD2       14.9910  -17.5420    4.5410 C.ar  237  TYR237     -0.0009
    105  CE1       12.6500  -18.8900    3.9300 C.ar  237  TYR237      0.0417
    106  CE2       13.7770  -16.9390    4.7600 C.ar  237  TYR237      0.0417
    107  CZ        12.6130  -17.6080    4.4620 C.ar  237  TYR237      0.1957
    108  OH        11.4280  -16.9580    4.7120 O.3   237  TYR237     -0.2866
    109  N         23.4580  -19.4310    2.0680 N.3   240  ARG240     -0.1231
    110  CA        23.7600  -18.1180    1.5090 C.3   240  ARG240      0.1694
    111  C         22.8790  -17.0490    2.1390 C.2   240  ARG240      0.2592
    112  O         23.3580  -15.9630    2.4770 O.2   240  ARG240     -0.2718
    113  CB        23.5790  -18.1150   -0.0080 C.3   240  ARG240      0.0321
    114  CG        23.7350  -16.7220   -0.6450 C.3   240  ARG240      0.0489
    115  CD        23.8080  -16.7990   -2.1770 C.3   240  ARG240      0.2205
    116  NE        25.0300  -17.4540   -2.6350 N.pl3 240  ARG240     -0.0865
    117  CZ        25.0620  -18.5750   -3.3500 C.cat 240  ARG240      0.5346
    118  NH1       23.9320  -19.1800   -3.6960 N.pl3 240  ARG240      0.1354
    119  NH2       26.2310  -19.0950   -3.7160 N.pl3 240  ARG240      0.1354
    120  N         21.5870  -17.3440    2.3140 N.am  241  PHE241     -0.1976
    121  CA        20.6940  -16.4060    2.9840 C.3   241  PHE241      0.1639
    122  C         21.2580  -16.0210    4.3410 C.2   241  PHE241      0.2290
    123  O         21.3560  -14.8360    4.6710 O.2   241  PHE241     -0.2864
    124  CB        19.2910  -17.0090    3.1370 C.3   241  PHE241      0.0560
    125  CG        18.3130  -16.1160    3.8810 C.ar  241  PHE241     -0.0200
    126  CD1       18.2770  -16.0880    5.2780 C.ar  241  PHE241     -0.0042
    127  CD2       17.4280  -15.3000    3.1780 C.ar  241  PHE241     -0.0042
    128  CE1       17.3860  -15.2570    5.9520 C.ar  241  PHE241     -0.0003
    129  CE2       16.5290  -14.4840    3.8440 C.ar  241  PHE241     -0.0003
    130  CZ        16.5090  -14.4660    5.2400 C.ar  241  PHE241     -0.0000
    131  N         24.4210  -13.8760    4.6480 N.3   244  ILE244     -0.1231
    132  CA        24.1570  -12.4590    4.4150 C.3   244  ILE244      0.1692
    133  C         23.3400  -11.8520    5.5510 C.2   244  ILE244      0.2591
    134  O         23.7150  -10.8270    6.1240 O.2   244  ILE244     -0.2718
    135  CB        23.4530  -12.2810    3.0500 C.3   244  ILE244      0.0266
    136  CG1       24.4160  -12.6170    1.9050 C.3   244  ILE244      0.0019
    137  CG2       22.9240  -10.8540    2.8910 C.3   244  ILE244      0.0020
    138  CD1       23.7420  -12.7200    0.5530 C.3   244  ILE244      0.0001
    139  N         22.2140  -12.4720    5.9070 N.am  245  LYS245     -0.1980
    140  CA        21.2800  -11.8570    6.8420 C.3   245  LYS245      0.1596
    141  C         21.6550  -12.0620    8.3040 C.2   245  LYS245      0.2287
    142  O         21.1610  -11.3130    9.1530 O.2   245  LYS245     -0.2864
    143  CB        19.8630  -12.3840    6.6070 C.3   245  LYS245      0.0298
    144  CG        19.2660  -11.9900    5.2620 C.3   245  LYS245      0.0038
    145  CD        19.2420  -10.4830    5.0560 C.3   245  LYS245      0.0206
    146  CE        18.6760  -10.1230    3.6730 C.3   245  LYS245      0.1093
    147  NZ        18.7350   -8.6560    3.3930 N.3   245  LYS245     -0.1314
@<TRIPOS>BOND
     1    84    85    1
     2     7     6   ar
     3    87    86    2
     4    86    85    1
     5    85    88    1
     6     8     6   ar
     7     6     5    1
     8     1     2    1
     9    90    88    1
    10    39    37    1
    11    88    89    1
    12     3     2    1
    13     3     4    2
    14     2     5    1
    15    91    92    1
    16    94    93    2
    17    28    26    1
    18    37    36    2
    19    37    38    1
    20    27    26    1
    21     9    10    1
    22    36    35    1
    23    93    92    1
    24    26    23    1
    25    21    19   ar
    26    92    95    1
    27    18    19    1
    28    18    15    1
    29    95    96    1
    30    10    13    1
    31    10    11    1
    32    19    20   ar
    33    14    15    1
    34    14    11   am
    35    22    23    1
    36    22    16   am
    37    35    34    1
    38    23    24    1
    39    34    33    1
    40    15    16    1
    41    11    12    2
    42    16    17    2
    43    25    24    2
    44    24    29   am
    45    29    30    1
    46    78    79    2
    47    78    77    1
    48    33    30    1
    49    68    67    2
    50    30    31    1
    51    77    80    1
    52    77    76    1
    53    64    62    1
    54    67    76   am
    55    67    66    1
    56    80    81    1
    57    83    81   ar
    58    31    40   am
    59    31    32    2
    60    71    73   ar
    61    71    70   ar
    62    81    82   ar
    63    73    75   ar
    64    69    66    1
    65    69    70    1
    66    40    41    1
    67    66    65    1
    68    65    59   am
    69    63    62    1
    70    62    61    1
    71    70    72   ar
    72    48    46   ar
    73   119   117    1
    74    61    58    1
    75   118   117    1
    76    58    59    1
    77    58    57    1
    78    45    44    1
    79    45    46    1
    80    75    74   ar
    81    59    60    2
    82   117   116    2
    83    44    41    1
    84    41    42    1
    85    46    47   ar
    86    72    74   ar
    87   116   115    1
    88    42    43    2
    89   115   114    1
    90    53    50    1
    91    53    54    1
    92    50    49    1
    93    50    51    1
    94   114   113    1
    95    51    52    2
    96    54    56   ar
    97    54    55   ar
    98   113   110    1
    99   138   136    1
   100   110   109    1
   101   110   111    1
   102   100    99    2
   103   136   135    1
   104   111   120   am
   105   111   112    2
   106   120   121    1
   107    99    98    1
   108   137   135    1
   109   121   124    1
   110   121   122    1
   111   135   132    1
   112   124   125    1
   113    98   101    1
   114    98    97    1
   115   127   129   ar
   116   127   125   ar
   117   147   146    1
   118   146   145    1
   119   103   105   ar
   120   103   102   ar
   121   101   102    1
   122   129   130   ar
   123   125   126   ar
   124   105   107   ar
   125   102   104   ar
   126   122   123    2
   127   132   131    1
   128   132   133    1
   129   107   108    1
   130   107   106   ar
   131   104   106   ar
   132   145   144    1
   133   130   128   ar
   134   144   143    1
   135   126   128   ar
   136   133   139   am
   137   133   134    2
   138   139   140    1
   139   143   140    1
   140   140   141    1
   141   141   142    2
