@<TRIPOS>MOLECULE
tmp/5vsjB01.pdb
 195 185 0 0 0
SMALL
GASTEIGER

@<TRIPOS>ATOM
      1  N         22.6370  -21.5100  363.9220 N.3   250  LYS250     -0.1245
      2  CA        21.5540  -22.4740  363.8120 C.3   250  LYS250      0.1561
      3  C         21.7300  -23.6020  364.8230 C.2   250  LYS250      0.2260
      4  O         22.8490  -23.9690  365.1890 O.2   250  LYS250     -0.2867
      5  CB        21.4850  -23.0340  362.3930 C.3   250  LYS250      0.0271
      6  CG        20.7290  -22.1260  361.4340 C.3   250  LYS250      0.0035
      7  CD        20.6970  -22.6870  360.0310 C.3   250  LYS250      0.0206
      8  CE        19.6040  -22.0300  359.2110 C.3   250  LYS250      0.1093
      9  NZ        19.7390  -22.3270  357.7580 N.3   250  LYS250     -0.1314
     10  N         18.5850  -28.0420  362.0720 N.3   254  ASN254     -0.1240
     11  CA        18.3640  -26.8200  361.2940 C.3   254  ASN254      0.1653
     12  C         17.3510  -25.8910  361.9700 C.2   254  ASN254      0.2266
     13  O         16.5320  -25.2600  361.3020 O.2   254  ASN254     -0.2867
     14  CB        17.9330  -27.1490  359.8590 C.3   254  ASN254      0.1155
     15  CG        18.1360  -25.9890  358.8980 C.2   254  ASN254      0.2627
     16  OD1       19.0490  -25.1850  359.0610 O.2   254  ASN254     -0.2716
     17  ND2       17.2790  -25.9040  357.8840 N.am  254  ASN254     -0.0877
     18  N         26.7390  -24.4400  362.2210 N.3   265  SER265     -0.1217
     19  CA        27.1510  -24.9550  360.9200 C.3   265  SER265      0.1889
     20  C         28.5300  -24.4260  360.5560 C.2   265  SER265      0.2288
     21  O         28.7860  -23.2240  360.7030 O.2   265  SER265     -0.2866
     22  CB        26.1620  -24.5660  359.8400 C.3   265  SER265      0.2089
     23  OG        26.7480  -24.7360  358.5610 O.3   265  SER265     -0.2183
     24  N         29.7040  -23.7230  357.7730 N.3   267  TRP267     -0.1227
     25  CA        29.6700  -22.7900  356.6550 C.3   267  TRP267      0.1737
     26  C         29.2970  -21.3700  357.0710 C.2   267  TRP267      0.2595
     27  O         29.3620  -20.4650  356.2330 O.2   267  TRP267     -0.2718
     28  CB        28.7010  -23.2970  355.5770 C.3   267  TRP267      0.0564
     29  CG        29.2220  -24.4810  354.8000 C.ar  267  TRP267      0.0003
     30  CD1       29.9020  -24.4520  353.6160 C.ar  267  TRP267      0.0946
     31  CD2       29.1020  -25.8660  355.1570 C.ar  267  TRP267      0.0152
     32  NE1       30.2120  -25.7300  353.2140 N.ar  267  TRP267     -0.2442
     33  CE2       29.7320  -26.6160  354.1430 C.ar  267  TRP267      0.0810
     34  CE3       28.5200  -26.5440  356.2330 C.ar  267  TRP267      0.0012
     35  CZ2       29.8000  -28.0090  354.1760 C.ar  267  TRP267      0.0191
     36  CZ3       28.5860  -27.9260  356.2620 C.ar  267  TRP267      0.0001
     37  CH2       29.2230  -28.6430  355.2410 C.ar  267  TRP267      0.0015
     38  N         28.9060  -21.1530  358.3280 N.am  268  ALA268     -0.1980
     39  CA        28.6640  -19.8070  358.8590 C.3   268  ALA268      0.1597
     40  C         29.9780  -19.2460  359.4040 C.2   268  ALA268      0.2287
     41  O         30.2100  -19.1350  360.6100 O.2   268  ALA268     -0.2864
     42  CB        27.5760  -19.8350  359.9240 C.3   268  ALA268      0.0319
     43  N         31.2570  -16.3840  351.7120 N.3   310  GLN310     -0.1245
     44  CA        30.1160  -15.9090  352.4900 C.3   310  GLN310      0.1566
     45  C         30.6260  -15.6650  353.9080 C.2   310  GLN310      0.2260
     46  O         31.7840  -15.9570  354.2210 O.2   310  GLN310     -0.2867
     47  CB        28.9640  -16.9150  352.4650 C.3   310  GLN310      0.0367
     48  CG        29.3020  -18.2230  353.1760 C.3   310  GLN310      0.0905
     49  CD        28.3360  -19.3460  352.8520 C.2   310  GLN310      0.2608
     50  OE1       27.7420  -19.3820  351.7760 O.2   310  GLN310     -0.2717
     51  NE2       28.1740  -20.2720  353.7880 N.am  310  GLN310     -0.0878
     52  N         18.7260  -19.5100  348.8790 N.3   338  ASN338     -0.1240
     53  CA        18.9230  -20.4120  347.7520 C.3   338  ASN338      0.1653
     54  C         17.6350  -21.2170  347.6620 C.2   338  ASN338      0.2266
     55  O         17.6310  -22.4160  347.9710 O.2   338  ASN338     -0.2867
     56  CB        20.1460  -21.3060  347.9700 C.3   338  ASN338      0.1155
     57  CG        20.8680  -21.6440  346.6850 C.2   338  ASN338      0.2627
     58  OD1       20.3120  -21.5410  345.5930 O.2   338  ASN338     -0.2716
     59  ND2       22.1260  -22.0490  346.8110 N.am  338  ASN338     -0.0877
     60  N         15.4690  -22.9350  350.3060 N.3   341  LYS341     -0.1245
     61  CA        16.3540  -23.0110  351.4590 C.3   341  LYS341      0.1561
     62  C         16.7610  -21.6150  351.9160 C.2   341  LYS341      0.2260
     63  O         17.0000  -20.7200  351.0980 O.2   341  LYS341     -0.2867
     64  CB        17.5930  -23.8410  351.1210 C.3   341  LYS341      0.0271
     65  CG        17.2900  -25.3140  350.8680 C.3   341  LYS341      0.0035
     66  CD        18.5340  -26.0860  350.4520 C.3   341  LYS341      0.0206
     67  CE        18.2460  -27.5800  350.3580 C.3   341  LYS341      0.1093
     68  NZ        19.3740  -28.3300  349.7370 N.3   341  LYS341     -0.1314
     69  N         19.3180  -19.4510  354.7930 N.3   343  TYR343     -0.1241
     70  CA        20.5080  -19.5110  355.6460 C.3   343  TYR343      0.1605
     71  C         20.5200  -18.2830  356.5540 C.2   343  TYR343      0.2264
     72  O         21.2980  -17.3510  356.3440 O.2   343  TYR343     -0.2867
     73  CB        21.7920  -19.5900  354.8010 C.3   343  TYR343      0.0534
     74  CG        21.7110  -20.5160  353.6090 C.ar  343  TYR343     -0.0201
     75  CD1       21.2940  -21.8350  353.7520 C.ar  343  TYR343     -0.0009
     76  CD2       22.0650  -20.0750  352.3410 C.ar  343  TYR343     -0.0009
     77  CE1       21.2250  -22.6860  352.6600 C.ar  343  TYR343      0.0417
     78  CE2       22.0010  -20.9160  351.2460 C.ar  343  TYR343      0.0417
     79  CZ        21.5790  -22.2190  351.4110 C.ar  343  TYR343      0.1957
     80  OH        21.5100  -23.0560  350.3220 O.3   343  TYR343     -0.2866
     81  N         21.8540  -17.7580  359.1500 N.3   345  ASP345     -0.1225
     82  CA        23.0930  -17.6270  359.8980 C.3   345  ASP345      0.1805
     83  C         24.2430  -17.0560  359.0780 C.2   345  ASP345      0.2597
     84  O         25.3480  -16.9180  359.6120 O.2   345  ASP345     -0.2718
     85  CB        23.5040  -18.9890  360.4830 C.3   345  ASP345      0.1424
     86  CG        23.5140  -20.1100  359.4420 C.2   345  ASP345      0.3668
     87  OD1       22.8360  -19.9930  358.4000 O.co2 345  ASP345     -0.2456
     88  OD2       24.2010  -21.1240  359.6780 O.co2 345  ASP345     -0.2456
     89  N         24.0280  -16.7280  357.8000 N.am  346  ILE346     -0.1980
     90  CA        25.0910  -16.1810  356.9620 C.3   346  ILE346      0.1595
     91  C         24.5750  -15.0130  356.1310 C.2   346  ILE346      0.2287
     92  O         23.3730  -14.8560  355.9010 O.2   346  ILE346     -0.2864
     93  CB        25.7200  -17.2320  356.0150 C.3   346  ILE346      0.0276
     94  CG1       24.7900  -17.5150  354.8370 C.3   346  ILE346      0.0022
     95  CG2       26.0690  -18.5130  356.7580 C.3   346  ILE346      0.0022
     96  CD1       25.2340  -18.6750  353.9800 C.3   346  ILE346      0.0001
     97  N         37.0200  -27.3080  347.1560 N.3   378  ARG378     -0.1245
     98  CA        35.6180  -27.5590  346.8540 C.3   378  ARG378      0.1563
     99  C         34.8810  -26.2360  347.0220 C.2   378  ARG378      0.2260
    100  O         34.7130  -25.7460  348.1460 O.2   378  ARG378     -0.2867
    101  CB        35.0510  -28.6500  347.7590 C.3   378  ARG378      0.0307
    102  CG        33.6160  -29.0510  347.4380 C.3   378  ARG378      0.0489
    103  CD        32.6390  -28.2580  348.2840 C.3   378  ARG378      0.2205
    104  NE        31.3260  -28.8830  348.4030 N.pl3 378  ARG378     -0.0865
    105  CZ        30.2800  -28.2900  348.9680 C.cat 378  ARG378      0.5346
    106  NH1       30.4040  -27.0640  349.4610 N.pl3 378  ARG378      0.1354
    107  NH2       29.1160  -28.9160  349.0470 N.pl3 378  ARG378      0.1354
    108  N         32.0600  -23.7850  347.3370 N.3   380  ASP380     -0.1225
    109  CA        30.6840  -23.7940  347.8020 C.3   380  ASP380      0.1805
    110  C         29.8190  -22.8870  346.9330 C.2   380  ASP380      0.2597
    111  O         30.1120  -21.6960  346.7890 O.2   380  ASP380     -0.2718
    112  CB        30.6630  -23.3390  349.2590 C.3   380  ASP380      0.1424
    113  CG        29.3240  -23.5140  349.9070 C.2   380  ASP380      0.3668
    114  OD1       28.5140  -22.5670  349.8640 O.co2 380  ASP380     -0.2456
    115  OD2       29.0910  -24.5940  350.4760 O.co2 380  ASP380     -0.2456
    116  N         28.7690  -23.4580  346.3410 N.am  381  ASN381     -0.1974
    117  CA        27.7200  -22.7070  345.6580 C.3   381  ASN381      0.1688
    118  C         28.2220  -21.6530  344.6660 C.2   381  ASN381      0.2292
    119  O         27.7950  -20.4950  344.7210 O.2   381  ASN381     -0.2864
    120  CB        26.8180  -22.0490  346.6910 C.3   381  ASN381      0.1181
    121  CG        25.6230  -22.8900  347.0410 C.2   381  ASN381      0.2629
    122  OD1       25.3710  -23.9220  346.4230 O.2   381  ASN381     -0.2716
    123  ND2       24.8600  -22.4400  348.0300 N.am  381  ASN381     -0.0877
    124  N         30.4160  -26.8150  343.2020 N.3   409  GLU409     -0.1245
    125  CA        29.2100  -27.3630  343.8300 C.3   409  GLU409      0.1567
    126  C         27.9750  -26.6180  343.3180 C.2   409  GLU409      0.2260
    127  O         27.2710  -25.9210  344.0470 O.2   409  GLU409     -0.2867
    128  CB        29.3220  -27.2910  345.3470 C.3   409  GLU409      0.0388
    129  CG        28.2180  -28.0240  346.0930 C.3   409  GLU409      0.1160
    130  CD        27.3270  -27.0850  346.8780 C.2   409  GLU409      0.3649
    131  OE1       27.8350  -26.0610  347.3820 O.co2 409  GLU409     -0.2457
    132  OE2       26.1160  -27.3650  346.9890 O.co2 409  GLU409     -0.2457
    133  N         24.5560  -27.2550  341.8570 N.3   411  PHE411     -0.1241
    134  CA        23.3320  -27.9970  341.5460 C.3   411  PHE411      0.1605
    135  C         22.3100  -26.9900  341.0350 C.2   411  PHE411      0.2264
    136  O         21.5300  -26.4260  341.8040 O.2   411  PHE411     -0.2867
    137  CB        22.8070  -28.7390  342.7700 C.3   411  PHE411      0.0534
    138  CG        23.7830  -29.7160  343.3680 C.ar  411  PHE411     -0.0203
    139  CD1       24.1210  -30.8820  342.7020 C.ar  411  PHE411     -0.0042
    140  CD2       24.3430  -29.4770  344.6110 C.ar  411  PHE411     -0.0042
    141  CE1       25.0110  -31.7840  343.2600 C.ar  411  PHE411     -0.0003
    142  CE2       25.2310  -30.3740  345.1730 C.ar  411  PHE411     -0.0003
    143  CZ        25.5650  -31.5280  344.4980 C.ar  411  PHE411     -0.0000
    144  N         25.7510  -36.6000  349.9000 N.3   464  THR464     -0.1204
    145  CA        26.3950  -35.4210  350.4670 C.3   464  THR464      0.1979
    146  C         25.6910  -35.1110  351.7810 C.2   464  THR464      0.2460
    147  O         24.6200  -35.6730  352.0490 O.2   464  THR464     -0.2732
    148  CB        26.3130  -34.2070  349.5340 C.3   464  THR464      0.1783
    149  OG1       24.9710  -33.7030  349.5270 O.3   464  THR464     -0.2211
    150  CG2       26.7440  -34.5480  348.1110 C.3   464  THR464      0.0376
    151  N         26.2420  -34.2300  352.6220 N.am  465  PRO465     -0.2717
    152  CA        25.5190  -33.8440  353.8440 C.3   465  PRO465      0.1535
    153  C         24.1510  -33.2260  353.5900 C.2   465  PRO465      0.2598
    154  O         23.3400  -33.1640  354.5210 O.2   465  PRO465     -0.2715
    155  CB        26.4770  -32.8470  354.5050 C.3   465  PRO465      0.0310
    156  CG        27.8240  -33.3360  354.0870 C.3   465  PRO465      0.0237
    157  CD        27.6400  -33.7600  352.6530 C.3   465  PRO465      0.0939
    158  N         23.8550  -32.7870  352.3660 N.am  466  ASP466     -0.1972
    159  CA        22.5570  -32.2080  352.0470 C.3   466  ASP466      0.1709
    160  C         21.7170  -33.0810  351.1270 C.2   466  ASP466      0.2293
    161  O         20.5900  -32.6940  350.7980 O.2   466  ASP466     -0.2864
    162  CB        22.7300  -30.8310  351.3970 C.3   466  ASP466      0.1436
    163  CG        23.7250  -29.9630  352.1260 C.2   466  ASP466      0.3671
    164  OD1       23.3770  -29.4030  353.1880 O.co2 466  ASP466     -0.2456
    165  OD2       24.8650  -29.8490  351.6310 O.co2 466  ASP466     -0.2456
    166  N         17.2130  -34.1980  353.4710 N.3   514  GLU514     -0.1245
    167  CA        18.0730  -33.9450  354.6170 C.3   514  GLU514      0.1567
    168  C         18.1330  -35.1820  355.5060 C.2   514  GLU514      0.2260
    169  O         17.1630  -35.9350  355.6190 O.2   514  GLU514     -0.2867
    170  CB        17.5590  -32.7560  355.4390 C.3   514  GLU514      0.0388
    171  CG        17.6400  -31.4010  354.7510 C.3   514  GLU514      0.1160
    172  CD        19.0380  -30.8060  354.7790 C.2   514  GLU514      0.3649
    173  OE1       19.6610  -30.7800  355.8610 O.co2 514  GLU514     -0.2457
    174  OE2       19.5130  -30.3610  353.7150 O.co2 514  GLU514     -0.2457
    175  N         25.5990  -31.4620  360.0980 N.3   520  LYS520     -0.1231
    176  CA        25.8610  -30.0500  359.8560 C.3   520  LYS520      0.1693
    177  C         25.6250  -29.1950  361.0960 C.2   520  LYS520      0.2592
    178  O         26.1800  -28.0950  361.1890 O.2   520  LYS520     -0.2718
    179  CB        24.9880  -29.5500  358.7000 C.3   520  LYS520      0.0285
    180  CG        25.4030  -30.0810  357.3330 C.3   520  LYS520      0.0035
    181  CD        24.4740  -29.6050  356.2300 C.3   520  LYS520      0.0206
    182  CE        23.0220  -29.9450  356.5270 C.3   520  LYS520      0.1093
    183  NZ        22.1100  -29.5830  355.4030 N.3   520  LYS520     -0.1314
    184  N         24.8270  -29.6750  362.0540 N.am  521  TYR521     -0.1976
    185  CA        24.4670  -28.8800  363.2210 C.3   521  TYR521      0.1639
    186  C         24.7810  -29.5660  364.5480 C.2   521  TYR521      0.2290
    187  O         24.3980  -29.0450  365.6010 O.2   521  TYR521     -0.2864
    188  CB        22.9800  -28.5110  363.1650 C.3   521  TYR521      0.0560
    189  CG        22.4950  -28.1810  361.7710 C.ar  521  TYR521     -0.0198
    190  CD1       22.9360  -27.0410  361.1140 C.ar  521  TYR521     -0.0009
    191  CD2       21.6020  -29.0130  361.1090 C.ar  521  TYR521     -0.0009
    192  CE1       22.4980  -26.7330  359.8390 C.ar  521  TYR521      0.0417
    193  CE2       21.1580  -28.7150  359.8310 C.ar  521  TYR521      0.0417
    194  CZ        21.6110  -27.5730  359.2020 C.ar  521  TYR521      0.1957
    195  OH        21.1800  -27.2690  357.9330 O.3   521  TYR521     -0.2866
@<TRIPOS>BOND
     1   135   134    1
     2   135   136    2
     3   134   133    1
     4   134   137    1
     5   139   141   ar
     6   139   138   ar
     7   137   138    1
     8   124   125    1
     9   141   143   ar
    10   126   125    1
    11   126   127    2
    12   138   140   ar
    13   125   128    1
    14   143   142   ar
    15   140   142   ar
    16   118   119    2
    17   118   117    1
    18   128   129    1
    19    58    57    2
    20   117   116    1
    21   117   120    1
    22   129   130    1
    23   116   110   am
    24   122   121    2
    25    57    59   am
    26    57    56    1
    27   120   121    1
    28   111   110    2
    29    98    99    1
    30    98    97    1
    31    98   101    1
    32   130   132   ar
    33   130   131   ar
    34   110   109    1
    35    99   100    2
    36   121   123   am
    37   108   109    1
    38   102   101    1
    39   102   103    1
    40    54    53    1
    41    54    55    2
    42    53    56    1
    43    53    52    1
    44   109   112    1
    45   150   148    1
    46   103   104    1
    47   104   105    2
    48   105   107    1
    49   105   106    1
    50   112   113    1
    51   149   148    1
    52   148   145    1
    53    68    67    1
    54   114   113   ar
    55   144   145    1
    56   113   115   ar
    57    60    61    1
    58    80    79    1
    59    67    66    1
    60    66    65    1
    61   145   146    1
    62   161   160    2
    63    65    64    1
    64    63    62    2
    65    64    61    1
    66   160   159    1
    67    78    79   ar
    68    78    76   ar
    69   162   159    1
    70   162   163    1
    71    79    77   ar
    72    61    62    1
    73   165   163   ar
    74    43    44    1
    75    50    49    2
    76   146   147    2
    77   146   151   am
    78   159   158    1
    79   163   164   ar
    80    76    74   ar
    81   158   153   am
    82    47    44    1
    83    47    48    1
    84    44    45    1
    85   151   157    1
    86   151   152    1
    87   157   156    1
    88    77    75   ar
    89    49    48    1
    90    49    51   am
    91    32    30   ar
    92    32    33   ar
    93   166   167    1
    94   153   152    1
    95   153   154    2
    96    74    75   ar
    97    74    73    1
    98    30    29   ar
    99   174   172   ar
   100   152   155    1
   101    45    46    2
   102    96    94    1
   103   156   155    1
   104    33    35   ar
   105    33    31   ar
   106    35    37   ar
   107   167   170    1
   108   167   168    1
   109   171   172    1
   110   171   170    1
   111   172   173   ar
   112    69    70    1
   113    29    31   ar
   114    29    28    1
   115    73    70    1
   116    94    93    1
   117    31    34   ar
   118    37    36   ar
   119   183   182    1
   120   168   169    2
   121    28    25    1
   122    70    71    1
   123    92    91    2
   124    93    95    1
   125    93    90    1
   126    91    90    1
   127   181   182    1
   128   181   180    1
   129    34    36   ar
   130    27    26    2
   131    72    71    2
   132    25    26    1
   133    25    24    1
   134    90    89    1
   135    26    38   am
   136   180   179    1
   137     9     8    1
   138    89    83   am
   139    17    15   am
   140   195   194    1
   141    38    39    1
   142    87    86   ar
   143    23    22    1
   144   179   176    1
   145    39    40    1
   146    39    42    1
   147    15    16    2
   148    15    14    1
   149    83    84    2
   150    83    82    1
   151    81    82    1
   152   194   193   ar
   153   194   192   ar
   154     8     7    1
   155    40    41    2
   156    86    88   ar
   157    86    85    1
   158   193   191   ar
   159   192   190   ar
   160    22    19    1
   161   176   175    1
   162   176   177    1
   163    14    11    1
   164    82    85    1
   165     7     6    1
   166    20    21    2
   167    20    19    1
   168    19    18    1
   169   177   178    2
   170   177   184   am
   171   191   189   ar
   172   190   189   ar
   173    11    12    1
   174    11    10    1
   175    13    12    2
   176     6     5    1
   177   189   188    1
   178   184   185    1
   179     5     2    1
   180   188   185    1
   181   185   186    1
   182     2     1    1
   183     2     3    1
   184   186   187    2
   185     3     4    2
