@<TRIPOS>MOLECULE
tmp/5vskA00.pdb
 190 186 0 0 0
SMALL
GASTEIGER

@<TRIPOS>ATOM
      1  N         61.5860  -55.1550  175.7570 N.3    16  CYS16      -0.1221
      2  CA        62.5550  -56.1380  176.2190 C.3    16  CYS16       0.1808
      3  C         62.2640  -56.5810  177.6470 C.2    16  CYS16       0.2601
      4  O         61.1800  -57.0910  177.9490 O.2    16  CYS16      -0.2717
      5  CB        63.9760  -55.5780  176.1260 C.3    16  CYS16       0.0970
      6  SG        64.5800  -55.3020  174.4470 S.3    16  CYS16      -0.0800
      7  N         63.2370  -56.3650  178.5320 N.am   17  TYR17      -0.1976
      8  CA        63.1980  -56.8510  179.9040 C.3    17  TYR17       0.1639
      9  C         62.2310  -56.0870  180.7990 C.2    17  TYR17       0.2290
     10  O         62.0350  -56.4980  181.9480 O.2    17  TYR17      -0.2864
     11  CB        64.6030  -56.7810  180.4970 C.3    17  TYR17       0.0560
     12  CG        65.3220  -55.4890  180.1720 C.ar   17  TYR17      -0.0198
     13  CD1       65.0580  -54.3230  180.8820 C.ar   17  TYR17      -0.0009
     14  CD2       66.2600  -55.4330  179.1470 C.ar   17  TYR17      -0.0009
     15  CE1       65.7110  -53.1400  180.5840 C.ar   17  TYR17       0.0417
     16  CE2       66.9190  -54.2560  178.8420 C.ar   17  TYR17       0.0417
     17  CZ        66.6410  -53.1130  179.5630 C.ar   17  TYR17       0.1957
     18  OH        67.2950  -51.9410  179.2620 O.3    17  TYR17      -0.2866
     19  N         65.9490  -49.3610  174.9040 N.3    84  PHE84      -0.1227
     20  CA        66.2550  -50.4730  175.7960 C.3    84  PHE84       0.1736
     21  C         67.5120  -51.2230  175.3740 C.2    84  PHE84       0.2595
     22  O         68.1860  -51.8150  176.2240 O.2    84  PHE84      -0.2718
     23  CB        65.0580  -51.4190  175.8670 C.3    84  PHE84       0.0547
     24  CG        63.9160  -50.8810  176.6800 C.ar   84  PHE84      -0.0202
     25  CD1       63.9880  -50.8430  178.0640 C.ar   84  PHE84      -0.0042
     26  CD2       62.7740  -50.4040  176.0620 C.ar   84  PHE84      -0.0042
     27  CE1       62.9370  -50.3440  178.8140 C.ar   84  PHE84      -0.0003
     28  CE2       61.7210  -49.9040  176.8070 C.ar   84  PHE84      -0.0003
     29  CZ        61.8030  -49.8740  178.1850 C.ar   84  PHE84      -0.0000
     30  N         67.8420  -51.2190  174.0820 N.am   85  MET85      -0.1979
     31  CA        69.0510  -51.8900  173.6230 C.3    85  MET85       0.1605
     32  C         70.3190  -51.2120  174.1210 C.2    85  MET85       0.2287
     33  O         71.4000  -51.8010  174.0070 O.2    85  MET85      -0.2864
     34  CB        69.0690  -51.9570  172.0950 C.3    85  MET85       0.0413
     35  CG        67.9360  -52.7540  171.5180 C.3    85  MET85       0.0598
     36  SD        68.0200  -54.5480  171.8970 S.3    85  MET85      -0.1393
     37  CE        69.3290  -55.0760  170.8440 C.3    85  MET85       0.0692
     38  N         70.6740  -50.0510  177.3530 N.3    87  HIS87      -0.1226
     39  CA        70.6190  -50.0320  178.8080 C.3    87  HIS87       0.1752
     40  C         70.5660  -51.4530  179.3500 C.2    87  HIS87       0.2596
     41  O         69.9120  -52.3230  178.7670 O.2    87  HIS87      -0.2718
     42  CB        69.3980  -49.2490  179.3130 C.3    87  HIS87       0.0759
     43  CG        69.5190  -47.7660  179.1540 C.ar   87  HIS87       0.0818
     44  ND1       69.4900  -47.1430  177.9250 N.ar   87  HIS87      -0.2268
     45  CD2       69.6680  -46.7820  180.0710 C.ar   87  HIS87       0.1154
     46  CE1       69.6150  -45.8390  178.0920 C.ar   87  HIS87       0.1986
     47  NE2       69.7240  -45.5930  179.3850 N.ar   87  HIS87      -0.2212
     48  N         71.2570  -51.6790  180.4650 N.am   88  ASP88      -0.1960
     49  CA        71.1810  -52.9500  181.1650 C.3    88  ASP88       0.1840
     50  C         69.8980  -53.0230  181.9860 C.2    88  ASP88       0.2622
     51  O         69.2970  -52.0050  182.3410 O.2    88  ASP88      -0.2715
     52  CB        72.3920  -53.1480  182.0780 C.3    88  ASP88       0.1450
     53  CG        73.6710  -53.4200  181.3100 C.2    88  ASP88       0.3671
     54  OD1       73.6180  -53.5040  180.0640 O.co2  88  ASP88      -0.2456
     55  OD2       74.7320  -53.5590  181.9560 O.co2  88  ASP88      -0.2456
     56  N         69.4830  -54.2520  182.2960 N.am   89  VAL89      -0.1963
     57  CA        68.2580  -54.4370  183.0700 C.3    89  VAL89       0.1727
     58  C         68.3920  -53.7890  184.4430 C.2    89  VAL89       0.2616
     59  O         67.4760  -53.1040  184.9140 O.2    89  VAL89      -0.2715
     60  CB        67.9090  -55.9340  183.1750 C.3    89  VAL89       0.0290
     61  CG1       69.0290  -56.6980  183.8610 C.3    89  VAL89       0.0023
     62  CG2       66.6000  -56.1200  183.9170 C.3    89  VAL89       0.0023
     63  N         69.5390  -53.9820  185.1030 N.am   90  GLN90      -0.1977
     64  CA        69.7470  -53.3660  186.4100 C.3    90  GLN90       0.1601
     65  C         69.6930  -51.8470  186.3280 C.2    90  GLN90       0.2287
     66  O         69.3120  -51.1860  187.3010 O.2    90  GLN90      -0.2864
     67  CB        71.0820  -53.8150  187.0070 C.3    90  GLN90       0.0394
     68  CG        72.2980  -53.1570  186.3850 C.3    90  GLN90       0.0908
     69  CD        72.8100  -53.9150  185.1810 C.2    90  GLN90       0.2608
     70  OE1       72.1570  -54.8370  184.6930 O.2    90  GLN90      -0.2717
     71  NE2       73.9860  -53.5310  184.6930 N.am   90  GLN90      -0.0878
     72  N         76.6380  -57.8040  189.5930 N.3   144  GLN144     -0.1245
     73  CA        76.9430  -58.2740  188.2460 C.3   144  GLN144      0.1566
     74  C         77.9470  -59.4140  188.3630 C.2   144  GLN144      0.2260
     75  O         79.0930  -59.2030  188.7750 O.2   144  GLN144     -0.2867
     76  CB        77.4960  -57.1450  187.3770 C.3   144  GLN144      0.0367
     77  CG        76.5090  -56.0280  187.0620 C.3   144  GLN144      0.0905
     78  CD        76.1700  -55.1810  188.2720 C.2   144  GLN144      0.2608
     79  OE1       75.2530  -55.4990  189.0280 O.2   144  GLN144     -0.2717
     80  NE2       76.9100  -54.0930  188.4600 N.am  144  GLN144     -0.0878
     81  N         72.5020  -60.1790  188.2440 N.3   198  GLN198     -0.1231
     82  CA        72.5320  -60.1530  186.7880 C.3   198  GLN198      0.1698
     83  C         73.7030  -60.9870  186.2850 C.2   198  GLN198      0.2592
     84  O         74.8160  -60.8950  186.8100 O.2   198  GLN198     -0.2718
     85  CB        72.6440  -58.7190  186.2620 C.3   198  GLN198      0.0381
     86  CG        71.4210  -57.8580  186.5340 C.3   198  GLN198      0.0905
     87  CD        71.4240  -57.2610  187.9270 C.2   198  GLN198      0.2608
     88  OE1       72.3810  -57.4260  188.6840 O.2   198  GLN198     -0.2717
     89  NE2       70.3460  -56.5660  188.2750 N.am  198  GLN198     -0.0878
     90  N         73.4460  -61.8030  185.2680 N.am  199  LEU199     -0.1966
     91  CA        74.4520  -62.6940  184.7000 C.3   199  LEU199      0.1728
     92  C         75.0730  -62.0450  183.4680 C.2   199  LEU199      0.2616
     93  O         74.3760  -61.7830  182.4810 O.2   199  LEU199     -0.2715
     94  CB        73.8350  -64.0460  184.3450 C.3   199  LEU199      0.0311
     95  CG        73.1570  -64.7850  185.5010 C.3   199  LEU199      0.0022
     96  CD1       72.7570  -66.1920  185.0870 C.3   199  LEU199      0.0001
     97  CD2       74.0590  -64.8200  186.7220 C.3   199  LEU199      0.0001
     98  N         76.3830  -61.7980  183.5220 N.am  200  MET200     -0.1963
     99  CA        77.0990  -61.1660  182.4130 C.3   200  MET200      0.1736
    100  C         77.1010  -62.1220  181.2240 C.2   200  MET200      0.2616
    101  O         78.0700  -62.8340  180.9500 O.2   200  MET200     -0.2715
    102  CB        78.5220  -60.7930  182.8180 C.3   200  MET200      0.0427
    103  CG        78.6370  -59.6370  183.7960 C.3   200  MET200      0.0599
    104  SD        80.3380  -59.4200  184.3670 S.3   200  MET200     -0.1393
    105  CE        80.2320  -57.8230  185.1700 C.3   200  MET200      0.0692
    106  N         75.9830  -62.1360  180.5010 N.am  201  ARG201     -0.1963
    107  CA        75.8500  -62.9420  179.2970 C.3   201  ARG201      0.1729
    108  C         76.0030  -62.1310  178.0170 C.2   201  ARG201      0.2616
    109  O         76.1290  -62.7230  176.9400 O.2   201  ARG201     -0.2715
    110  CB        74.4950  -63.6600  179.2820 C.3   201  ARG201      0.0348
    111  CG        74.3980  -64.8380  180.2400 C.3   201  ARG201      0.0492
    112  CD        73.0530  -65.5340  180.1030 C.3   201  ARG201      0.2205
    113  NE        72.9750  -66.7640  180.8870 N.pl3 201  ARG201     -0.0865
    114  CZ        73.3980  -67.9510  180.4620 C.cat 201  ARG201      0.5346
    115  NH1       73.2820  -69.0170  181.2420 N.pl3 201  ARG201      0.1354
    116  NH2       73.9420  -68.0730  179.2580 N.pl3 201  ARG201      0.1354
    117  N         75.9860  -60.8040  178.1060 N.am  202  PHE202     -0.1960
    118  CA        76.1630  -59.9230  176.9550 C.3   202  PHE202      0.1771
    119  C         77.5290  -59.2520  177.0910 C.2   202  PHE202      0.2619
    120  O         77.6420  -58.0980  177.5060 O.2   202  PHE202     -0.2715
    121  CB        75.0300  -58.8980  176.8760 C.3   202  PHE202      0.0574
    122  CG        74.9060  -58.2320  175.5370 C.ar  202  PHE202     -0.0200
    123  CD1       74.9240  -58.9820  174.3730 C.ar  202  PHE202     -0.0042
    124  CD2       74.7670  -56.8590  175.4420 C.ar  202  PHE202     -0.0042
    125  CE1       74.8050  -58.3730  173.1380 C.ar  202  PHE202     -0.0003
    126  CE2       74.6500  -56.2440  174.2100 C.ar  202  PHE202     -0.0003
    127  CZ        74.6700  -57.0020  173.0560 C.ar  202  PHE202     -0.0000
    128  N         78.5730  -59.9890  176.7250 N.am  203  MET203     -0.1977
    129  CA        79.9420  -59.4960  176.8410 C.3   203  MET203      0.1605
    130  C         80.3470  -58.6960  175.6080 C.2   203  MET203      0.2287
    131  O         79.7190  -58.8030  174.5560 O.2   203  MET203     -0.2864
    132  CB        80.9160  -60.6580  177.0480 C.3   203  MET203      0.0413
    133  CG        80.7800  -61.3820  178.3770 C.3   203  MET203      0.0598
    134  SD        81.0170  -60.2950  179.7950 S.3   203  MET203     -0.1393
    135  CE        81.2820  -61.4960  181.0990 C.3   203  MET203      0.0692
    136  N         75.5860  -62.2500  172.5290 N.3   206  LYS206     -0.1245
    137  CA        75.0290  -63.0850  173.5840 C.3   206  LYS206      0.1561
    138  C         75.7620  -64.4190  173.6580 C.2   206  LYS206      0.2260
    139  O         76.0710  -65.0340  172.6330 O.2   206  LYS206     -0.2867
    140  CB        73.5400  -63.3250  173.3360 C.3   206  LYS206      0.0271
    141  CG        72.8870  -64.3020  174.3020 C.3   206  LYS206      0.0035
    142  CD        71.3780  -64.3300  174.1050 C.3   206  LYS206      0.0206
    143  CE        70.7330  -65.5050  174.8250 C.3   206  LYS206      0.1093
    144  NZ        70.8230  -65.3800  176.3030 N.3   206  LYS206     -0.1314
    145  N         65.7740  -65.2810  178.4730 N.3   242  HIS242     -0.1241
    146  CA        65.7950  -64.6960  177.1410 C.3   242  HIS242      0.1621
    147  C         66.3800  -65.7140  176.1750 C.2   242  HIS242      0.2264
    148  O         67.2830  -66.4730  176.5360 O.2   242  HIS242     -0.2867
    149  CB        66.6120  -63.3980  177.1130 C.3   242  HIS242      0.0745
    150  CG        67.0930  -63.0150  175.7470 C.ar  242  HIS242      0.0817
    151  ND1       68.4100  -63.1450  175.3600 N.ar  242  HIS242     -0.2268
    152  CD2       66.4380  -62.4990  174.6800 C.ar  242  HIS242      0.1154
    153  CE1       68.5450  -62.7280  174.1140 C.ar  242  HIS242      0.1986
    154  NE2       67.3630  -62.3300  173.6780 N.ar  242  HIS242     -0.2212
    155  N         71.5460  -63.0170  169.4820 N.3   246  ASN246     -0.1240
    156  CA        72.3760  -61.8480  169.7480 C.3   246  ASN246      0.1653
    157  C         71.6090  -60.5330  169.6740 C.2   246  ASN246      0.2266
    158  O         72.1070  -59.5010  170.1350 O.2   246  ASN246     -0.2867
    159  CB        73.5550  -61.8120  168.7690 C.3   246  ASN246      0.1155
    160  CG        74.5760  -62.8940  169.0170 C.2   246  ASN246      0.2627
    161  OD1       74.6600  -63.4570  170.1390 O.2   246  ASN246     -0.2716
    162  ND2       75.3570  -63.2240  168.0150 N.am  246  ASN246     -0.0877
    163  N         67.5690  -60.0980  169.7560 N.3   248  GLY248     -0.1225
    164  CA        66.1260  -60.2180  169.7670 C.3   248  GLY248      0.1811
    165  C         65.6220  -61.5750  170.2040 C.2   248  GLY248      0.2280
    166  O         65.9840  -62.6030  169.6220 O.2   248  GLY248     -0.2866
    167  N         61.0990  -62.4600  175.8050 N.3   251  TYR251     -0.1241
    168  CA        61.4840  -62.2380  177.1940 C.3   251  TYR251      0.1605
    169  C         60.4170  -62.8280  178.1080 C.2   251  TYR251      0.2264
    170  O         59.2940  -62.3170  178.1780 O.2   251  TYR251     -0.2867
    171  CB        61.6830  -60.7520  177.4730 C.3   251  TYR251      0.0534
    172  CG        62.8940  -60.1600  176.7940 C.ar  251  TYR251     -0.0201
    173  CD1       62.8240  -59.7050  175.4880 C.ar  251  TYR251     -0.0009
    174  CD2       64.1070  -60.0530  177.4620 C.ar  251  TYR251     -0.0009
    175  CE1       63.9260  -59.1620  174.8630 C.ar  251  TYR251      0.0417
    176  CE2       65.2180  -59.5100  176.8420 C.ar  251  TYR251      0.0417
    177  CZ        65.1190  -59.0670  175.5430 C.ar  251  TYR251      0.1957
    178  OH        66.2110  -58.5240  174.9100 O.3   251  TYR251     -0.2866
    179  N         69.2010  -64.5630  182.5470 N.3   292  TYR292     -0.1241
    180  CA        70.1450  -63.4580  182.6240 C.3   292  TYR292      0.1605
    181  C         70.0710  -62.6830  183.9300 C.2   292  TYR292      0.2264
    182  O         70.9150  -61.8070  184.1510 O.2   292  TYR292     -0.2867
    183  CB        69.9400  -62.4880  181.4490 C.3   292  TYR292      0.0534
    184  CG        68.5640  -61.8740  181.3900 C.ar  292  TYR292     -0.0201
    185  CD1       68.3220  -60.6130  181.9160 C.ar  292  TYR292     -0.0009
    186  CD2       67.5050  -62.5550  180.8040 C.ar  292  TYR292     -0.0009
    187  CE1       67.0610  -60.0460  181.8620 C.ar  292  TYR292      0.0417
    188  CE2       66.2410  -61.9980  180.7480 C.ar  292  TYR292      0.0417
    189  CZ        66.0250  -60.7440  181.2770 C.ar  292  TYR292      0.1957
    190  OH        64.7680  -60.1880  181.2210 O.3   292  TYR292     -0.2866
@<TRIPOS>BOND
     1   162   160   am
     2   159   160    1
     3   159   156    1
     4   160   161    2
     5   155   156    1
     6   166   165    2
     7   157   156    1
     8   157   158    2
     9   163   164    1
    10   164   165    1
    11    37    36    1
    12    35    36    1
    13    35    34    1
    14    34    31    1
    15   136   137    1
    16   139   138    2
    17   127   125   ar
    18   127   126   ar
    19   125   123   ar
    20   140   137    1
    21   140   141    1
    22   137   138    1
    23    31    30    1
    24    31    32    1
    25   154   153   ar
    26   154   152   ar
    27    33    32    2
    28    30    21   am
    29   142   141    1
    30   142   143    1
    31   153   151   ar
    32   126   124   ar
    33   123   122   ar
    34     6     5    1
    35   131   130    2
    36   152   150   ar
    37   143   144    1
    38   175   173   ar
    39   175   177   ar
    40    19    20    1
    41   178   177    1
    42   151   150   ar
    43    21    20    1
    44    21    22    2
    45   124   122   ar
    46   173   172   ar
    47   122   121    1
    48   177   176   ar
    49   130   129    1
    50   150   149    1
    51     1     2    1
    52    20    23    1
    53   167   168    1
    54    23    24    1
    55    26    24   ar
    56    26    28   ar
    57     5     2    1
    58   147   148    2
    59   147   146    1
    60     2     3    1
    61    24    25   ar
    62   128   129    1
    63   128   119   am
    64   172   174   ar
    65   172   171    1
    66    28    29   ar
    67   129   132    1
    68   176   174   ar
    69   121   118    1
    70   109   108    2
    71   118   119    1
    72   118   117    1
    73   132   133    1
    74   119   120    2
    75   149   146    1
    76   146   145    1
    77   168   171    1
    78   168   169    1
    79    38    39    1
    80     3     4    2
    81     3     7   am
    82    44    46   ar
    83    44    43   ar
    84   108   117   am
    85   108   107    1
    86    25    27   ar
    87    46    47   ar
    88   169   170    2
    89    29    27   ar
    90   133   134    1
    91     7     8    1
    92    41    40    2
    93    39    42    1
    94    39    40    1
    95    16    14   ar
    96    16    17   ar
    97    14    12   ar
    98    43    42    1
    99    43    45   ar
   100   116   114    1
   101    18    17    1
   102   110   107    1
   103   110   111    1
   104   107   106    1
   105    40    48   am
   106    47    45   ar
   107    17    15   ar
   108   134   135    1
   109     8    11    1
   110     8     9    1
   111    54    53   ar
   112   112   111    1
   113   112   113    1
   114    12    11    1
   115    12    13   ar
   116   114   113    2
   117   114   115    1
   118    48    49    1
   119   106   100   am
   120    15    13   ar
   121   188   186   ar
   122   188   189   ar
   123     9    10    2
   124   186   184   ar
   125   101   100    2
   126    49    50    1
   127    49    52    1
   128   190   189    1
   129   100    99    1
   130   189   187   ar
   131    53    55   ar
   132    53    52    1
   133   184   183    1
   134   184   185   ar
   135   183   180    1
   136   187   185   ar
   137    50    56   am
   138    50    51    2
   139    56    57    1
   140    99   102    1
   141    99    98    1
   142    93    92    2
   143   179   180    1
   144   180   181    1
   145   102   103    1
   146    57    60    1
   147    57    58    1
   148    60    61    1
   149    60    62    1
   150    92    98   am
   151    92    91    1
   152   103   104    1
   153   181   182    2
   154    94    91    1
   155    94    95    1
   156   104   105    1
   157    58    59    2
   158    58    63   am
   159    70    69    2
   160    71    69   am
   161    91    90    1
   162    96    95    1
   163    63    64    1
   164    69    68    1
   165    90    83   am
   166    95    97    1
   167    85    86    1
   168    85    82    1
   169    83    82    1
   170    83    84    2
   171    65    64    1
   172    65    66    2
   173    68    67    1
   174    64    67    1
   175    86    87    1
   176    82    81    1
   177    77    76    1
   178    77    78    1
   179    76    73    1
   180    87    89   am
   181    87    88    2
   182    73    74    1
   183    73    72    1
   184    78    80   am
   185    78    79    2
   186    74    75    2
