@<TRIPOS>MOLECULE
tmp/5vskB00.pdb
 204 201 0 0 0
SMALL
GASTEIGER

@<TRIPOS>ATOM
      1  N         49.9720  -54.9890  240.2930 N.3    16  CYS16      -0.1221
      2  CA        49.1470  -56.1150  239.8480 C.3    16  CYS16       0.1808
      3  C         49.5160  -56.4750  238.4100 C.2    16  CYS16       0.2601
      4  O         50.6930  -56.7810  238.1490 O.2    16  CYS16      -0.2717
      5  CB        47.6730  -55.7420  240.0900 C.3    16  CYS16       0.0970
      6  SG        47.1590  -55.5380  241.8250 S.3    16  CYS16      -0.0800
      7  N         48.5690  -56.4570  237.4650 N.am   17  TYR17      -0.1976
      8  CA        48.6900  -56.9190  236.0830 C.3    17  TYR17       0.1639
      9  C         49.4870  -55.9790  235.1920 C.2    17  TYR17       0.2290
     10  O         49.7160  -56.3210  234.0310 O.2    17  TYR17      -0.2864
     11  CB        47.2830  -57.1070  235.5030 C.3    17  TYR17       0.0560
     12  CG        46.3430  -55.9630  235.8570 C.ar   17  TYR17      -0.0198
     13  CD1       46.3630  -54.7710  235.1470 C.ar   17  TYR17      -0.0009
     14  CD2       45.4510  -56.0700  236.9230 C.ar   17  TYR17      -0.0009
     15  CE1       45.5190  -53.7180  235.4770 C.ar   17  TYR17       0.0417
     16  CE2       44.6010  -55.0190  237.2610 C.ar   17  TYR17       0.0417
     17  CZ        44.6410  -53.8450  236.5320 C.ar   17  TYR17       0.1957
     18  OH        43.8090  -52.7880  236.8440 O.3    17  TYR17      -0.2866
     19  N         44.8220  -50.0300  241.3600 N.3    78  PHE78      -0.1227
     20  CA        44.8000  -51.1740  240.4540 C.3    78  PHE78       0.1736
     21  C         43.7750  -52.2240  240.8620 C.2    78  PHE78       0.2595
     22  O         43.2340  -52.9210  239.9980 O.2    78  PHE78      -0.2718
     23  CB        46.1890  -51.8080  240.3750 C.3    78  PHE78       0.0547
     24  CG        47.1670  -51.0210  239.5530 C.ar   78  PHE78      -0.0202
     25  CD1       47.0820  -51.0150  238.1700 C.ar   78  PHE78      -0.0042
     26  CD2       48.1670  -50.2830  240.1620 C.ar   78  PHE78      -0.0042
     27  CE1       47.9820  -50.2890  237.4110 C.ar   78  PHE78      -0.0003
     28  CE2       49.0670  -49.5550  239.4080 C.ar   78  PHE78      -0.0003
     29  CZ        48.9750  -49.5580  238.0320 C.ar   78  PHE78      -0.0000
     30  N         43.4990  -52.3570  242.1600 N.am   79  MET79      -0.1979
     31  CA        42.5180  -53.3300  242.6230 C.3    79  MET79       0.1605
     32  C         41.0900  -52.9720  242.2300 C.2    79  MET79       0.2287
     33  O         40.2060  -53.8280  242.3430 O.2    79  MET79      -0.2864
     34  CB        42.6090  -53.4860  244.1430 C.3    79  MET79       0.0413
     35  CG        43.9010  -54.1250  244.6310 C.3    79  MET79       0.0598
     36  SD        44.0880  -55.8380  244.0920 S.3    79  MET79      -0.1393
     37  CE        42.7080  -56.6160  244.9270 C.3    79  MET79       0.0692
     38  N         40.1570  -51.8020  239.1200 N.3    81  HIS81      -0.1226
     39  CA        40.0650  -51.7140  237.6700 C.3    81  HIS81       0.1752
     40  C         40.4260  -53.0510  237.0410 C.2    81  HIS81       0.2596
     41  O         41.3160  -53.7550  237.5240 O.2    81  HIS81      -0.2718
     42  CB        40.9800  -50.6170  237.1140 C.3    81  HIS81       0.0759
     43  CG        40.4780  -49.2300  237.3660 C.ar   81  HIS81       0.0818
     44  ND1       41.2940  -48.2120  237.8090 N.ar   81  HIS81      -0.2268
     45  CD2       39.2430  -48.6930  237.2340 C.ar   81  HIS81       0.1154
     46  CE1       40.5830  -47.1070  237.9410 C.ar   81  HIS81       0.1986
     47  NE2       39.3350  -47.3720  237.5980 N.ar   81  HIS81      -0.2212
     48  N         39.7250  -53.3920  235.9620 N.am   82  ASP82      -0.1960
     49  CA        40.0380  -54.5820  235.1910 C.3    82  ASP82       0.1840
     50  C         41.2550  -54.3330  234.3070 C.2    82  ASP82       0.2622
     51  O         41.5990  -53.1930  233.9840 O.2    82  ASP82      -0.2715
     52  CB        38.8430  -54.9970  234.3290 C.3    82  ASP82       0.1450
     53  CG        37.6950  -55.5580  235.1480 C.2    82  ASP82       0.3671
     54  OD1       37.8410  -55.6780  236.3830 O.co2  82  ASP82      -0.2456
     55  OD2       36.6430  -55.8750  234.5530 O.co2  82  ASP82      -0.2456
     56  N         41.9120  -55.4250  233.9130 N.am   83  VAL83      -0.1963
     57  CA        43.1060  -55.3030  233.0820 C.3    83  VAL83       0.1727
     58  C         42.7650  -54.6420  231.7520 C.2    83  VAL83       0.2616
     59  O         43.4900  -53.7580  231.2810 O.2    83  VAL83      -0.2715
     60  CB        43.7700  -56.6790  232.8830 C.3    83  VAL83       0.0290
     61  CG1       42.8100  -57.6440  232.2070 C.3    83  VAL83       0.0023
     62  CG2       45.0500  -56.5360  232.0770 C.3    83  VAL83       0.0023
     63  N         41.6520  -55.0480  231.1300 N.am   84  GLN84      -0.1977
     64  CA        41.2630  -54.4310  229.8660 C.3    84  GLN84       0.1601
     65  C         41.0140  -52.9380  230.0330 C.2    84  GLN84       0.2287
     66  O         41.2240  -52.1650  229.0920 O.2    84  GLN84      -0.2864
     67  CB        40.0220  -55.1130  229.2860 C.3    84  GLN84       0.0394
     68  CG        38.7140  -54.7410  229.9630 C.3    84  GLN84       0.0908
     69  CD        38.3830  -55.6360  231.1370 C.2    84  GLN84       0.2608
     70  OE1       39.2080  -56.4380  231.5720 O.2    84  GLN84      -0.2717
     71  NE2       37.1700  -55.4990  231.6600 N.am   84  GLN84      -0.0878
     72  N         35.4430  -60.0420  226.7660 N.3   130  GLN130     -0.1245
     73  CA        35.3470  -60.6840  228.0700 C.3   130  GLN130      0.1566
     74  C         34.5690  -61.9870  227.9210 C.2   130  GLN130      0.2260
     75  O         33.3830  -61.9680  227.5740 O.2   130  GLN130     -0.2867
     76  CB        34.6720  -59.7610  229.0860 C.3   130  GLN130      0.0367
     77  CG        35.4730  -58.5110  229.4360 C.3   130  GLN130      0.0905
     78  CD        35.5580  -57.5150  228.2910 C.2   130  GLN130      0.2608
     79  OE1       34.5530  -57.1870  227.6580 O.2   130  GLN130     -0.2717
     80  NE2       36.7650  -57.0340  228.0160 N.am  130  GLN130     -0.0878
     81  N         40.0330  -61.6880  227.8150 N.3   167  GLN167     -0.1231
     82  CA        40.0850  -61.7770  229.2660 C.3   167  GLN167      0.1698
     83  C         39.1170  -62.8470  229.7540 C.2   167  GLN167      0.2592
     84  O         37.9850  -62.9400  229.2720 O.2   167  GLN167     -0.2718
     85  CB        39.7450  -60.4320  229.9150 C.3   167  GLN167      0.0381
     86  CG        40.7640  -59.3310  229.6660 C.3   167  GLN167      0.0905
     87  CD        40.5600  -58.6330  228.3390 C.2   167  GLN167      0.2608
     88  OE1       39.6090  -58.9210  227.6130 O.2   167  GLN167     -0.2717
     89  NE2       41.4500  -57.7020  228.0170 N.am  167  GLN167     -0.0878
     90  N         39.5710  -63.6570  230.7070 N.am  168  LEU168     -0.1966
     91  CA        38.7690  -64.7390  231.2640 C.3   168  LEU168      0.1728
     92  C         38.0990  -64.2530  232.5430 C.2   168  LEU168      0.2616
     93  O         38.7790  -63.9130  233.5170 O.2   168  LEU168     -0.2715
     94  CB        39.6240  -65.9740  231.5440 C.3   168  LEU168      0.0311
     95  CG        40.3710  -66.5540  230.3430 C.3   168  LEU168      0.0022
     96  CD1       41.0140  -67.8850  230.7010 C.3   168  LEU168      0.0001
     97  CD2       39.4370  -66.7040  229.1520 C.3   168  LEU168      0.0001
     98  N         36.7660  -64.2280  232.5340 N.am  169  MET169     -0.1963
     99  CA        35.9730  -63.7590  233.6700 C.3   169  MET169      0.1736
    100  C         36.1250  -64.7350  234.8350 C.2   169  MET169      0.2616
    101  O         35.2790  -65.5960  235.0870 O.2   169  MET169     -0.2715
    102  CB        34.5140  -63.5960  233.2620 C.3   169  MET169      0.0427
    103  CG        34.2620  -62.4300  232.3170 C.3   169  MET169      0.0599
    104  SD        32.5800  -62.3970  231.6650 S.3   169  MET169     -0.1393
    105  CE        31.6240  -62.4930  233.1760 C.3   169  MET169      0.0692
    106  N         37.2340  -64.5930  235.5620 N.am  170  ARG170     -0.1963
    107  CA        37.4940  -65.4050  236.7440 C.3   170  ARG170      0.1729
    108  C         37.2300  -64.6700  238.0530 C.2   170  ARG170      0.2616
    109  O         37.1890  -65.3140  239.1060 O.2   170  ARG170     -0.2715
    110  CB        38.9400  -65.9190  236.7340 C.3   170  ARG170      0.0348
    111  CG        39.1980  -67.0380  235.7340 C.3   170  ARG170      0.0492
    112  CD        40.6250  -67.5580  235.8370 C.3   170  ARG170      0.2205
    113  NE        40.8520  -68.7300  234.9930 N.pl3 170  ARG170     -0.0865
    114  CZ        40.5790  -69.9800  235.3570 C.cat 170  ARG170      0.5346
    115  NH1       40.8220  -70.9840  234.5250 N.pl3 170  ARG170      0.1354
    116  NH2       40.0550  -70.2270  236.5490 N.pl3 170  ARG170      0.1354
    117  N         37.0490  -63.3520  238.0170 N.am  171  PHE171     -0.1960
    118  CA        36.7610  -62.5500  239.2050 C.3   171  PHE171      0.1771
    119  C         35.3050  -62.0960  239.1250 C.2   171  PHE171      0.2619
    120  O         35.0020  -60.9640  238.7450 O.2   171  PHE171     -0.2715
    121  CB        37.7250  -61.3630  239.3030 C.3   171  PHE171      0.0574
    122  CG        37.7640  -60.7160  240.6600 C.ar  171  PHE171     -0.0200
    123  CD1       37.8610  -61.4850  241.8100 C.ar  171  PHE171     -0.0042
    124  CD2       37.7280  -59.3370  240.7850 C.ar  171  PHE171     -0.0042
    125  CE1       37.9050  -60.8890  243.0590 C.ar  171  PHE171     -0.0003
    126  CE2       37.7730  -58.7360  242.0290 C.ar  171  PHE171     -0.0003
    127  CZ        37.8630  -59.5130  243.1680 C.ar  171  PHE171     -0.0000
    128  N         34.3960  -63.0000  239.4880 N.am  172  MET172     -0.1977
    129  CA        32.9680  -62.7150  239.4100 C.3   172  MET172      0.1605
    130  C         32.4530  -62.0520  240.6810 C.2   172  MET172      0.2287
    131  O         33.1440  -61.2230  241.2820 O.2   172  MET172     -0.2864
    132  CB        32.1850  -63.9980  239.1270 C.3   172  MET172      0.0413
    133  CG        32.4630  -64.5810  237.7580 C.3   172  MET172      0.0598
    134  SD        32.1160  -63.3790  236.4620 S.3   172  MET172     -0.1393
    135  CE        30.5870  -62.6630  237.0630 C.3   172  MET172      0.0692
    136  N         37.5950  -65.1500  243.2500 N.3   182  LYS182     -0.1245
    137  CA        38.2810  -65.7560  242.1180 C.3   182  LYS182      0.1561
    138  C         37.8400  -67.2030  241.9350 C.2   182  LYS182      0.2260
    139  O         37.6320  -67.9350  242.9060 O.2   182  LYS182     -0.2867
    140  CB        39.7970  -65.6920  242.3130 C.3   182  LYS182      0.0271
    141  CG        40.5850  -66.4190  241.2340 C.3   182  LYS182      0.0035
    142  CD        42.0780  -66.1660  241.3540 C.3   182  LYS182      0.0206
    143  CE        42.8660  -67.1250  240.4760 C.3   182  LYS182      0.1093
    144  NZ        44.3360  -66.9820  240.6620 N.3   182  LYS182     -0.1314
    145  N         47.7250  -65.6860  237.2180 N.3   218  HIS218     -0.1241
    146  CA        47.6460  -65.1310  238.5620 C.3   218  HIS218      0.1621
    147  C         47.2810  -66.2540  239.5210 C.2   218  HIS218      0.2264
    148  O         46.5190  -67.1580  239.1700 O.2   218  HIS218     -0.2867
    149  CB        46.6120  -64.0020  238.6470 C.3   218  HIS218      0.0745
    150  CG        46.1390  -63.7220  240.0410 C.ar  218  HIS218      0.0817
    151  ND1       44.8930  -64.0970  240.4950 N.ar  218  HIS218     -0.2268
    152  CD2       46.7440  -63.0980  241.0790 C.ar  218  HIS218      0.1154
    153  CE1       44.7520  -63.7180  241.7530 C.ar  218  HIS218      0.1986
    154  NE2       45.8600  -63.1080  242.1300 N.ar  218  HIS218     -0.2212
    155  N         41.5770  -64.5590  245.9040 N.3   222  ASN222     -0.1225
    156  CA        40.8210  -63.3260  245.7170 C.3   222  ASN222      0.1785
    157  C         41.6720  -62.0640  245.8590 C.2   222  ASN222      0.2597
    158  O         41.1750  -60.9780  245.5560 O.2   222  ASN222     -0.2718
    159  CB        39.6230  -63.2060  246.6810 C.3   222  ASN222      0.1169
    160  CG        38.7160  -64.4170  246.6440 C.2   222  ASN222      0.2627
    161  OD1       39.0270  -65.4240  246.0060 O.2   222  ASN222     -0.2716
    162  ND2       37.5890  -64.3290  247.3380 N.am  222  ASN222     -0.0877
    163  N         42.9270  -62.1530  246.2990 N.am  223  HIS223     -0.1975
    164  CA        43.7160  -60.9640  246.5980 C.3   223  HIS223      0.1656
    165  C         44.8220  -60.7100  245.5810 C.2   223  HIS223      0.2291
    166  O         44.8520  -59.6410  244.9650 O.2   223  HIS223     -0.2864
    167  CB        44.3080  -61.0720  248.0060 C.3   223  HIS223      0.0771
    168  CG        43.2860  -60.9990  249.0950 C.ar  223  HIS223      0.0820
    169  ND1       42.0330  -61.5610  248.9820 N.ar  223  HIS223     -0.2267
    170  CD2       43.3380  -60.4410  250.3270 C.ar  223  HIS223      0.1154
    171  CE1       41.3540  -61.3460  250.0940 C.ar  223  HIS223      0.1986
    172  NE2       42.1220  -60.6680  250.9260 N.ar  223  HIS223     -0.2212
    173  N         51.9800  -61.7620  239.7510 N.3   227  TYR227     -0.1241
    174  CA        51.4230  -61.5620  238.4200 C.3   227  TYR227      0.1605
    175  C         52.5400  -61.8260  237.4170 C.2   227  TYR227      0.2264
    176  O         53.4540  -61.0090  237.2640 O.2   227  TYR227     -0.2867
    177  CB        50.8540  -60.1530  238.2720 C.3   227  TYR227      0.0534
    178  CG        49.6170  -59.9120  239.1030 C.ar  227  TYR227     -0.0201
    179  CD1       49.7180  -59.5220  240.4290 C.ar  227  TYR227     -0.0009
    180  CD2       48.3480  -60.0830  238.5650 C.ar  227  TYR227     -0.0009
    181  CE1       48.5920  -59.3050  241.1970 C.ar  227  TYR227      0.0417
    182  CE2       47.2140  -59.8670  239.3260 C.ar  227  TYR227      0.0417
    183  CZ        47.3430  -59.4780  240.6420 C.ar  227  TYR227      0.1957
    184  OH        46.2230  -59.2600  241.4120 O.3   227  TYR227     -0.2866
    185  N         46.1090  -69.9230  237.6250 N.3   266  ASN266     -0.1240
    186  CA        45.4040  -70.0080  236.3550 C.3   266  ASN266      0.1653
    187  C         45.4980  -68.6780  235.6210 C.2   266  ASN266      0.2266
    188  O         45.6410  -67.6170  236.2350 O.2   266  ASN266     -0.2867
    189  CB        43.9340  -70.4010  236.5500 C.3   266  ASN266      0.1155
    190  CG        43.2680  -69.6220  237.6660 C.2   266  ASN266      0.2627
    191  OD1       43.0850  -68.4060  237.5740 O.2   266  ASN266     -0.2716
    192  ND2       42.9030  -70.3230  238.7340 N.am  266  ASN266     -0.0877
    193  N         44.3100  -65.4690  233.2380 N.3   268  TYR268     -0.1241
    194  CA        43.1690  -64.5660  233.2250 C.3   268  TYR268      0.1605
    195  C         43.0400  -63.7500  231.9460 C.2   268  TYR268      0.2264
    196  O         42.0180  -63.0760  231.7740 O.2   268  TYR268     -0.2867
    197  CB        43.2320  -63.5980  234.4160 C.3   268  TYR268      0.0534
    198  CG        44.4730  -62.7340  234.4290 C.ar  268  TYR268     -0.0201
    199  CD1       44.4600  -61.4580  233.8850 C.ar  268  TYR268     -0.0009
    200  CD2       45.6630  -63.2020  234.9670 C.ar  268  TYR268     -0.0009
    201  CE1       45.5950  -60.6660  233.8890 C.ar  268  TYR268      0.0417
    202  CE2       46.8020  -62.4180  234.9770 C.ar  268  TYR268      0.0417
    203  CZ        46.7640  -61.1510  234.4360 C.ar  268  TYR268      0.1957
    204  OH        47.8990  -60.3700  234.4430 O.3   268  TYR268     -0.2866
@<TRIPOS>BOND
     1    72    73    1
     2    75    74    2
     3    88    87    2
     4    79    78    2
     5    81    82    1
     6    74    73    1
     7    80    78   am
     8    89    87   am
     9    73    76    1
    10    78    77    1
    11    87    86    1
    12    76    77    1
    13    66    65    2
    14    97    95    1
    15    82    83    1
    16    82    85    1
    17    84    83    2
    18    67    64    1
    19    67    68    1
    20    86    85    1
    21    83    90   am
    22    64    65    1
    23    64    63    1
    24    68    69    1
    25    95    96    1
    26    95    94    1
    27    90    91    1
    28    63    58   am
    29    69    70    2
    30    69    71   am
    31    91    94    1
    32    91    92    1
    33    59    58    2
    34   104   103    1
    35   104   105    1
    36    58    57    1
    37   196   195    2
    38   195   194    1
    39    62    60    1
    40    61    60    1
    41   103   102    1
    42    98    92   am
    43    98    99    1
    44    92    93    2
    45    60    57    1
    46    57    56    1
    47   194   193    1
    48   194   197    1
    49   102    99    1
    50    99   100    1
    51   199   201   ar
    52   199   198   ar
    53   201   203   ar
    54    56    50   am
    55    51    50    2
    56    10     9    2
    57    50    49    1
    58    52    53    1
    59    52    49    1
    60   197   198    1
    61   198   200   ar
    62   203   204    1
    63   203   202   ar
    64   115   114    1
    65    55    53   ar
    66   100   101    2
    67   100   106   am
    68   200   202   ar
    69   113   114    2
    70   113   112    1
    71    13    15   ar
    72    13    12   ar
    73    53    54   ar
    74    49    48    1
    75     9     8    1
    76   114   116    1
    77    15    17   ar
    78    11    12    1
    79    11     8    1
    80   106   107    1
    81   187   188    2
    82   187   186    1
    83   111   112    1
    84   111   110    1
    85    12    14   ar
    86    48    40   am
    87     8     7    1
    88   186   189    1
    89   186   185    1
    90   134   135    1
    91   134   133    1
    92    17    18    1
    93    17    16   ar
    94   189   190    1
    95   110   107    1
    96   107   108    1
    97    14    16   ar
    98    40    41    2
    99    40    39    1
   100    42    43    1
   101    42    39    1
   102   145   146    1
   103    45    43   ar
   104    45    47   ar
   105   176   175    2
   106    43    44   ar
   107    27    29   ar
   108    27    25   ar
   109   175   174    1
   110     7     3   am
   111   191   190    2
   112    47    46   ar
   113   190   192   am
   114    39    38    1
   115   133   132    1
   116    44    46   ar
   117   117   108   am
   118   117   118    1
   119    29    28   ar
   120   108   109    2
   121     4     3    2
   122    25    24   ar
   123   177   174    1
   124   177   178    1
   125     3     2    1
   126   174   173    1
   127   146   149    1
   128   146   147    1
   129   180   178   ar
   130   180   182   ar
   131   149   150    1
   132   120   119    2
   133   178   179   ar
   134   119   118    1
   135   119   128   am
   136   132   129    1
   137   148   147    2
   138   118   121    1
   139   121   122    1
   140   182   183   ar
   141    28    26   ar
   142   129   128    1
   143   129   130    1
   144    24    26   ar
   145    24    23    1
   146     2     5    1
   147     2     1    1
   148    22    21    2
   149   150   151   ar
   150   150   152   ar
   151     5     6    1
   152    23    20    1
   153   179   181   ar
   154    20    21    1
   155    20    19    1
   156   143   144    1
   157   143   142    1
   158   151   153   ar
   159   183   181   ar
   160   183   184    1
   161   122   124   ar
   162   122   123   ar
   163   130   131    2
   164   124   126   ar
   165    21    30   am
   166   152   154   ar
   167   141   142    1
   168   141   140    1
   169   153   154   ar
   170   123   125   ar
   171   138   137    1
   172   138   139    2
   173   126   127   ar
   174   137   140    1
   175   137   136    1
   176    30    31    1
   177    32    33    2
   178    32    31    1
   179    31    34    1
   180   125   127   ar
   181    36    35    1
   182    36    37    1
   183    34    35    1
   184   166   165    2
   185   158   157    2
   186   165   164    1
   187   156   157    1
   188   156   155    1
   189   156   159    1
   190   157   163   am
   191   161   160    2
   192   163   164    1
   193   164   167    1
   194   160   159    1
   195   160   162   am
   196   167   168    1
   197   169   168   ar
   198   169   171   ar
   199   168   170   ar
   200   171   172   ar
   201   170   172   ar
