@<TRIPOS>MOLECULE
tmp/5vslA00.pdb
 199 193 0 0 0
SMALL
GASTEIGER

@<TRIPOS>ATOM
      1  N         21.3140   29.0670   36.0620 N.3     8  HIS8       -0.1241
      2  CA        20.4890   28.6040   34.9430 C.3     8  HIS8        0.1621
      3  C         21.0960   27.3060   34.4230 C.2     8  HIS8        0.2264
      4  O         21.8350   27.2710   33.4340 O.2     8  HIS8       -0.2867
      5  CB        20.4080   29.6680   33.8500 C.3     8  HIS8        0.0745
      6  CG        19.6730   30.9060   34.2680 C.ar    8  HIS8        0.0817
      7  ND1       18.4630   31.2740   33.7200 N.ar    8  HIS8       -0.2268
      8  CD2       19.9710   31.8540   35.1880 C.ar    8  HIS8        0.1154
      9  CE1       18.0480   32.3960   34.2830 C.ar    8  HIS8        0.1986
     10  NE2       18.9480   32.7710   35.1730 N.ar    8  HIS8       -0.2212
     11  N         13.2190   23.9140   27.6600 N.3    13  CYS13      -0.1235
     12  CA        11.9490   24.3570   28.2160 C.3    13  CYS13       0.1677
     13  C         10.8020   23.7900   27.3920 C.2    13  CYS13       0.2270
     14  O         10.9650   23.4700   26.2160 O.2    13  CYS13      -0.2867
     15  CB        11.8590   25.8820   28.2670 C.3    13  CYS13       0.0956
     16  SG        10.3890   26.4110   29.1390 S.3    13  CYS13      -0.0801
     17  N          9.2340   36.4220   24.4320 N.3    19  PHE19      -0.1227
     18  CA        10.2590   37.3450   24.9150 C.3    19  PHE19       0.1736
     19  C         11.3980   36.6520   25.6600 C.2    19  PHE19       0.2596
     20  O         12.3160   37.3360   26.1250 O.2    19  PHE19      -0.2718
     21  CB         9.6330   38.4060   25.8340 C.3    19  PHE19       0.0547
     22  CG         8.8320   37.8170   26.9810 C.ar   19  PHE19      -0.0202
     23  CD1        9.4560   37.1470   28.0190 C.ar   19  PHE19      -0.0042
     24  CD2        7.4490   37.9270   27.0040 C.ar   19  PHE19      -0.0042
     25  CE1        8.7230   36.5940   29.0600 C.ar   19  PHE19      -0.0003
     26  CE2        6.7140   37.3940   28.0360 C.ar   19  PHE19      -0.0003
     27  CZ         7.3520   36.7190   29.0680 C.ar   19  PHE19      -0.0000
     28  N         11.3540   35.3270   25.7930 N.am   20  CYS20      -0.1956
     29  CA        12.3090   34.5800   26.6040 C.3    20  CYS20       0.1843
     30  C         13.7390   35.0610   26.3930 C.2    20  CYS20       0.2625
     31  O         14.2380   35.0750   25.2660 O.2    20  CYS20      -0.2714
     32  CB        12.2100   33.0950   26.2660 C.3    20  CYS20       0.0997
     33  SG        13.4350   32.1500   27.1480 S.3    20  CYS20      -0.0797
     34  N         14.4000   35.4930   27.4710 N.am   21  PHE21      -0.1960
     35  CA        15.7530   36.0310   27.3530 C.3    21  PHE21       0.1771
     36  C         16.8330   35.0160   27.7300 C.2    21  PHE21       0.2619
     37  O         18.0070   35.3790   27.8320 O.2    21  PHE21      -0.2715
     38  CB        15.8870   37.3240   28.1730 C.3    21  PHE21       0.0574
     39  CG        15.9620   37.1290   29.6800 C.ar   21  PHE21      -0.0200
     40  CD1       16.3750   38.1780   30.4870 C.ar   21  PHE21      -0.0042
     41  CD2       15.6260   35.9250   30.2860 C.ar   21  PHE21      -0.0042
     42  CE1       16.4540   38.0220   31.8700 C.ar   21  PHE21      -0.0003
     43  CE2       15.7120   35.7530   31.6550 C.ar   21  PHE21      -0.0003
     44  CZ        16.1280   36.8080   32.4480 C.ar   21  PHE21      -0.0000
     45  N         16.4680   33.7480   27.9250 N.am   22  HIS22      -0.1973
     46  CA        17.4550   32.6940   28.1980 C.3    22  HIS22       0.1656
     47  C         17.0270   31.4440   27.4250 C.2    22  HIS22       0.2291
     48  O         16.4360   30.5230   27.9910 O.2    22  HIS22      -0.2864
     49  CB        17.6020   32.4100   29.6920 C.3    22  HIS22       0.0771
     50  CG        18.8960   31.7400   30.0230 C.ar   22  HIS22       0.0820
     51  ND1       20.0970   32.4190   30.0550 N.ar   22  HIS22      -0.2267
     52  CD2       19.1920   30.4420   30.2530 C.ar   22  HIS22       0.1154
     53  CE1       21.0720   31.5710   30.3180 C.ar   22  HIS22       0.1986
     54  NE2       20.5480   30.3650   30.4500 N.ar   22  HIS22      -0.2212
     55  N         17.2750   28.1600   38.0070 N.3    53  SER53      -0.1202
     56  CA        16.4790   28.7280   36.9290 C.3    53  SER53       0.2020
     57  C         16.8750   28.0410   35.6240 C.2    53  SER53       0.2619
     58  O         17.5520   27.0100   35.6260 O.2    53  SER53      -0.2717
     59  CB        16.6690   30.2540   36.8760 C.3    53  SER53       0.2103
     60  OG        15.6780   30.8750   36.0670 O.3    53  SER53      -0.2182
     61  N         16.4410   28.6140   34.4990 N.am   54  GLY54      -0.1942
     62  CA        16.7610   28.0510   33.1990 C.3    54  GLY54       0.2014
     63  C         16.3280   28.9430   32.0440 C.2    54  GLY54       0.2639
     64  O         16.5490   30.1560   32.1040 O.2    54  GLY54      -0.2714
     65  N         15.6870   28.3860   31.0100 N.am   55  GLY55      -0.1939
     66  CA        15.2610   26.9970   30.9700 C.3    55  GLY55       0.2014
     67  C         14.1200   26.7140   31.9440 C.2    55  GLY55       0.2639
     68  O         13.7670   27.5730   32.7440 O.2    55  GLY55      -0.2714
     69  N         13.5500   25.5140   31.8990 N.am   56  GLU56      -0.1963
     70  CA        12.5570   25.1280   32.8950 C.3    56  GLU56       0.1718
     71  C         13.1870   24.1370   33.8700 C.2    56  GLU56       0.2458
     72  O         13.4850   22.9890   33.4830 O.2    56  GLU56      -0.2730
     73  CB        11.3160   24.5250   32.2430 C.3    56  GLU56       0.0428
     74  CG        10.3300   23.9260   33.2400 C.3    56  GLU56       0.1163
     75  CD        10.0580   24.8400   34.4330 C.2    56  GLU56       0.3649
     76  OE1        9.8150   26.0580   34.2400 O.co2  56  GLU56      -0.2457
     77  OE2       10.0890   24.3340   35.5740 O.co2  56  GLU56      -0.2457
     78  N         13.4170   24.5350   35.1210 N.am   57  PRO57      -0.2727
     79  CA        14.1580   23.6690   36.0570 C.3    57  PRO57       0.1402
     80  C         13.5360   22.3060   36.2920 C.2    57  PRO57       0.2269
     81  O         14.2750   21.3410   36.5390 O.2    57  PRO57      -0.2865
     82  CB        14.1780   24.5100   37.3380 C.3    57  PRO57       0.0296
     83  CG        14.1520   25.9050   36.8300 C.3    57  PRO57       0.0237
     84  CD        13.1930   25.8740   35.6870 C.3    57  PRO57       0.0939
     85  N         12.9180   29.2030   40.3310 N.3    85  VAL85      -0.1231
     86  CA        11.9950   29.9450   39.4710 C.3    85  VAL85       0.1692
     87  C         11.4940   28.9810   38.4030 C.2    85  VAL85       0.2593
     88  O         12.2980   28.3940   37.6800 O.2    85  VAL85      -0.2718
     89  CB        12.6730   31.1660   38.8120 C.3    85  VAL85       0.0266
     90  CG1       11.6400   32.0100   38.0560 C.3    85  VAL85       0.0020
     91  CG2       13.4070   32.0210   39.8330 C.3    85  VAL85       0.0020
     92  N         10.1810   28.8420   38.2780 N.am   86  SER86      -0.1938
     93  CA         9.6100   27.8200   37.4060 C.3    86  SER86       0.2055
     94  C          8.3920   28.3760   36.6810 C.2    86  SER86       0.2643
     95  O          7.6920   29.2390   37.2150 O.2    86  SER86      -0.2714
     96  CB         9.2050   26.5740   38.2280 C.3    86  SER86       0.2130
     97  OG         8.5920   25.5800   37.4150 O.3    86  SER86      -0.2179
     98  N          8.1170   27.8570   35.4640 N.am   87  ASN87      -0.1971
     99  CA         6.8200   28.1530   34.8610 C.3    87  ASN87       0.1688
    100  C          5.6930   27.3430   35.5050 C.2    87  ASN87       0.2292
    101  O          4.5210   27.5860   35.2050 O.2    87  ASN87      -0.2864
    102  CB         6.8440   27.9570   33.3180 C.3    87  ASN87       0.1181
    103  CG         6.9780   26.4940   32.8750 C.2    87  ASN87       0.2629
    104  OD1        6.5300   25.5660   33.5440 O.2    87  ASN87      -0.2716
    105  ND2        7.5910   26.2940   31.7080 N.am   87  ASN87      -0.0877
    106  N          6.4200   31.8800   37.4900 N.3   109  SER109     -0.1217
    107  CA         6.2460   32.9480   36.5070 C.3   109  SER109      0.1889
    108  C          4.7910   33.0240   36.0840 C.2   109  SER109      0.2288
    109  O          4.2220   32.0360   35.6100 O.2   109  SER109     -0.2866
    110  CB         7.1420   32.7240   35.2940 C.3   109  SER109      0.2089
    111  OG         8.4890   32.8030   35.7130 O.3   109  SER109     -0.2183
    112  N          2.9660   31.6640   26.8790 N.3   123  ARG123     -0.1245
    113  CA         3.1280   31.1340   28.2340 C.3   123  ARG123      0.1563
    114  C          2.0990   30.0250   28.4210 C.2   123  ARG123      0.2260
    115  O          1.0340   30.2060   29.0150 O.2   123  ARG123     -0.2867
    116  CB         2.9810   32.2560   29.2570 C.3   123  ARG123      0.0307
    117  CG         3.1550   31.8330   30.7030 C.3   123  ARG123      0.0489
    118  CD         4.6090   31.6170   31.0690 C.3   123  ARG123      0.2205
    119  NE         5.3260   32.8680   31.2840 N.pl3 123  ARG123     -0.0865
    120  CZ         6.5540   32.9200   31.7760 C.cat 123  ARG123      0.5346
    121  NH1        7.1590   31.7940   32.0900 N.pl3 123  ARG123      0.1354
    122  NH2        7.1790   34.0790   31.9480 N.pl3 123  ARG123      0.1354
    123  N          6.7100   35.7730   39.8220 N.3   151  ASN151     -0.1240
    124  CA         7.5310   36.5430   38.8930 C.3   151  ASN151      0.1653
    125  C          6.6550   36.9350   37.7030 C.2   151  ASN151      0.2266
    126  O          5.9460   36.0870   37.1550 O.2   151  ASN151     -0.2867
    127  CB         8.7340   35.7200   38.3920 C.3   151  ASN151      0.1155
    128  CG         9.9090   35.6550   39.3830 C.2   151  ASN151      0.2627
    129  OD1        9.8090   36.0130   40.5570 O.2   151  ASN151     -0.2716
    130  ND2       11.0550   35.2380   38.8690 N.am  151  ASN151     -0.0877
    131  N          6.9120   39.2730   33.9720 N.3   153  VAL153     -0.1245
    132  CA         7.6250   40.0720   32.9810 C.3   153  VAL153      0.1561
    133  C          6.6420   41.0820   32.4120 C.2   153  VAL153      0.2260
    134  O          5.6360   40.7050   31.7990 O.2   153  VAL153     -0.2867
    135  CB         8.2160   39.1920   31.8680 C.3   153  VAL153      0.0252
    136  CG1        8.8920   40.0640   30.8000 C.3   153  VAL153      0.0019
    137  CG2        9.2230   38.2080   32.4690 C.3   153  VAL153      0.0019
    138  N          9.5000   42.3260   36.5100 N.3   178  PHE178     -0.1227
    139  CA        10.6440   42.5700   35.6410 C.3   178  PHE178      0.1736
    140  C         10.1940   43.3350   34.4050 C.2   178  PHE178      0.2595
    141  O          9.2590   42.9090   33.7210 O.2   178  PHE178     -0.2718
    142  CB        11.2890   41.2570   35.1900 C.3   178  PHE178      0.0547
    143  CG        11.7940   40.3770   36.3220 C.ar  178  PHE178     -0.0202
    144  CD1       13.1350   40.3670   36.6630 C.ar  178  PHE178     -0.0042
    145  CD2       10.9320   39.5410   37.0050 C.ar  178  PHE178     -0.0042
    146  CE1       13.6100   39.5420   37.6930 C.ar  178  PHE178     -0.0003
    147  CE2       11.4000   38.7190   38.0370 C.ar  178  PHE178     -0.0003
    148  CZ        12.7370   38.7200   38.3710 C.ar  178  PHE178     -0.0000
    149  N         10.8680   44.4410   34.1070 N.am  179  GLN179     -0.1965
    150  CA        10.6960   45.0590   32.7970 C.3   179  GLN179      0.1733
    151  C         11.2680   44.1260   31.7350 C.2   179  GLN179      0.2616
    152  O         12.3750   43.6090   31.8930 O.2   179  GLN179     -0.2715
    153  CB        11.3940   46.4130   32.7480 C.3   179  GLN179      0.0408
    154  CG        11.1930   47.2030   31.4480 C.3   179  GLN179      0.0908
    155  CD        11.9950   48.4910   31.4570 C.2   179  GLN179      0.2608
    156  OE1       12.8180   48.7010   32.3390 O.2   179  GLN179     -0.2717
    157  NE2       11.7550   49.3550   30.4800 N.am  179  GLN179     -0.0878
    158  N         10.5060   43.8790   30.6720 N.am  180  CYS180     -0.1954
    159  CA        11.0060   43.0380   29.5820 C.3   180  CYS180      0.1843
    160  C         12.4030   43.4860   29.1440 C.2   180  CYS180      0.2625
    161  O         12.6240   44.6590   28.8360 O.2   180  CYS180     -0.2714
    162  CB        10.0380   43.0810   28.3940 C.3   180  CYS180      0.0997
    163  SG        10.4030   41.7920   27.1540 S.3   180  CYS180     -0.0797
    164  N         13.3520   42.5480   29.1410 N.am  181  LEU181     -0.1977
    165  CA        14.7590   42.8410   28.8840 C.3   181  LEU181      0.1596
    166  C         15.2030   42.2410   27.5500 C.2   181  LEU181      0.2287
    167  O         14.9590   41.0610   27.2790 O.2   181  LEU181     -0.2864
    168  CB        15.6360   42.3020   30.0210 C.3   181  LEU181      0.0297
    169  CG        17.1300   42.6420   30.0310 C.3   181  LEU181      0.0022
    170  CD1       17.3410   44.1260   30.1650 C.3   181  LEU181      0.0001
    171  CD2       17.8140   41.9240   31.1840 C.3   181  LEU181      0.0001
    172  N         17.3090   36.9660   22.8150 N.3   187  ASN187     -0.1240
    173  CA        16.0140   37.3070   22.2390 C.3   187  ASN187      0.1653
    174  C         16.1350   38.4960   21.2950 C.2   187  ASN187      0.2266
    175  O         15.2080   39.2840   21.1610 O.2   187  ASN187     -0.2867
    176  CB        14.9840   37.5930   23.3260 C.3   187  ASN187      0.1155
    177  CG        15.4540   38.6570   24.2900 C.2   187  ASN187      0.2627
    178  OD1       16.4870   39.2900   24.0680 O.2   187  ASN187     -0.2716
    179  ND2       14.7110   38.8540   25.3710 N.am  187  ASN187     -0.0877
    180  N         18.4860   44.9270   36.4060 N.3   227  MET227     -0.1245
    181  CA        18.9230   43.6120   35.9450 C.3   227  MET227      0.1570
    182  C         20.3330   43.6620   35.3640 C.2   227  MET227      0.2261
    183  O         21.1400   42.7570   35.5980 O.2   227  MET227     -0.2867
    184  CB        17.9360   43.0680   34.9130 C.3   227  MET227      0.0387
    185  CG        16.5900   42.7130   35.5080 C.3   227  MET227      0.0595
    186  SD        16.7300   41.2520   36.5760 S.3   227  MET227     -0.1393
    187  CE        16.8200   39.9960   35.2860 C.3   227  MET227      0.0692
    188  N         21.9030   41.3760   38.1710 N.3   231  TYR231     -0.1241
    189  CA        21.4580   40.0180   37.8930 C.3   231  TYR231      0.1605
    190  C         22.6240   39.2610   37.2630 C.2   231  TYR231      0.2264
    191  O         22.9740   39.4940   36.1050 O.2   231  TYR231     -0.2867
    192  CB        20.2220   40.0070   36.9950 C.3   231  TYR231      0.0534
    193  CG        19.5530   38.6480   36.9430 C.ar  231  TYR231     -0.0201
    194  CD1       18.5570   38.3050   37.8500 C.ar  231  TYR231     -0.0009
    195  CD2       19.9440   37.6970   36.0140 C.ar  231  TYR231     -0.0009
    196  CE1       17.9590   37.0580   37.8150 C.ar  231  TYR231      0.0417
    197  CE2       19.3560   36.4510   35.9750 C.ar  231  TYR231      0.0417
    198  CZ        18.3640   36.1330   36.8760 C.ar  231  TYR231      0.1957
    199  OH        17.7820   34.8850   36.8170 O.3   231  TYR231     -0.2866
@<TRIPOS>BOND
     1   175   174    2
     2   174   173    1
     3   173   172    1
     4   173   176    1
     5   176   177    1
     6   178   177    2
     7   177   179   am
     8    17    18    1
     9    18    19    1
    10    18    21    1
    11    31    30    2
    12    19    28   am
    13    19    20    2
    14    28    29    1
    15    21    22    1
    16    14    13    2
    17    32    29    1
    18    32    33    1
    19    30    29    1
    20    30    34   am
    21   112   113    1
    22    22    24   ar
    23    22    23   ar
    24    24    26   ar
    25   163   162    1
    26   167   166    2
    27    35    34    1
    28    35    36    1
    29    35    38    1
    30    13    12    1
    31    47    48    2
    32    47    46    1
    33   166   165    1
    34    11    12    1
    35    36    37    2
    36    36    45   am
    37    45    46    1
    38    23    25   ar
    39    26    27   ar
    40    38    39    1
    41    46    49    1
    42    12    15    1
    43   113   114    1
    44   113   116    1
    45    15    16    1
    46   162   159    1
    47   114   115    2
    48   161   160    2
    49   165   164    1
    50   165   168    1
    51    25    27   ar
    52   164   160   am
    53   160   159    1
    54   116   117    1
    55   159   158    1
    56    39    41   ar
    57    39    40   ar
    58    49    50    1
    59   168   169    1
    60    50    51   ar
    61    50    52   ar
    62   169   170    1
    63   169   171    1
    64    51    53   ar
    65    52    54   ar
    66    41    43   ar
    67    53    54   ar
    68   157   155   am
    69    40    42   ar
    70   158   151   am
    71   117   118    1
    72   136   135    1
    73    66    65    1
    74    66    67    1
    75    65    63   am
    76   118   119    1
    77   119   120    2
    78   154   155    1
    79   154   153    1
    80   155   156    2
    81    43    44   ar
    82   105   103   am
    83   151   152    2
    84   151   150    1
    85   120   122    1
    86   120   121    1
    87   134   133    2
    88   135   137    1
    89   135   132    1
    90    42    44   ar
    91    69    67   am
    92    69    70    1
    93    67    68    2
    94    63    64    2
    95    63    62    1
    96    73    70    1
    97    73    74    1
    98   133   132    1
    99   153   150    1
   100   150   149    1
   101   103   102    1
   102   103   104    2
   103    70    71    1
   104   132   131    1
   105    62    61    1
   106    74    75    1
   107   102    99    1
   108     4     3    2
   109    72    71    2
   110     7     6   ar
   111     7     9   ar
   112   141   140    2
   113     5     6    1
   114     5     2    1
   115    71    78   am
   116   149   140   am
   117    76    75   ar
   118     6     8   ar
   119     9    10   ar
   120   140   139    1
   121     3     2    1
   122    75    77   ar
   123    61    57   am
   124    99    98    1
   125    99   100    1
   126   184   185    1
   127   184   181    1
   128     2     1    1
   129    78    84    1
   130    78    79    1
   131    10     8   ar
   132   142   139    1
   133   142   143    1
   134   101   100    2
   135   187   186    1
   136   110   111    1
   137   110   107    1
   138   182   183    2
   139   182   181    1
   140    98    94   am
   141   185   186    1
   142   109   108    2
   143    57    58    2
   144    57    56    1
   145   139   138    1
   146    84    83    1
   147   181   180    1
   148   197   195   ar
   149   197   198   ar
   150   195   193   ar
   151    79    80    1
   152    79    82    1
   153    60    59    1
   154   108   107    1
   155   191   190    2
   156    80    81    2
   157   143   144   ar
   158   143   145   ar
   159   107   106    1
   160   144   146   ar
   161    94    95    2
   162    94    93    1
   163   199   198    1
   164    83    82    1
   165   198   196   ar
   166    59    56    1
   167    56    55    1
   168   193   192    1
   169   193   194   ar
   170   192   189    1
   171   145   147   ar
   172   126   125    2
   173   190   189    1
   174    93    96    1
   175    93    92    1
   176    97    96    1
   177    88    87    2
   178   146   148   ar
   179   125   124    1
   180   196   194   ar
   181   189   188    1
   182   147   148   ar
   183    90    89    1
   184    92    87   am
   185   127   124    1
   186   127   128    1
   187    87    86    1
   188    89    86    1
   189    89    91    1
   190   130   128   am
   191   124   123    1
   192   128   129    2
   193    86    85    1
