@<TRIPOS>MOLECULE
tmp/5vsmA01.pdb
 104 100 0 0 0
SMALL
GASTEIGER

@<TRIPOS>ATOM
      1  N         21.4030   28.7270   35.9680 N.3     6  HIS6       -0.1241
      2  CA        20.5730   28.2940   34.8400 C.3     6  HIS6        0.1621
      3  C         21.1510   26.9780   34.3250 C.2     6  HIS6        0.2264
      4  O         21.8920   26.9210   33.3440 O.2     6  HIS6       -0.2867
      5  CB        20.5210   29.3710   33.7610 C.3     6  HIS6        0.0745
      6  CG        19.8570   30.6400   34.2100 C.ar    6  HIS6        0.0817
      7  ND1       18.6460   31.0680   33.7110 N.ar    6  HIS6       -0.2268
      8  CD2       20.2270   31.5600   35.1330 C.ar    6  HIS6        0.1154
      9  CE1       18.3030   32.2020   34.2970 C.ar    6  HIS6        0.1986
     10  NE2       19.2470   32.5240   35.1640 N.ar    6  HIS6       -0.2212
     11  N         13.0760   23.7200   27.7060 N.3    11  CYS11      -0.1235
     12  CA        11.8330   24.2000   28.2920 C.3    11  CYS11       0.1677
     13  C         10.6550   23.6730   27.4920 C.2    11  CYS11       0.2270
     14  O         10.7770   23.3950   26.2940 O.2    11  CYS11      -0.2867
     15  CB        11.7740   25.7290   28.3340 C.3    11  CYS11       0.0956
     16  SG        10.3160   26.2910   29.2350 S.3    11  CYS11      -0.0801
     17  N         11.3460   35.1480   25.7960 N.3    18  CYS18      -0.1221
     18  CA        12.2800   34.3810   26.6330 C.3    18  CYS18       0.1808
     19  C         13.7290   34.8280   26.4410 C.2    18  CYS18       0.2601
     20  O         14.2400   34.8280   25.3170 O.2    18  CYS18      -0.2717
     21  CB        12.1580   32.8940   26.3030 C.3    18  CYS18       0.0970
     22  SG        13.3650   31.8950   27.2420 S.3    18  CYS18      -0.0800
     23  N         14.4060   35.2280   27.5330 N.am   19  PHE19      -0.1962
     24  CA        15.7680   35.7220   27.3810 C.3    19  PHE19       0.1771
     25  C         16.8420   34.7130   27.7880 C.2    19  PHE19       0.2619
     26  O         18.0180   35.0800   27.8480 O.2    19  PHE19      -0.2715
     27  CB        15.9670   37.0650   28.1080 C.3    19  PHE19       0.0574
     28  CG        15.8780   37.0190   29.6230 C.ar   19  PHE19      -0.0200
     29  CD1       16.1210   38.1830   30.3440 C.ar   19  PHE19      -0.0042
     30  CD2       15.5560   35.8660   30.3220 C.ar   19  PHE19      -0.0042
     31  CE1       16.0490   38.1950   31.7330 C.ar   19  PHE19      -0.0003
     32  CE2       15.4820   35.8710   31.7030 C.ar   19  PHE19      -0.0003
     33  CZ        15.7290   37.0400   32.4060 C.ar   19  PHE19      -0.0000
     34  N         16.4790   33.4490   28.0100 N.am   20  HIS20      -0.1973
     35  CA        17.4610   32.3870   28.2580 C.3    20  HIS20       0.1656
     36  C         16.9640   31.1500   27.5170 C.2    20  HIS20       0.2291
     37  O         16.2720   30.3060   28.0930 O.2    20  HIS20      -0.2864
     38  CB        17.6610   32.1190   29.7450 C.3    20  HIS20       0.0771
     39  CG        18.9880   31.5050   30.0480 C.ar   20  HIS20       0.0820
     40  ND1       20.1530   32.2440   30.0880 N.ar   20  HIS20      -0.2267
     41  CD2       19.3460   30.2210   30.2820 C.ar   20  HIS20       0.1154
     42  CE1       21.1720   31.4410   30.3370 C.ar   20  HIS20       0.1986
     43  NE2       20.7100   30.2100   30.4700 N.ar   20  HIS20      -0.2212
     44  N         17.3690   27.9020   38.0550 N.3    51  SER51      -0.1202
     45  CA        16.6370   28.5150   36.9560 C.3    51  SER51       0.2020
     46  C         16.9620   27.7670   35.6630 C.2    51  SER51       0.2619
     47  O         17.5580   26.6880   35.6720 O.2    51  SER51      -0.2717
     48  CB        16.9870   30.0050   36.8460 C.3    51  SER51       0.2103
     49  OG        16.0270   30.6640   36.0370 O.3    51  SER51      -0.2182
     50  N         16.5900   28.3570   34.5350 N.am   52  GLY52      -0.1942
     51  CA        16.8220   27.7190   33.2530 C.3    52  GLY52       0.2014
     52  C         16.4310   28.5950   32.0750 C.2    52  GLY52       0.2639
     53  O         16.7020   29.7970   32.1130 O.2    52  GLY52      -0.2714
     54  N         15.7860   28.0400   31.0390 N.am   53  GLY53      -0.1939
     55  CA        15.2570   26.6800   31.0440 C.3    53  GLY53       0.2014
     56  C         14.1470   26.4370   32.0670 C.2    53  GLY53       0.2638
     57  O         13.9030   27.2570   32.9460 O.2    53  GLY53      -0.2714
     58  N         13.4640   25.3000   31.9670 N.am   54  GLU54      -0.1977
     59  CA        12.4850   24.9440   32.9800 C.3    54  GLU54       0.1602
     60  C         13.1340   23.9650   33.9490 C.2    54  GLU54       0.2287
     61  O         13.4360   22.8310   33.5410 O.2    54  GLU54      -0.2864
     62  CB        11.2460   24.3200   32.3390 C.3    54  GLU54       0.0415
     63  CG        10.2280   23.7950   33.3440 C.3    54  GLU54       0.1163
     64  CD        10.0510   24.7040   34.5420 C.2    54  GLU54       0.3649
     65  OE1        9.8730   25.9250   34.3660 O.co2  54  GLU54      -0.2457
     66  OE2       10.0730   24.1910   35.6850 O.co2  54  GLU54      -0.2457
     67  N         13.0100   29.0410   40.4780 N.3    83  VAL83      -0.1231
     68  CA        12.0580   29.7930   39.6710 C.3    83  VAL83       0.1692
     69  C         11.5860   28.8810   38.5420 C.2    83  VAL83       0.2593
     70  O         12.4050   28.2880   37.8300 O.2    83  VAL83      -0.2718
     71  CB        12.6600   31.1080   39.1310 C.3    83  VAL83       0.0266
     72  CG1       13.9790   30.8580   38.4090 C.3    83  VAL83       0.0020
     73  CG2       11.6700   31.8070   38.2120 C.3    83  VAL83       0.0020
     74  N         10.2720   28.7440   38.4020 N.am   84  SER84      -0.1938
     75  CA         9.7040   27.7410   37.5060 C.3    84  SER84       0.2055
     76  C          8.4740   28.2840   36.7970 C.2    84  SER84       0.2643
     77  O          7.7630   29.1400   37.3340 O.2    84  SER84      -0.2714
     78  CB         9.3460   26.4840   38.3160 C.3    84  SER84       0.2130
     79  OG         8.6040   25.5480   37.5450 O.3    84  SER84      -0.2179
     80  N          8.1760   27.7330   35.6080 N.am   85  ASN85      -0.1971
     81  CA         6.8750   28.0510   35.0430 C.3    85  ASN85       0.1688
     82  C          5.7480   27.2470   35.6790 C.2    85  ASN85       0.2292
     83  O          4.5790   27.5200   35.3900 O.2    85  ASN85      -0.2864
     84  CB         6.8770   27.8860   33.5070 C.3    85  ASN85       0.1181
     85  CG         6.9810   26.4280   33.0180 C.2    85  ASN85       0.2629
     86  OD1        6.5060   25.4820   33.6460 O.2    85  ASN85      -0.2716
     87  ND2        7.5460   26.2720   31.8140 N.am   85  ASN85      -0.0877
     88  N          6.4850   31.8080   37.6450 N.3   107  SER107     -0.1217
     89  CA         6.3830   32.8820   36.6630 C.3   107  SER107      0.1889
     90  C          4.9740   32.9300   36.0860 C.2   107  SER107      0.2288
     91  O          4.4890   31.9430   35.5180 O.2   107  SER107     -0.2866
     92  CB         7.4050   32.6610   35.5560 C.3   107  SER107      0.2089
     93  OG         8.7160   32.8530   36.0600 O.3   107  SER107     -0.2183
     94  N          3.2590   31.6200   27.1880 N.3   121  ARG121     -0.1245
     95  CA         3.4090   31.1260   28.5580 C.3   121  ARG121      0.1563
     96  C          2.3740   30.0170   28.7540 C.2   121  ARG121      0.2260
     97  O          1.3510   30.1630   29.4260 O.2   121  ARG121     -0.2867
     98  CB         3.2450   32.2750   29.5460 C.3   121  ARG121      0.0307
     99  CG         3.4220   31.9090   31.0290 C.3   121  ARG121      0.0489
    100  CD         4.8850   31.7550   31.4200 C.3   121  ARG121      0.2205
    101  NE         5.5530   33.0430   31.5860 N.pl3 121  ARG121     -0.0865
    102  CZ         6.8210   33.1710   31.9730 C.cat 121  ARG121      0.5346
    103  NH1        7.5530   32.0900   32.2040 N.pl3 121  ARG121      0.1354
    104  NH2        7.3620   34.3700   32.1170 N.pl3 121  ARG121      0.1354
@<TRIPOS>BOND
     1    20    19    2
     2    17    18    1
     3    14    13    2
     4    21    18    1
     5    21    22    1
     6    19    18    1
     7    19    23   am
     8    94    95    1
     9    24    23    1
    10    24    25    1
    11    24    27    1
    12    13    12    1
    13    36    37    2
    14    36    35    1
    15    11    12    1
    16    25    26    2
    17    25    34   am
    18    34    35    1
    19    27    28    1
    20    35    38    1
    21    12    15    1
    22    15    16    1
    23    95    96    1
    24    95    98    1
    25    96    97    2
    26    98    99    1
    27    28    30   ar
    28    28    29   ar
    29    38    39    1
    30    39    40   ar
    31    39    41   ar
    32    40    42   ar
    33    41    43   ar
    34    30    32   ar
    35    42    43   ar
    36    29    31   ar
    37    99   100    1
    38    54    55    1
    39    54    52   am
    40    55    56    1
    41   100   101    1
    42   101   102    2
    43    32    33   ar
    44    31    33   ar
    45    87    85   am
    46    58    56   am
    47    58    59    1
    48   102   104    1
    49   102   103    1
    50    56    57    2
    51    52    53    2
    52    52    51    1
    53    62    59    1
    54    62    63    1
    55    59    60    1
    56    85    84    1
    57    85    86    2
    58    51    50    1
    59     4     3    2
    60    63    64    1
    61    84    81    1
    62    61    60    2
    63     7     6   ar
    64     7     9   ar
    65     5     6    1
    66     5     2    1
    67     6     8   ar
    68     9    10   ar
    69     3     2    1
    70    65    64   ar
    71    50    46   am
    72    64    66   ar
    73     2     1    1
    74    81    80    1
    75    81    82    1
    76     8    10   ar
    77    83    82    2
    78    91    90    2
    79    92    93    1
    80    92    89    1
    81    80    76   am
    82    46    47    2
    83    46    45    1
    84    49    48    1
    85    90    89    1
    86    89    88    1
    87    76    77    2
    88    76    75    1
    89    48    45    1
    90    45    44    1
    91    75    78    1
    92    75    74    1
    93    79    78    1
    94    70    69    2
    95    73    71    1
    96    74    69   am
    97    72    71    1
    98    69    68    1
    99    71    68    1
   100    68    67    1
