@<TRIPOS>MOLECULE
tmp/5vsmA00.pdb
 159 150 0 0 0
SMALL
GASTEIGER

@<TRIPOS>ATOM
      1  N         21.4030   28.7270   35.9680 N.3     6  HIS6       -0.1241
      2  CA        20.5730   28.2940   34.8400 C.3     6  HIS6        0.1621
      3  C         21.1510   26.9780   34.3250 C.2     6  HIS6        0.2264
      4  O         21.8920   26.9210   33.3440 O.2     6  HIS6       -0.2867
      5  CB        20.5210   29.3710   33.7610 C.3     6  HIS6        0.0745
      6  CG        19.8570   30.6400   34.2100 C.ar    6  HIS6        0.0817
      7  ND1       18.6460   31.0680   33.7110 N.ar    6  HIS6       -0.2268
      8  CD2       20.2270   31.5600   35.1330 C.ar    6  HIS6        0.1154
      9  CE1       18.3030   32.2020   34.2970 C.ar    6  HIS6        0.1986
     10  NE2       19.2470   32.5240   35.1640 N.ar    6  HIS6       -0.2212
     11  N          7.5510   31.1220   25.5160 N.3    15  CYS15      -0.1235
     12  CA         7.3800   32.5530   25.7630 C.3    15  CYS15       0.1677
     13  C          8.1150   33.3620   24.6990 C.2    15  CYS15       0.2270
     14  O          9.3120   33.1600   24.4720 O.2    15  CYS15      -0.2867
     15  CB         7.8820   32.9080   27.1630 C.3    15  CYS15       0.0956
     16  SG         7.1150   31.9020   28.4770 S.3    15  CYS15      -0.0801
     17  N          9.1880   36.3090   24.5440 N.3    17  PHE17      -0.1227
     18  CA        10.2460   37.1970   25.0060 C.3    17  PHE17       0.1736
     19  C         11.3980   36.4710   25.6950 C.2    17  PHE17       0.2596
     20  O         12.3400   37.1340   26.1330 O.2    17  PHE17      -0.2718
     21  CB         9.6770   38.2320   25.9800 C.3    17  PHE17       0.0547
     22  CG         8.8240   37.6390   27.0570 C.ar   17  PHE17      -0.0202
     23  CD1        9.3920   36.8630   28.0770 C.ar   17  PHE17      -0.0042
     24  CD2        7.4560   37.8750   27.0790 C.ar   17  PHE17      -0.0042
     25  CE1        8.5970   36.3040   29.0800 C.ar   17  PHE17      -0.0003
     26  CE2        6.6630   37.3280   28.0790 C.ar   17  PHE17      -0.0003
     27  CZ         7.2360   36.5440   29.0800 C.ar   17  PHE17      -0.0000
     28  N         11.3460   35.1480   25.7960 N.am   18  CYS18      -0.1956
     29  CA        12.2800   34.3810   26.6330 C.3    18  CYS18       0.1843
     30  C         13.7290   34.8280   26.4410 C.2    18  CYS18       0.2625
     31  O         14.2400   34.8280   25.3170 O.2    18  CYS18      -0.2714
     32  CB        12.1580   32.8940   26.3030 C.3    18  CYS18       0.0997
     33  SG        13.3650   31.8950   27.2420 S.3    18  CYS18      -0.0797
     34  N         14.4060   35.2280   27.5330 N.am   19  PHE19      -0.1974
     35  CA        15.7680   35.7220   27.3810 C.3    19  PHE19       0.1639
     36  C         16.8420   34.7130   27.7880 C.2    19  PHE19       0.2290
     37  O         18.0180   35.0800   27.8480 O.2    19  PHE19      -0.2864
     38  CB        15.9670   37.0650   28.1080 C.3    19  PHE19       0.0560
     39  CG        15.8780   37.0190   29.6230 C.ar   19  PHE19      -0.0200
     40  CD1       16.1210   38.1830   30.3440 C.ar   19  PHE19      -0.0042
     41  CD2       15.5560   35.8660   30.3220 C.ar   19  PHE19      -0.0042
     42  CE1       16.0490   38.1950   31.7330 C.ar   19  PHE19      -0.0003
     43  CE2       15.4820   35.8710   31.7030 C.ar   19  PHE19      -0.0003
     44  CZ        15.7290   37.0400   32.4060 C.ar   19  PHE19      -0.0000
     45  N         19.7630   30.1090   43.5470 N.3    49  ASN49      -0.1240
     46  CA        18.4900   30.1360   42.8360 C.3    49  ASN49       0.1653
     47  C         18.6280   29.2650   41.6000 C.2    49  ASN49       0.2266
     48  O         19.4550   29.5530   40.7330 O.2    49  ASN49      -0.2867
     49  CB        18.1150   31.5700   42.4450 C.3    49  ASN49       0.1155
     50  CG        16.7660   31.6540   41.7510 C.2    49  ASN49       0.2627
     51  OD1       15.7960   31.0250   42.1720 O.2    49  ASN49      -0.2716
     52  ND2       16.7050   32.4270   40.6670 N.am   49  ASN49      -0.0877
     53  N         17.3690   27.9020   38.0550 N.3    51  SER51      -0.1217
     54  CA        16.6370   28.5150   36.9560 C.3    51  SER51       0.1889
     55  C         16.9620   27.7670   35.6630 C.2    51  SER51       0.2288
     56  O         17.5580   26.6880   35.6720 O.2    51  SER51      -0.2866
     57  CB        16.9870   30.0050   36.8460 C.3    51  SER51       0.2089
     58  OG        16.0270   30.6640   36.0370 O.3    51  SER51      -0.2183
     59  N         13.0100   29.0410   40.4780 N.3    83  VAL83      -0.1245
     60  CA        12.0580   29.7930   39.6710 C.3    83  VAL83       0.1561
     61  C         11.5860   28.8810   38.5420 C.2    83  VAL83       0.2260
     62  O         12.4050   28.2880   37.8300 O.2    83  VAL83      -0.2867
     63  CB        12.6600   31.1080   39.1310 C.3    83  VAL83       0.0252
     64  CG1       13.9790   30.8580   38.4090 C.3    83  VAL83       0.0019
     65  CG2       11.6700   31.8070   38.2120 C.3    83  VAL83       0.0019
     66  N          6.4850   31.8080   37.6450 N.3   107  SER107     -0.1217
     67  CA         6.3830   32.8820   36.6630 C.3   107  SER107      0.1889
     68  C          4.9740   32.9300   36.0860 C.2   107  SER107      0.2288
     69  O          4.4890   31.9430   35.5180 O.2   107  SER107     -0.2866
     70  CB         7.4050   32.6610   35.5560 C.3   107  SER107      0.2089
     71  OG         8.7160   32.8530   36.0600 O.3   107  SER107     -0.2183
     72  N          3.2590   31.6200   27.1880 N.3   121  ARG121     -0.1245
     73  CA         3.4090   31.1260   28.5580 C.3   121  ARG121      0.1563
     74  C          2.3740   30.0170   28.7540 C.2   121  ARG121      0.2260
     75  O          1.3510   30.1630   29.4260 O.2   121  ARG121     -0.2867
     76  CB         3.2450   32.2750   29.5460 C.3   121  ARG121      0.0307
     77  CG         3.4220   31.9090   31.0290 C.3   121  ARG121      0.0489
     78  CD         4.8850   31.7550   31.4200 C.3   121  ARG121      0.2205
     79  NE         5.5530   33.0430   31.5860 N.pl3 121  ARG121     -0.0865
     80  CZ         6.8210   33.1710   31.9730 C.cat 121  ARG121      0.5346
     81  NH1        7.5530   32.0900   32.2040 N.pl3 121  ARG121      0.1354
     82  NH2        7.3620   34.3700   32.1170 N.pl3 121  ARG121      0.1354
     83  N          6.6940   35.7710   39.9060 N.3   149  ASN149     -0.1240
     84  CA         7.4750   36.6100   39.0090 C.3   149  ASN149      0.1653
     85  C          6.6050   36.9400   37.8050 C.2   149  ASN149      0.2266
     86  O          5.9420   36.0560   37.2640 O.2   149  ASN149     -0.2867
     87  CB         8.7320   35.9070   38.4800 C.3   149  ASN149      0.1155
     88  CG         9.7990   35.6620   39.5540 C.2   149  ASN149      0.2627
     89  OD1        9.6210   35.9580   40.7350 O.2   149  ASN149     -0.2716
     90  ND2       10.9280   35.1260   39.1200 N.am  149  ASN149     -0.0877
     91  N          6.7950   39.1540   33.9960 N.3   151  VAL151     -0.1245
     92  CA         7.5430   39.9380   33.0170 C.3   151  VAL151      0.1561
     93  C          6.5810   40.9700   32.4470 C.2   151  VAL151      0.2260
     94  O          5.5550   40.6080   31.8580 O.2   151  VAL151     -0.2867
     95  CB         8.1260   39.0630   31.8910 C.3   151  VAL151      0.0252
     96  CG1        8.8310   39.9630   30.8550 C.3   151  VAL151      0.0019
     97  CG2        9.0930   38.0310   32.4700 C.3   151  VAL151      0.0019
     98  N          9.5670   42.1420   36.5160 N.3   176  PHE176     -0.1227
     99  CA        10.6880   42.3710   35.6160 C.3   176  PHE176      0.1736
    100  C         10.2210   43.1830   34.4190 C.2   176  PHE176      0.2595
    101  O          9.2350   42.8170   33.7690 O.2   176  PHE176     -0.2718
    102  CB        11.2740   41.0560   35.0900 C.3   176  PHE176      0.0547
    103  CG        11.8050   40.1400   36.1490 C.ar  176  PHE176     -0.0202
    104  CD1       13.1690   40.0610   36.3750 C.ar  176  PHE176     -0.0042
    105  CD2       10.9570   39.3240   36.8840 C.ar  176  PHE176     -0.0042
    106  CE1       13.6820   39.2100   37.3410 C.ar  176  PHE176     -0.0003
    107  CE2       11.4780   38.4570   37.8530 C.ar  176  PHE176     -0.0003
    108  CZ        12.8350   38.4030   38.0710 C.ar  176  PHE176     -0.0000
    109  N         10.9400   44.2560   34.1080 N.am  177  GLN177     -0.1965
    110  CA        10.7680   44.8890   32.8050 C.3   177  GLN177      0.1733
    111  C         11.3090   43.9550   31.7210 C.2   177  GLN177      0.2616
    112  O         12.4020   43.4040   31.8620 O.2   177  GLN177     -0.2715
    113  CB        11.5030   46.2250   32.7780 C.3   177  GLN177      0.0408
    114  CG        11.3910   46.9800   31.4380 C.3   177  GLN177      0.0908
    115  CD        12.1220   48.3030   31.4670 C.2   177  GLN177      0.2608
    116  OE1       12.8820   48.5820   32.3940 O.2   177  GLN177     -0.2717
    117  NE2       11.8950   49.1260   30.4570 N.am  177  GLN177     -0.0878
    118  N         10.5560   43.7810   30.6320 N.am  178  CYS178     -0.1954
    119  CA        11.0110   42.8940   29.5640 C.3   178  CYS178      0.1843
    120  C         12.4040   43.3050   29.0930 C.2   178  CYS178      0.2625
    121  O         12.6530   44.4790   28.8080 O.2   178  CYS178     -0.2714
    122  CB        10.0190   42.9290   28.4010 C.3   178  CYS178      0.0997
    123  SG        10.3420   41.6130   27.1740 S.3   178  CYS178     -0.0797
    124  N         13.3290   42.3460   29.0510 N.am  179  LEU179     -0.1977
    125  CA        14.7310   42.6520   28.7900 C.3   179  LEU179      0.1596
    126  C         15.1940   42.0120   27.4860 C.2   179  LEU179      0.2287
    127  O         14.9710   40.8180   27.2520 O.2   179  LEU179     -0.2864
    128  CB        15.6180   42.1830   29.9520 C.3   179  LEU179      0.0297
    129  CG        17.1210   42.4310   29.7970 C.3   179  LEU179      0.0022
    130  CD1       17.4180   43.9070   29.7950 C.3   179  LEU179      0.0001
    131  CD2       17.8870   41.7540   30.9320 C.3   179  LEU179      0.0001
    132  N         17.2770   36.6890   22.7670 N.3   185  ASN185     -0.1240
    133  CA        15.9740   37.0470   22.2180 C.3   185  ASN185      0.1653
    134  C         16.0780   38.2430   21.2700 C.2   185  ASN185      0.2266
    135  O         15.1110   38.9910   21.0880 O.2   185  ASN185     -0.2867
    136  CB        14.9590   37.3070   23.3340 C.3   185  ASN185      0.1155
    137  CG        15.3930   38.4210   24.2710 C.2   185  ASN185      0.2627
    138  OD1       16.3980   39.0870   24.0370 O.2   185  ASN185     -0.2716
    139  ND2       14.6240   38.6380   25.3290 N.am  185  ASN185     -0.0877
    140  N         18.5950   44.7400   36.2930 N.3   225  MET225     -0.1245
    141  CA        18.9950   43.4130   35.8390 C.3   225  MET225      0.1570
    142  C         20.4100   43.4310   35.2780 C.2   225  MET225      0.2261
    143  O         21.2210   42.5540   35.5960 O.2   225  MET225     -0.2867
    144  CB        18.0040   42.8990   34.7930 C.3   225  MET225      0.0387
    145  CG        16.6910   42.5670   35.5030 C.3   225  MET225      0.0595
    146  SD        16.8030   40.9740   36.3670 S.3   225  MET225     -0.1393
    147  CE        16.8860   39.7890   34.9900 C.3   225  MET225      0.0692
    148  N         22.1170   41.0920   38.0820 N.3   229  TYR229     -0.1241
    149  CA        21.6800   39.7240   37.8170 C.3   229  TYR229      0.1605
    150  C         22.8360   38.9310   37.2080 C.2   229  TYR229      0.2264
    151  O         23.2140   39.1520   36.0530 O.2   229  TYR229     -0.2867
    152  CB        20.4540   39.7070   36.9060 C.3   229  TYR229      0.0534
    153  CG        19.7920   38.3530   36.8340 C.ar  229  TYR229     -0.0201
    154  CD1       18.7660   38.0130   37.7100 C.ar  229  TYR229     -0.0009
    155  CD2       20.1960   37.4100   35.8950 C.ar  229  TYR229     -0.0009
    156  CE1       18.1610   36.7770   37.6510 C.ar  229  TYR229      0.0417
    157  CE2       19.5970   36.1660   35.8390 C.ar  229  TYR229      0.0417
    158  CZ        18.5820   35.8550   36.7160 C.ar  229  TYR229      0.1957
    159  OH        17.9840   34.6140   36.6540 O.3   229  TYR229     -0.2866
@<TRIPOS>BOND
     1   135   134    2
     2   134   133    1
     3   133   132    1
     4   133   136    1
     5   136   137    1
     6   138   137    2
     7   137   139   am
     8    14    13    2
     9    17    18    1
    10    13    12    1
    11    18    19    1
    12    18    21    1
    13    31    30    2
    14    11    12    1
    15    19    28   am
    16    19    20    2
    17    12    15    1
    18    28    29    1
    19    21    22    1
    20    32    29    1
    21    32    33    1
    22    30    29    1
    23    30    34   am
    24    22    24   ar
    25    22    23   ar
    26    24    26   ar
    27    15    16    1
    28   123   122    1
    29    72    73    1
    30   127   126    2
    31    35    34    1
    32    35    36    1
    33    35    38    1
    34   126   125    1
    35    36    37    2
    36    23    25   ar
    37    26    27   ar
    38    38    39    1
    39   122   119    1
    40    73    74    1
    41    73    76    1
    42    74    75    2
    43   125   124    1
    44   125   128    1
    45   121   120    2
    46   124   120   am
    47    27    25   ar
    48   120   119    1
    49    76    77    1
    50   119   118    1
    51    39    41   ar
    52    39    40   ar
    53   130   129    1
    54   129   128    1
    55   129   131    1
    56    41    43   ar
    57    40    42   ar
    58   117   115   am
    59   118   111   am
    60    96    95    1
    61    77    78    1
    62    78    79    1
    63   114   115    1
    64   114   113    1
    65   115   116    2
    66    79    80    2
    67    43    44   ar
    68   111   112    2
    69   111   110    1
    70    42    44   ar
    71    94    93    2
    72    95    97    1
    73    95    92    1
    74    80    82    1
    75    80    81    1
    76    93    92    1
    77   113   110    1
    78   110   109    1
    79    92    91    1
    80     4     3    2
    81     7     6   ar
    82     7     9   ar
    83     5     6    1
    84     5     2    1
    85   101   100    2
    86   109   100   am
    87     6     8   ar
    88     9    10   ar
    89     3     2    1
    90   100    99    1
    91   144   145    1
    92   144   141    1
    93     2     1    1
    94   147   146    1
    95   102    99    1
    96   102   103    1
    97     8    10   ar
    98   142   143    2
    99   142   141    1
   100   145   146    1
   101    69    68    2
   102    70    71    1
   103    70    67    1
   104    99    98    1
   105    55    56    2
   106    55    54    1
   107   141   140    1
   108   157   155   ar
   109   157   158   ar
   110   155   153   ar
   111    58    57    1
   112   151   150    2
   113    68    67    1
   114   103   104   ar
   115   103   105   ar
   116   104   106   ar
   117   159   158    1
   118    67    66    1
   119   158   156   ar
   120   153   152    1
   121   153   154   ar
   122    57    54    1
   123   105   107   ar
   124   152   149    1
   125    54    53    1
   126   150   149    1
   127    86    85    2
   128   106   108   ar
   129   156   154   ar
   130    85    84    1
   131   149   148    1
   132    62    61    2
   133   107   108   ar
   134    65    63    1
   135    64    63    1
   136    87    84    1
   137    87    88    1
   138    61    60    1
   139    84    83    1
   140    90    88   am
   141    63    60    1
   142    88    89    2
   143    60    59    1
   144    52    50   am
   145    48    47    2
   146    47    46    1
   147    50    51    2
   148    50    49    1
   149    49    46    1
   150    46    45    1
