@<TRIPOS>MOLECULE
tmp/5vsvA01.pdb
 117 111 0 0 0
SMALL
GASTEIGER

@<TRIPOS>ATOM
      1  N        -16.4130   19.8930  -29.7430 N.3    99  VAL99      -0.1245
      2  CA       -16.5510   19.4170  -31.1220 C.3    99  VAL99       0.1561
      3  C        -18.0390   19.2100  -31.4030 C.2    99  VAL99       0.2260
      4  O        -18.6120   18.1720  -31.0660 O.2    99  VAL99      -0.2867
      5  CB       -15.7370   18.1510  -31.3710 C.3    99  VAL99       0.0252
      6  CG1      -15.8630   17.7420  -32.8400 C.3    99  VAL99       0.0019
      7  CG2      -14.2900   18.4230  -31.0120 C.3    99  VAL99       0.0019
      8  N        -11.7320   21.5750  -25.7540 N.3   121  ASP121     -0.1225
      9  CA       -11.6900   20.6640  -24.6160 C.3   121  ASP121      0.1805
     10  C        -12.6830   19.5280  -24.8230 C.2   121  ASP121      0.2598
     11  O        -13.8950   19.7590  -24.8900 O.2   121  ASP121     -0.2718
     12  CB       -11.9960   21.4070  -23.3140 C.3   121  ASP121      0.1424
     13  CG       -11.6440   20.5930  -22.0710 C.2   121  ASP121      0.3668
     14  OD1      -11.2940   19.3940  -22.2070 O.co2 121  ASP121     -0.2456
     15  OD2      -11.7090   21.1650  -20.9580 O.co2 121  ASP121     -0.2456
     16  N        -12.1680   18.3070  -24.9210 N.am  122  THR122     -0.1939
     17  CA       -13.0050   17.1230  -24.9820 C.3   122  THR122      0.2028
     18  C        -12.4020   16.0420  -24.0960 C.2   122  THR122      0.2642
     19  O        -11.2290   16.1000  -23.7060 O.2   122  THR122     -0.2714
     20  CB       -13.1610   16.5720  -26.4090 C.3   122  THR122      0.1808
     21  OG1      -11.8920   16.0880  -26.8590 O.3   122  THR122     -0.2208
     22  CG2      -13.6800   17.6430  -27.3880 C.3   122  THR122      0.0379
     23  N        -13.2350   15.0400  -23.7990 N.am  123  ALA123     -0.1963
     24  CA       -12.8000   13.9050  -22.9930 C.3   123  ALA123      0.1728
     25  C        -11.6090   13.2090  -23.6280 C.2   123  ALA123      0.2616
     26  O        -10.6610   12.8260  -22.9350 O.2   123  ALA123     -0.2715
     27  CB       -13.9550   12.9210  -22.8090 C.3   123  ALA123      0.0334
     28  N        -11.6240   13.0620  -24.9470 N.am  124  HIS124     -0.1973
     29  CA       -10.5800   12.3260  -25.6450 C.3   124  HIS124      0.1656
     30  C         -9.9840   13.2560  -26.6900 C.2   124  HIS124      0.2291
     31  O        -10.4630   13.3270  -27.8240 O.2   124  HIS124     -0.2864
     32  CB       -11.1070   11.0820  -26.2660 C.3   124  HIS124      0.0771
     33  CG       -10.0370   10.2180  -26.8480 C.ar  124  HIS124      0.0820
     34  ND1       -8.7450   10.2170  -26.3640 N.ar  124  HIS124     -0.2267
     35  CD2      -10.0630    9.3190  -27.8600 C.ar  124  HIS124      0.1154
     36  CE1       -8.0200    9.3570  -27.0570 C.ar  124  HIS124      0.1986
     37  NE2       -8.7940    8.7990  -27.9710 N.ar  124  HIS124     -0.2212
     38  N         -7.9990   12.5790  -31.0120 N.3   127  SER127     -0.1217
     39  CA        -9.1490   12.1390  -31.7830 C.3   127  SER127      0.1889
     40  C         -9.2030   12.8840  -33.1080 C.2   127  SER127      0.2288
     41  O         -8.7380   14.0260  -33.2150 O.2   127  SER127     -0.2866
     42  CB       -10.4460   12.3780  -30.9970 C.3   127  SER127      0.2089
     43  OG       -10.6570   13.7780  -30.8180 O.3   127  SER127     -0.2183
     44  N        -10.9640   16.3990  -32.7030 N.3   130  VAL130     -0.1245
     45  CA       -10.2010   17.5150  -32.1500 C.3   130  VAL130      0.1561
     46  C         -9.0800   17.9130  -33.1030 C.2   130  VAL130      0.2260
     47  O         -8.7620   19.1000  -33.2530 O.2   130  VAL130     -0.2867
     48  CB        -9.6600   17.1620  -30.7460 C.3   130  VAL130      0.0252
     49  CG1       -8.7680   18.2560  -30.2210 C.3   130  VAL130      0.0019
     50  CG2      -10.8000   16.9360  -29.7710 C.3   130  VAL130      0.0019
     51  N        -13.5000   12.9270  -11.0500 N.3   178  CYS178     -0.1235
     52  CA       -13.5200   12.1700  -12.2810 C.3   178  CYS178      0.1677
     53  C        -13.6960   10.6760  -12.0090 C.2   178  CYS178      0.2270
     54  O        -13.0900   10.1290  -11.0850 O.2   178  CYS178     -0.2867
     55  CB       -12.2270   12.4320  -13.0340 C.3   178  CYS178      0.0956
     56  SG       -12.0270   11.3820  -14.4540 S.3   178  CYS178     -0.0801
     57  N        -13.5160    8.6290  -14.9340 N.3   180  THR180     -0.1218
     58  CA       -13.1580    8.0880  -16.2370 C.3   180  THR180      0.1862
     59  C        -12.3950    6.7760  -16.0960 C.2   180  THR180      0.2287
     60  O        -12.7050    5.7970  -16.7820 O.2   180  THR180     -0.2866
     61  CB       -12.3550    9.1130  -17.0140 C.3   180  THR180      0.1770
     62  OG1      -13.2100   10.2220  -17.3370 O.3   180  THR180     -0.2211
     63  CG2      -11.7970    8.4900  -18.2770 C.3   180  THR180      0.0375
     64  N        -17.7490   17.9010  -15.0410 N.3   261  MET261     -0.1230
     65  CA       -18.5780   18.2950  -16.1800 C.3   261  MET261      0.1702
     66  C        -19.2340   17.0840  -16.8320 C.2   261  MET261      0.2592
     67  O        -20.2670   17.2370  -17.4890 O.2   261  MET261     -0.2718
     68  CB       -17.7770   19.1090  -17.2120 C.3   261  MET261      0.0401
     69  CG       -17.4580   20.5230  -16.7520 C.3   261  MET261      0.0596
     70  SD       -18.9040   21.5960  -16.5670 S.3   261  MET261     -0.1393
     71  CE       -18.9580   22.3240  -18.2060 C.3   261  MET261      0.0692
     72  N        -18.6870   15.8920  -16.6280 N.am  262  GLY262     -0.1957
     73  CA       -19.3100   14.6610  -17.0540 C.3   262  GLY262      0.1869
     74  C        -20.3130   14.0540  -16.0950 C.2   262  GLY262      0.2309
     75  O        -20.7580   12.9270  -16.3330 O.2   262  GLY262     -0.2863
     76  N        -24.6920   17.6230  -16.9470 N.3   267  MET267     -0.1245
     77  CA       -25.1640   17.3410  -18.2950 C.3   267  MET267      0.1570
     78  C        -26.6230   17.7330  -18.5010 C.2   267  MET267      0.2261
     79  O        -27.0530   17.8720  -19.6500 O.2   267  MET267     -0.2867
     80  CB       -24.9360   15.8650  -18.6180 C.3   267  MET267      0.0387
     81  CG       -23.4520   15.5220  -18.7510 C.3   267  MET267      0.0595
     82  SD       -23.0570   13.8440  -19.3100 S.3   267  MET267     -0.1393
     83  CE       -23.6600   12.8330  -17.9510 C.3   267  MET267      0.0692
     84  N        -27.9490    9.0490  -19.7860 N.3   270  PHE270     -0.1227
     85  CA       -26.5730    9.4990  -19.6860 C.3   270  PHE270      0.1736
     86  C        -25.7380    8.4180  -19.0230 C.2   270  PHE270      0.2595
     87  O        -26.1960    7.7610  -18.0810 O.2   270  PHE270     -0.2718
     88  CB       -26.4720   10.7930  -18.8890 C.3   270  PHE270      0.0547
     89  CG       -26.9770   11.9950  -19.6330 C.ar  270  PHE270     -0.0202
     90  CD1      -26.4610   12.3090  -20.8860 C.ar  270  PHE270     -0.0042
     91  CD2      -27.9630   12.8030  -19.0900 C.ar  270  PHE270     -0.0042
     92  CE1      -26.9190   13.4100  -21.5820 C.ar  270  PHE270     -0.0003
     93  CE2      -28.4280   13.9150  -19.7830 C.ar  270  PHE270     -0.0003
     94  CZ       -27.9020   14.2220  -21.0230 C.ar  270  PHE270     -0.0000
     95  N        -24.5160    8.2440  -19.5200 N.am  271  VAL271     -0.1966
     96  CA       -23.5190    7.4080  -18.8560 C.3   271  VAL271      0.1712
     97  C        -22.3830    8.2890  -18.3620 C.2   271  VAL271      0.2458
     98  O        -21.4240    8.5320  -19.1070 O.2   271  VAL271     -0.2730
     99  CB       -22.9840    6.3140  -19.7860 C.3   271  VAL271      0.0289
    100  CG1      -22.0860    5.3540  -18.9920 C.3   271  VAL271      0.0023
    101  CG2      -24.1520    5.5900  -20.4450 C.3   271  VAL271      0.0023
    102  N        -22.4320    8.7560  -17.1190 N.am  272  PRO272     -0.2716
    103  CA       -21.5420    9.8430  -16.7050 C.3   272  PRO272      0.1536
    104  C        -20.1030    9.3900  -16.5230 C.2   272  PRO272      0.2598
    105  O        -19.7930    8.2040  -16.3980 O.2   272  PRO272     -0.2715
    106  CB       -22.1480   10.3200  -15.3770 C.3   272  PRO272      0.0310
    107  CG       -23.0200    9.2030  -14.9230 C.3   272  PRO272      0.0237
    108  CD       -23.5180    8.5280  -16.1550 C.3   272  PRO272      0.0939
    109  N        -19.2100   10.3850  -16.4930 N.am  273  GLU273     -0.1978
    110  CA       -17.7950   10.1450  -16.2580 C.3   273  GLU273      0.1602
    111  C        -17.2630   11.0510  -15.1570 C.2   273  GLU273      0.2287
    112  O        -16.0720   11.3800  -15.1260 O.2   273  GLU273     -0.2864
    113  CB       -16.9910   10.2900  -17.5520 C.3   273  GLU273      0.0415
    114  CG       -17.0020    8.9680  -18.3310 C.3   273  GLU273      0.1163
    115  CD       -16.2040    9.0180  -19.5990 C.2   273  GLU273      0.3649
    116  OE1      -15.0280    9.4460  -19.5350 O.co2 273  GLU273     -0.2457
    117  OE2      -16.7570    8.6420  -20.6680 O.co2 273  GLU273     -0.2457
@<TRIPOS>BOND
     1    47    46    2
     2    41    40    2
     3    40    39    1
     4    46    45    1
     5     6     5    1
     6    44    45    1
     7    45    48    1
     8    39    38    1
     9    39    42    1
    10     3     2    1
    11     3     4    2
    12     5     2    1
    13     5     7    1
    14     2     1    1
    15    42    43    1
    16    48    49    1
    17    48    50    1
    18    37    35   ar
    19    37    36   ar
    20    35    33   ar
    21    31    30    2
    22    22    20    1
    23    36    34   ar
    24    21    20    1
    25    33    34   ar
    26    33    32    1
    27    30    29    1
    28    20    17    1
    29    32    29    1
    30     8     9    1
    31    29    28    1
    32    17    16    1
    33    17    18    1
    34    28    25   am
    35    16    10   am
    36    11    10    2
    37    10     9    1
    38     9    12    1
    39    18    23   am
    40    18    19    2
    41    23    24    1
    42    25    24    1
    43    25    26    2
    44    12    13    1
    45    24    27    1
    46    14    13   ar
    47    13    15   ar
    48    92    94   ar
    49    92    90   ar
    50    94    93   ar
    51    90    89   ar
    52   117   115   ar
    53   101    99    1
    54    99   100    1
    55    99    96    1
    56    84    85    1
    57    93    91   ar
    58    85    86    1
    59    85    88    1
    60    79    78    2
    61    89    91   ar
    62    89    88    1
    63   115   116   ar
    64   115   114    1
    65    95    86   am
    66    95    96    1
    67    82    81    1
    68    82    83    1
    69    98    97    2
    70    86    87    2
    71    96    97    1
    72    81    80    1
    73    80    77    1
    74    78    77    1
    75    97   102   am
    76   114   113    1
    77    77    76    1
    78    63    61    1
    79    71    70    1
    80   113   110    1
    81    67    66    2
    82    62    61    1
    83    68    69    1
    84    68    65    1
    85   102   103    1
    86   102   108    1
    87    73    72    1
    88    73    74    1
    89    61    58    1
    90    66    72   am
    91    66    65    1
    92    60    59    2
    93    69    70    1
    94   103   104    1
    95   103   106    1
    96   104   109   am
    97   104   105    2
    98   109   110    1
    99    75    74    2
   100   110   111    1
   101    58    59    1
   102    58    57    1
   103    65    64    1
   104   108   107    1
   105   106   107    1
   106   111   112    2
   107    56    55    1
   108    55    52    1
   109    52    53    1
   110    52    51    1
   111    53    54    2
