@<TRIPOS>MOLECULE
tmp/5vswM00.pdb
 94 88 0 0 0
SMALL
GASTEIGER

@<TRIPOS>ATOM
      1  N        118.9450  -25.8610  -12.5300 N.3    36  TRP36      -0.1241
      2  CA       119.2120  -24.4300  -12.5650 C.3    36  TRP36       0.1605
      3  C        118.0550  -23.7520  -13.2860 C.2    36  TRP36       0.2264
      4  O        117.5590  -22.7090  -12.8490 O.2    36  TRP36      -0.2867
      5  CB       120.5770  -24.1630  -13.2060 C.3    36  TRP36       0.0550
      6  CG       121.1200  -22.7760  -13.0040 C.ar   36  TRP36       0.0003
      7  CD1      120.7600  -21.8910  -12.0300 C.ar   36  TRP36       0.0946
      8  CD2      122.2460  -22.1900  -13.6760 C.ar   36  TRP36       0.0152
      9  NE1      121.5250  -20.7530  -12.1160 N.ar   36  TRP36      -0.2442
     10  CE2      122.4510  -20.9160  -13.1120 C.ar   36  TRP36       0.0810
     11  CE3      123.0720  -22.6020  -14.7260 C.ar   36  TRP36       0.0012
     12  CZ2      123.4470  -20.0530  -13.5600 C.ar   36  TRP36       0.0191
     13  CZ3      124.0620  -21.7430  -15.1690 C.ar   36  TRP36       0.0001
     14  CH2      124.2400  -20.4840  -14.5870 C.ar   36  TRP36       0.0015
     15  N        116.5740   -7.2310  -13.4700 N.3    77  ASN77      -0.1240
     16  CA       117.1320   -8.5510  -13.1920 C.3    77  ASN77       0.1653
     17  C        116.3610   -9.6510  -13.9200 C.2    77  ASN77       0.2266
     18  O        116.9620  -10.4960  -14.5930 O.2    77  ASN77      -0.2867
     19  CB       117.1430   -8.7680  -11.6730 C.3    77  ASN77       0.1155
     20  CG       117.0030  -10.2230  -11.2670 C.2    77  ASN77       0.2627
     21  OD1      115.9750  -10.8630  -11.4970 O.2    77  ASN77      -0.2716
     22  ND2      118.0460  -10.7540  -10.6470 N.am   77  ASN77      -0.0877
     23  N        117.2640  -10.3140  -17.2950 N.3    80  ARG80      -0.1231
     24  CA       118.5640  -10.9580  -17.4280 C.3    80  ARG80       0.1694
     25  C        118.3900  -12.4520  -17.2160 C.2    80  ARG80       0.2591
     26  O        118.9960  -13.2660  -17.9220 O.2    80  ARG80      -0.2718
     27  CB       119.5840  -10.3860  -16.4440 C.3    80  ARG80       0.0321
     28  CG       119.9520   -8.9260  -16.6330 C.3    80  ARG80       0.0489
     29  CD       121.1040   -8.5960  -15.6930 C.3    80  ARG80       0.2205
     30  NE       121.4750   -7.1860  -15.6710 N.pl3  80  ARG80      -0.0865
     31  CZ       122.6540   -6.7280  -16.0820 C.cat  80  ARG80       0.5346
     32  NH1      123.5660   -7.5710  -16.5470 N.pl3  80  ARG80       0.1354
     33  NH2      122.9240   -5.4330  -16.0320 N.pl3  80  ARG80       0.1354
     34  N        117.5860  -12.8240  -16.2130 N.am   81  GLU81      -0.1979
     35  CA       117.3200  -14.2340  -15.9690 C.3    81  GLU81       0.1602
     36  C        116.6540  -14.8500  -17.1930 C.2    81  GLU81       0.2287
     37  O        116.9250  -16.0070  -17.5330 O.2    81  GLU81      -0.2864
     38  CB       116.4850  -14.4110  -14.7030 C.3    81  GLU81       0.0415
     39  CG       117.3330  -14.2790  -13.4400 C.3    81  GLU81       0.1163
     40  CD       116.5370  -14.4430  -12.1620 C.2    81  GLU81       0.3649
     41  OE1      117.1590  -14.6140  -11.0900 O.co2  81  GLU81      -0.2457
     42  OE2      115.2930  -14.3970  -12.2250 O.co2  81  GLU81      -0.2457
     43  N        117.2360  -14.0120  -20.1350 N.3    83  LYS83      -0.1231
     44  CA       118.3540  -14.1870  -21.0500 C.3    83  LYS83       0.1693
     45  C        119.1560  -15.3930  -20.6020 C.2    83  LYS83       0.2591
     46  O        119.5820  -16.2130  -21.4220 O.2    83  LYS83      -0.2718
     47  CB       119.2250  -12.9320  -21.1090 C.3    83  LYS83       0.0285
     48  CG       118.5220  -11.7280  -21.7070 C.3    83  LYS83       0.0035
     49  CD       119.4900  -10.5990  -22.0150 C.3    83  LYS83       0.0206
     50  CE       119.1500   -9.3500  -21.2220 C.3    83  LYS83       0.1093
     51  NZ       120.0460   -8.2210  -21.5860 N.3    83  LYS83      -0.1314
     52  N        119.3650  -15.5030  -19.2850 N.am   84  LEU84      -0.1980
     53  CA       120.1230  -16.6130  -18.7300 C.3    84  LEU84       0.1596
     54  C        119.4350  -17.9230  -19.0830 C.2    84  LEU84       0.2287
     55  O        120.0820  -18.8860  -19.5080 O.2    84  LEU84      -0.2864
     56  CB       120.1910  -16.4510  -17.2090 C.3    84  LEU84       0.0297
     57  CG       121.2130  -17.0680  -16.2510 C.3    84  LEU84       0.0022
     58  CD1      120.8050  -16.7300  -14.8200 C.3    84  LEU84       0.0001
     59  CD2      121.4290  -18.5440  -16.4180 C.3    84  LEU84       0.0001
     60  N        120.0090  -18.6160  -22.4800 N.3    87  LYS87      -0.1245
     61  CA       121.3720  -19.0840  -22.6840 C.3    87  LYS87       0.1561
     62  C        121.4780  -20.5240  -22.2180 C.2    87  LYS87       0.2260
     63  O        122.1460  -21.3360  -22.8620 O.2    87  LYS87      -0.2867
     64  CB       122.3310  -18.1640  -22.0460 C.3    87  LYS87       0.0271
     65  CG       122.4660  -16.8620  -22.8030 C.3    87  LYS87       0.0035
     66  CD       122.2960  -15.5770  -22.0220 C.3    87  LYS87       0.0206
     67  CE       122.8180  -14.4560  -22.9610 C.3    87  LYS87       0.1093
     68  NZ       122.9950  -13.1410  -22.2700 N.3    87  LYS87      -0.1314
     69  N        130.7550  -20.6250  -23.3610 N.3   122  ASP122     -0.1239
     70  CA       130.8690  -20.8930  -24.7910 C.3   122  ASP122      0.1674
     71  C        132.2880  -20.8180  -25.3440 C.2   122  ASP122      0.2266
     72  O        132.5710  -21.4660  -26.3560 O.2   122  ASP122     -0.2867
     73  CB       129.9990  -19.9130  -25.5900 C.3   122  ASP122      0.1410
     74  CG       128.5240  -20.2460  -25.5220 C.2   122  ASP122      0.3668
     75  OD1      127.9340  -20.1160  -24.4320 O.co2 122  ASP122     -0.2456
     76  OD2      127.9530  -20.6390  -26.5600 O.co2 122  ASP122     -0.2456
     77  N        137.6640  -15.8220  -25.2310 N.3   128  LYS128     -0.1245
     78  CA       136.7340  -15.0290  -24.4270 C.3   128  LYS128      0.1561
     79  C        137.3460  -13.7070  -23.9750 C.2   128  LYS128      0.2260
     80  O        136.7140  -12.6490  -24.0810 O.2   128  LYS128     -0.2867
     81  CB       136.2290  -15.8240  -23.2310 C.3   128  LYS128      0.0271
     82  CG       135.0530  -15.1370  -22.5680 C.3   128  LYS128      0.0035
     83  CD       133.7700  -15.2530  -23.3680 C.3   128  LYS128      0.0206
     84  CE       132.6150  -14.6390  -22.5930 C.3   128  LYS128      0.1093
     85  NZ       131.3740  -14.5460  -23.4070 N.3   128  LYS128     -0.1314
     86  N        136.3510   -9.6760  -24.9520 N.3   132  GLU132     -0.1245
     87  CA       136.0340   -8.5790  -24.0440 C.3   132  GLU132      0.1567
     88  C        136.8900   -7.3590  -24.3590 C.2   132  GLU132      0.2260
     89  O        136.4330   -6.2220  -24.2000 O.2   132  GLU132     -0.2867
     90  CB       136.1530   -9.0310  -22.5900 C.3   132  GLU132      0.0388
     91  CG       135.2320  -10.2130  -22.3030 C.3   132  GLU132      0.1160
     92  CD       135.5550  -10.9330  -21.0140 C.2   132  GLU132      0.3649
     93  OE1      136.6480  -11.5260  -20.9200 O.co2 132  GLU132     -0.2457
     94  OE2      134.7010  -10.9170  -20.1010 O.co2 132  GLU132     -0.2457
@<TRIPOS>BOND
     1    76    74   ar
     2    72    71    2
     3    73    74    1
     4    73    70    1
     5    74    75   ar
     6    71    70    1
     7    77    78    1
     8    86    87    1
     9    70    69    1
    10    78    79    1
    11    78    81    1
    12    88    89    2
    13    88    87    1
    14    80    79    2
    15    87    90    1
    16    85    84    1
    17    83    84    1
    18    83    82    1
    19    81    82    1
    20    67    68    1
    21    67    66    1
    22    63    62    2
    23    65    64    1
    24    65    66    1
    25    61    60    1
    26    61    62    1
    27    61    64    1
    28    90    91    1
    29    91    92    1
    30    49    48    1
    31    49    50    1
    32    48    47    1
    33    51    50    1
    34    46    45    2
    35    47    44    1
    36    44    45    1
    37    44    43    1
    38    92    93   ar
    39    92    94   ar
    40    45    52   am
    41    55    54    2
    42    52    53    1
    43    54    53    1
    44    53    56    1
    45    26    25    2
    46    37    36    2
    47    24    23    1
    48    24    25    1
    49    24    27    1
    50    25    34   am
    51    56    57    1
    52    36    35    1
    53    28    27    1
    54    28    29    1
    55    32    31    1
    56    59    57    1
    57    57    58    1
    58    34    35    1
    59    31    33    1
    60    31    30    2
    61    35    38    1
    62    29    30    1
    63    13    11   ar
    64    13    14   ar
    65    11     8   ar
    66    38    39    1
    67    18    17    2
    68    14    12   ar
    69    17    16    1
    70     8    10   ar
    71     8     6   ar
    72    12    10   ar
    73    15    16    1
    74    39    40    1
    75     3     4    2
    76     3     2    1
    77     5     6    1
    78     5     2    1
    79    16    19    1
    80    10     9   ar
    81     6     7   ar
    82     2     1    1
    83    42    40   ar
    84    40    41   ar
    85     9     7   ar
    86    19    20    1
    87    21    20    2
    88    20    22   am
