@<TRIPOS>MOLECULE
tmp/5vt1A00.pdb
 157 147 0 0 0
SMALL
GASTEIGER

@<TRIPOS>ATOM
      1  N         22.6200   48.6120   25.6050 N.3    12  ILE12      -0.1231
      2  CA        23.2330   49.9010   25.2610 C.3    12  ILE12       0.1692
      3  C         24.7560   49.7830   24.9960 C.2    12  ILE12       0.2593
      4  O         25.3670   50.7160   24.4800 O.2    12  ILE12      -0.2718
      5  CB        22.9340   50.9380   26.3770 C.3    12  ILE12       0.0266
      6  CG1       23.3430   50.4310   27.8050 C.3    12  ILE12       0.0019
      7  CG2       21.4660   51.3200   26.3220 C.3    12  ILE12       0.0020
      8  CD1       23.1450   51.4760   29.0230 C.3    12  ILE12       0.0001
      9  N         25.3560   48.6710   25.3470 N.am   13  GLY13      -0.1942
     10  CA        26.7820   48.5020   25.1250 C.3    13  GLY13       0.2014
     11  C         27.2710   47.1480   25.5640 C.2    13  GLY13       0.2639
     12  O         26.4730   46.2420   25.8310 O.2    13  GLY13      -0.2714
     13  N         28.5920   47.0070   25.6320 N.am   14  LYS14      -0.1963
     14  CA        29.2280   45.7500   26.0220 C.3    14  LYS14       0.1728
     15  C         30.4930   46.0080   26.8200 C.2    14  LYS14       0.2617
     16  O         31.1580   47.0020   26.5690 O.2    14  LYS14      -0.2715
     17  CB        29.5900   44.9300   24.7530 C.3    14  LYS14       0.0311
     18  CG        28.3820   44.5520   23.9020 C.3    14  LYS14       0.0038
     19  CD        28.7650   43.6660   22.7310 C.3    14  LYS14       0.0206
     20  CE        27.5790   43.1830   21.9240 C.3    14  LYS14       0.1093
     21  NZ        26.6730   42.3090   22.7180 N.3    14  LYS14      -0.1314
     22  N         30.8160   45.1150   27.7550 N.am   15  GLY15      -0.1940
     23  CA        32.0860   45.1530   28.4810 C.3    15  GLY15       0.2014
     24  C         33.0380   44.2520   27.7250 C.2    15  GLY15       0.2639
     25  O         32.6660   43.7210   26.6740 O.2    15  GLY15      -0.2714
     26  N         34.2590   44.0080   28.2530 N.am   16  SER16      -0.1949
     27  CA        35.1530   43.0240   27.6180 C.3    16  SER16       0.1924
     28  C         34.4680   41.6580   27.6790 C.2    16  SER16       0.2314
     29  O         34.6650   40.8230   26.8040 O.2    16  SER16      -0.2863
     30  CB        36.5130   42.9950   28.3010 C.3    16  SER16       0.2116
     31  OG        36.3580   42.9690   29.7060 O.3    16  SER16      -0.2180
     32  N         25.8160   45.3660   28.4610 N.3    20  VAL20      -0.1245
     33  CA        25.3490   46.4830   29.2830 C.3    20  VAL20       0.1561
     34  C         23.9700   46.8460   28.8250 C.2    20  VAL20       0.2260
     35  O         23.7710   47.0710   27.6340 O.2    20  VAL20      -0.2867
     36  CB        26.2880   47.7060   29.2020 C.3    20  VAL20       0.0252
     37  CG1       25.8440   48.7740   30.1980 C.3    20  VAL20       0.0019
     38  CG2       27.7370   47.3070   29.4380 C.3    20  VAL20       0.0019
     39  N         20.3270   49.2970   29.7640 N.3    22  LEU22      -0.1245
     40  CA        19.7840   50.4380   30.4780 C.3    22  LEU22       0.1561
     41  C         18.8730   49.9130   31.5850 C.2    22  LEU22       0.2260
     42  O         18.1110   48.9690   31.3470 O.2    22  LEU22      -0.2867
     43  CB        19.0360   51.3490   29.5140 C.3    22  LEU22       0.0270
     44  CG        18.6030   52.6440   30.1060 C.3    22  LEU22       0.0019
     45  CD1       19.8040   53.5600   30.3490 C.3    22  LEU22       0.0001
     46  CD2       17.5860   53.3200   29.2140 C.3    22  LEU22       0.0001
     47  N         23.4770   52.1090   34.3080 N.3    33  ALA33      -0.1245
     48  CA        23.9840   51.1560   33.3390 C.3    33  ALA33       0.1562
     49  C         24.1580   49.8630   34.0820 C.2    33  ALA33       0.2260
     50  O         24.7910   49.8730   35.1270 O.2    33  ALA33      -0.2867
     51  CB        25.2970   51.6340   32.7580 C.3    33  ALA33       0.0290
     52  N         25.5520   46.0060   33.8490 N.3    35  LYS35      -0.1245
     53  CA        26.3240   45.0070   33.1200 C.3    35  LYS35       0.1561
     54  C         25.8010   43.6340   33.5520 C.2    35  LYS35       0.2260
     55  O         25.7450   43.3730   34.7460 O.2    35  LYS35      -0.2867
     56  CB        27.8260   45.2070   33.3720 C.3    35  LYS35       0.0271
     57  CG        28.7130   44.2780   32.5590 C.3    35  LYS35       0.0035
     58  CD        30.1450   44.8010   32.4170 C.3    35  LYS35       0.0206
     59  CE        30.8970   44.8270   33.7300 C.3    35  LYS35       0.1093
     60  NZ        32.3460   45.1400   33.5450 N.3    35  LYS35      -0.1314
     61  N         37.4810   42.8270   39.4070 N.3    56  GLU56      -0.1245
     62  CA        36.9080   44.1420   39.1420 C.3    56  GLU56       0.1567
     63  C         35.9160   44.5300   40.2420 C.2    56  GLU56       0.2260
     64  O         35.9540   45.6600   40.7270 O.2    56  GLU56      -0.2867
     65  CB        36.2390   44.1730   37.7740 C.3    56  GLU56       0.0388
     66  CG        35.4600   45.4490   37.5380 C.3    56  GLU56       0.1160
     67  CD        34.9490   45.5560   36.1290 C.2    56  GLU56       0.3649
     68  OE1       35.7550   45.9100   35.2440 O.co2  56  GLU56      -0.2457
     69  OE2       33.7470   45.3000   35.9050 O.co2  56  GLU56      -0.2457
     70  N         35.2190   55.0410   37.0870 N.3    69  VAL69      -0.1245
     71  CA        33.7890   54.7370   37.0070 C.3    69  VAL69       0.1561
     72  C         33.2630   54.2640   38.3970 C.2    69  VAL69       0.2260
     73  O         33.9830   53.6060   39.1420 O.2    69  VAL69      -0.2867
     74  CB        33.4920   53.7120   35.8770 C.3    69  VAL69       0.0252
     75  CG1       33.9280   52.3160   36.2810 C.3    69  VAL69       0.0019
     76  CG2       32.0150   53.7400   35.4870 C.3    69  VAL69       0.0019
     77  N         26.2180   50.4690   37.4660 N.3    87  PHE87      -0.1227
     78  CA        27.1240   51.6030   37.4250 C.3    87  PHE87       0.1736
     79  C         26.3620   52.9010   37.2010 C.2    87  PHE87       0.2595
     80  O         25.2670   52.9040   36.6720 O.2    87  PHE87      -0.2718
     81  CB        28.0900   51.5010   36.2390 C.3    87  PHE87       0.0547
     82  CG        29.0160   50.3270   36.2770 C.ar   87  PHE87      -0.0202
     83  CD1       28.6240   49.1130   35.7630 C.ar   87  PHE87      -0.0042
     84  CD2       30.2980   50.4590   36.7670 C.ar   87  PHE87      -0.0042
     85  CE1       29.4780   48.0340   35.7740 C.ar   87  PHE87      -0.0003
     86  CE2       31.1580   49.3870   36.7780 C.ar   87  PHE87      -0.0003
     87  CZ        30.7490   48.1730   36.2810 C.ar   87  PHE87      -0.0000
     88  N         26.9790   54.0110   37.5790 N.am   88  GLU88      -0.1965
     89  CA        26.4210   55.3230   37.3170 C.3    88  GLU88       0.1733
     90  C         26.3780   55.4700   35.7930 C.2    88  GLU88       0.2616
     91  O         27.3350   55.1300   35.1180 O.2    88  GLU88      -0.2715
     92  CB        27.3480   56.4000   37.8730 C.3    88  GLU88       0.0429
     93  CG        28.8050   56.1730   37.4640 C.3    88  GLU88       0.1163
     94  CD        29.7210   57.3690   37.6980 C.2    88  GLU88       0.3649
     95  OE1       29.2350   58.5110   37.7700 O.co2  88  GLU88      -0.2457
     96  OE2       30.9420   57.1570   37.7980 O.co2  88  GLU88      -0.2457
     97  N         25.2790   55.9850   35.2670 N.am   89  LEU89      -0.1963
     98  CA        25.1520   56.1630   33.8390 C.3    89  LEU89       0.1728
     99  C         26.1610   57.2120   33.3400 C.2    89  LEU89       0.2616
    100  O         26.3470   58.2390   33.9640 O.2    89  LEU89      -0.2715
    101  CB        23.7360   56.5860   33.4820 C.3    89  LEU89       0.0311
    102  CG        23.3010   56.4370   32.0320 C.3    89  LEU89       0.0022
    103  CD1       23.1650   54.9870   31.6190 C.3    89  LEU89       0.0001
    104  CD2       21.9950   57.1700   31.8100 C.3    89  LEU89       0.0001
    105  N         26.7820   56.9500   32.2000 N.am   90  VAL90      -0.1963
    106  CA        27.7610   57.8410   31.5860 C.3    90  VAL90       0.1727
    107  C         27.3740   57.9970   30.1000 C.2    90  VAL90       0.2616
    108  O         26.3350   57.5220   29.6770 O.2    90  VAL90      -0.2715
    109  CB        29.2020   57.2900   31.7560 C.3    90  VAL90       0.0290
    110  CG1       29.5580   57.1490   33.2260 C.3    90  VAL90       0.0023
    111  CG2       29.3670   55.9630   31.0430 C.3    90  VAL90       0.0023
    112  N         28.1800   58.6870   29.2970 N.am   91  ASN91      -0.1958
    113  CA        27.8820   58.8100   27.8710 C.3    91  ASN91       0.1819
    114  C         27.8940   57.4350   27.1850 C.2    91  ASN91       0.2621
    115  O         28.6570   56.5560   27.5510 O.2    91  ASN91      -0.2715
    116  CB        28.9120   59.6860   27.1660 C.3    91  ASN91       0.1195
    117  CG        28.8260   61.1430   27.5650 C.2    91  ASN91       0.2630
    118  OD1       28.0280   61.5330   28.4050 O.2    91  ASN91      -0.2716
    119  ND2       29.6670   61.9550   26.9510 N.am   91  ASN91      -0.0877
    120  N         27.0560   57.2530   26.1740 N.am   92  GLN92      -0.1977
    121  CA        27.0050   55.9620   25.4890 C.3    92  GLN92       0.1601
    122  C         28.3330   55.6620   24.7700 C.2    92  GLN92       0.2287
    123  O         28.7980   54.5230   24.7840 O.2    92  GLN92      -0.2864
    124  CB        25.8140   55.8850   24.5350 C.3    92  GLN92       0.0394
    125  CG        25.5730   54.4150   24.1000 C.3    92  GLN92       0.0908
    126  CD        24.3310   54.1980   23.3120 C.2    92  GLN92       0.2608
    127  OE1       23.7800   55.1400   22.7290 O.2    92  GLN92      -0.2717
    128  NE2       23.8880   52.9400   23.2170 N.am   92  GLN92      -0.0878
    129  N         38.1570   51.8400   27.1680 N.3   137  ASN137     -0.1240
    130  CA        38.0000   51.7030   28.6250 C.3   137  ASN137      0.1653
    131  C         38.0110   53.0630   29.2990 C.2   137  ASN137      0.2266
    132  O         38.0440   53.1350   30.5240 O.2   137  ASN137     -0.2867
    133  CB        39.0610   50.7790   29.1980 C.3   137  ASN137      0.1155
    134  CG        38.7810   49.3450   28.8930 C.2   137  ASN137      0.2627
    135  OD1       37.6500   48.9830   28.6430 O.2   137  ASN137     -0.2716
    136  ND2       39.7790   48.4880   28.9550 N.am  137  ASN137     -0.0877
    137  N         35.6280   55.9620   29.6810 N.3   139  LEU139     -0.1245
    138  CA        34.2710   56.4630   29.5570 C.3   139  LEU139      0.1561
    139  C         34.2440   57.9810   29.7690 C.2   139  LEU139      0.2260
    140  O         35.1930   58.5320   30.3190 O.2   139  LEU139     -0.2867
    141  CB        33.3800   55.7570   30.5810 C.3   139  LEU139      0.0270
    142  CG        33.4700   54.2120   30.5730 C.3   139  LEU139      0.0019
    143  CD1       32.5020   53.6220   31.5450 C.3   139  LEU139      0.0001
    144  CD2       33.1960   53.6550   29.1880 C.3   139  LEU139      0.0001
    145  N         37.5270   52.6290   33.3810 N.3   149  ALA149     -0.1231
    146  CA        36.7480   51.4060   33.5370 C.3   149  ALA149      0.1694
    147  C         37.5710   50.1390   33.2280 C.2   149  ALA149      0.2592
    148  O         38.7190   50.2440   32.8250 O.2   149  ALA149     -0.2718
    149  CB        35.5210   51.4640   32.6420 C.3   149  ALA149      0.0304
    150  N         36.9540   48.9730   33.4300 N.am  150  ASP150     -0.1974
    151  CA        37.5640   47.6550   33.2020 C.3   150  ASP150      0.1709
    152  C         38.8130   47.2890   34.0180 C.2   150  ASP150      0.2293
    153  O         39.9220   47.4370   33.5400 O.2   150  ASP150     -0.2864
    154  CB        37.8320   47.3900   31.7260 C.3   150  ASP150      0.1436
    155  CG        37.9030   45.9020   31.4210 C.2   150  ASP150      0.3671
    156  OD1       38.1900   45.1320   32.3520 O.co2 150  ASP150     -0.2456
    157  OD2       37.6630   45.5000   30.2720 O.co2 150  ASP150     -0.2456
@<TRIPOS>BOND
     1    20    21    1
     2    20    19    1
     3   127   126    2
     4    19    18    1
     5   128   126   am
     6   126   125    1
     7    18    17    1
     8   125   124    1
     9     4     3    2
    10   124   121    1
    11    17    14    1
    12   122   123    2
    13   122   121    1
    14     3     2    1
    15     3     9   am
    16    10     9    1
    17    10    11    1
    18     2     1    1
    19     2     5    1
    20   121   120    1
    21    11    13   am
    22    11    12    2
    23    13    14    1
    24    14    15    1
    25   120   114   am
    26     7     5    1
    27     5     6    1
    28    16    15    2
    29    25    24    2
    30    29    28    2
    31    15    22   am
    32   119   117   am
    33   116   117    1
    34   116   113    1
    35   129   130    1
    36   114   115    2
    37   114   113    1
    38   117   118    2
    39    27    28    1
    40    27    26    1
    41    27    30    1
    42    35    34    2
    43    24    26   am
    44    24    23    1
    45    22    23    1
    46     6     8    1
    47   113   112    1
    48    30    31    1
    49    32    33    1
    50   130   133    1
    51   130   131    1
    52   135   134    2
    53    34    33    1
    54   134   136   am
    55   134   133    1
    56   144   142    1
    57    36    33    1
    58    36    38    1
    59    36    37    1
    60    46    44    1
    61   112   107   am
    62   131   132    2
    63    43    44    1
    64    43    40    1
    65   138   137    1
    66   138   139    1
    67   138   141    1
    68   108   107    2
    69    39    40    1
    70   139   140    2
    71   107   106    1
    72    44    45    1
    73   157   155   ar
    74    40    41    1
    75   142   141    1
    76   142   143    1
    77   111   109    1
    78    42    41    2
    79   155   154    1
    80   155   156   ar
    81   106   109    1
    82   106   105    1
    83   103   102    1
    84   154   151    1
    85   109   110    1
    86   104   102    1
    87   102   101    1
    88   105    99   am
    89    58    57    1
    90    58    59    1
    91    57    56    1
    92   149   146    1
    93    51    48    1
    94   148   147    2
    95    53    56    1
    96    53    54    1
    97    53    52    1
    98   151   150    1
    99   151   152    1
   100   147   150   am
   101   147   146    1
   102    48    49    1
   103    48    47    1
   104    99    98    1
   105    99   100    2
   106   145   146    1
   107   101    98    1
   108   153   152    2
   109    60    59    1
   110    54    55    2
   111    98    97    1
   112    49    50    2
   113    91    90    2
   114    68    67   ar
   115    97    90   am
   116    76    74    1
   117    83    85   ar
   118    83    82   ar
   119    85    87   ar
   120    90    89    1
   121    74    75    1
   122    74    71    1
   123    69    67   ar
   124    67    66    1
   125    81    82    1
   126    81    78    1
   127    82    84   ar
   128    87    86   ar
   129    80    79    2
   130    84    86   ar
   131    71    70    1
   132    71    72    1
   133    79    78    1
   134    79    88   am
   135    89    88    1
   136    89    92    1
   137    78    77    1
   138    93    94    1
   139    93    92    1
   140    66    65    1
   141    94    95   ar
   142    94    96   ar
   143    65    62    1
   144    72    73    2
   145    62    61    1
   146    62    63    1
   147    63    64    2
