@<TRIPOS>MOLECULE
tmp/5vt4D00.pdb
 195 185 0 0 0
SMALL
GASTEIGER

@<TRIPOS>ATOM
      1  N        192.6270  192.0930 -352.8370 N.3   250  LYS250     -0.1245
      2  CA       191.6480  193.1250 -352.5360 C.3   250  LYS250      0.1561
      3  C        191.6390  194.2040 -353.6020 C.2   250  LYS250      0.2260
      4  O        192.6720  194.5340 -354.1850 O.2   250  LYS250     -0.2867
      5  CB       191.9300  193.7520 -351.1670 C.3   250  LYS250      0.0271
      6  CG       191.8190  192.8060 -349.9770 C.3   250  LYS250      0.0035
      7  CD       190.3740  192.6680 -349.5130 C.3   250  LYS250      0.0206
      8  CE       190.2680  191.8810 -348.2100 C.3   250  LYS250      0.1093
      9  NZ       190.3680  192.7390 -346.9960 N.3   250  LYS250     -0.1314
     10  N        189.0890  198.4240 -350.0700 N.3   254  ASN254     -0.1240
     11  CA       188.8900  197.1650 -349.3550 C.3   254  ASN254      0.1653
     12  C        187.7000  196.3710 -349.8790 C.2   254  ASN254      0.2266
     13  O        186.9510  195.7680 -349.1090 O.2   254  ASN254     -0.2867
     14  CB       188.7200  197.4050 -347.8580 C.3   254  ASN254      0.1155
     15  CG       188.9260  196.1440 -347.0450 C.2   254  ASN254      0.2627
     16  OD1      190.0340  195.6170 -346.9690 O.2   254  ASN254     -0.2716
     17  ND2      187.8500  195.6450 -346.4410 N.am  254  ASN254     -0.0877
     18  N        196.8590  194.8690 -351.3900 N.3   265  SER265     -0.1217
     19  CA       197.4630  195.2530 -350.1170 C.3   265  SER265      0.1889
     20  C        198.8610  194.6810 -349.9740 C.2   265  SER265      0.2288
     21  O        199.0480  193.4780 -350.1270 O.2   265  SER265     -0.2866
     22  CB       196.5970  194.7760 -348.9540 C.3   265  SER265      0.2089
     23  OG       197.2790  194.9230 -347.7230 O.3   265  SER265     -0.2183
     24  N        200.2670  193.9770 -347.4310 N.3   267  TRP267     -0.1241
     25  CA       200.2620  193.0390 -346.3260 C.3   267  TRP267      0.1605
     26  C        199.8550  191.6590 -346.8120 C.2   267  TRP267      0.2264
     27  O        199.8890  190.6920 -346.0580 O.2   267  TRP267     -0.2867
     28  CB       199.3630  193.5430 -345.1960 C.3   267  TRP267      0.0550
     29  CG       200.0250  194.6580 -344.4450 C.ar  267  TRP267      0.0003
     30  CD1      200.8150  194.5420 -343.3420 C.ar  267  TRP267      0.0946
     31  CD2      199.9900  196.0530 -344.7660 C.ar  267  TRP267      0.0152
     32  NE1      201.2660  195.7770 -342.9510 N.ar  267  TRP267     -0.2442
     33  CE2      200.7730  196.7220 -343.8100 C.ar  267  TRP267      0.0810
     34  CE3      199.3670  196.8020 -345.7670 C.ar  267  TRP267      0.0012
     35  CZ2      200.9470  198.1030 -343.8210 C.ar  267  TRP267      0.0191
     36  CZ3      199.5430  198.1750 -345.7760 C.ar  267  TRP267      0.0001
     37  CH2      200.3250  198.8100 -344.8120 C.ar  267  TRP267      0.0015
     38  N        202.4310  186.5620 -341.7420 N.3   310  GLN310     -0.1245
     39  CA       201.1940  186.1070 -342.3430 C.3   310  GLN310      0.1566
     40  C        201.5390  185.9590 -343.8110 C.2   310  GLN310      0.2260
     41  O        202.6270  186.3680 -344.2150 O.2   310  GLN310     -0.2867
     42  CB       200.0680  187.1090 -342.1160 C.3   310  GLN310      0.0367
     43  CG       200.3060  188.4390 -342.8040 C.3   310  GLN310      0.0905
     44  CD       199.5110  189.5710 -342.1910 C.2   310  GLN310      0.2608
     45  OE1      199.0580  189.4870 -341.0480 O.2   310  GLN310     -0.2717
     46  NE2      199.3430  190.6460 -342.9470 N.am  310  GLN310     -0.0878
     47  N        190.8780  189.3100 -337.2420 N.3   338  ASN338     -0.1240
     48  CA       191.1230  189.7870 -335.8890 C.3   338  ASN338      0.1653
     49  C        189.9180  190.6340 -335.5160 C.2   338  ASN338      0.2266
     50  O        190.0060  191.8590 -335.4610 O.2   338  ASN338     -0.2867
     51  CB       192.4490  190.5470 -335.7510 C.3   338  ASN338      0.1155
     52  CG       192.6000  191.6620 -336.7500 C.2   338  ASN338      0.2627
     53  OD1      191.9580  191.6620 -337.7960 O.2   338  ASN338     -0.2716
     54  ND2      193.4520  192.6300 -336.4290 N.am  338  ASN338     -0.0877
     55  N        187.9540  192.9930 -337.5970 N.3   341  LYS341     -0.1231
     56  CA       188.5980  193.1340 -338.8990 C.3   341  LYS341      0.1693
     57  C        188.7030  191.7790 -339.5980 C.2   341  LYS341      0.2592
     58  O        189.0180  190.7710 -338.9650 O.2   341  LYS341     -0.2718
     59  CB       189.9690  193.8040 -338.7690 C.3   341  LYS341      0.0285
     60  CG       189.9130  195.1830 -338.1190 C.3   341  LYS341      0.0035
     61  CD       191.2940  195.8030 -337.9210 C.3   341  LYS341      0.0206
     62  CE       191.1970  197.1150 -337.1420 C.3   341  LYS341      0.1093
     63  NZ       192.4710  197.8930 -337.1250 N.3   341  LYS341     -0.1314
     64  N        188.4430  191.7630 -340.9020 N.am  342  LYS342     -0.1966
     65  CA       188.6070  190.5530 -341.6990 C.3   342  LYS342      0.1728
     66  C        189.6680  190.7130 -342.7730 C.2   342  LYS342      0.2616
     67  O        189.7380  191.7420 -343.4380 O.2   342  LYS342     -0.2715
     68  CB       187.2770  190.1530 -342.3340 C.3   342  LYS342      0.0311
     69  CG       186.2250  189.7410 -341.3200 C.3   342  LYS342      0.0038
     70  CD       184.9470  189.2640 -341.9870 C.3   342  LYS342      0.0206
     71  CE       183.8910  188.9220 -340.9430 C.3   342  LYS342      0.1093
     72  NZ       182.6520  188.3470 -341.5320 N.3   342  LYS342     -0.1314
     73  N        190.4920  189.6880 -342.9410 N.am  343  TYR343     -0.1974
     74  CA       191.5860  189.7290 -343.9030 C.3   343  TYR343      0.1639
     75  C        191.3880  188.6560 -344.9640 C.2   343  TYR343      0.2290
     76  O        192.1400  187.6820 -345.0070 O.2   343  TYR343     -0.2864
     77  CB       192.9250  189.5170 -343.2030 C.3   343  TYR343      0.0560
     78  CG       193.2210  190.4820 -342.0850 C.ar  343  TYR343     -0.0198
     79  CD1      193.9900  190.0930 -340.9970 C.ar  343  TYR343     -0.0009
     80  CD2      192.7560  191.7880 -342.1260 C.ar  343  TYR343     -0.0009
     81  CE1      194.2700  190.9740 -339.9720 C.ar  343  TYR343      0.0417
     82  CE2      193.0350  192.6780 -341.1090 C.ar  343  TYR343      0.0417
     83  CZ       193.7920  192.2670 -340.0370 C.ar  343  TYR343      0.1957
     84  OH       194.0700  193.1550 -339.0260 O.3   343  TYR343     -0.2866
     85  N        192.2100  188.3390 -347.8840 N.3   345  ASP345     -0.1225
     86  CA       193.3010  188.1120 -348.8280 C.3   345  ASP345      0.1805
     87  C        194.4950  187.3410 -348.2760 C.2   345  ASP345      0.2597
     88  O        195.4670  187.1280 -348.9970 O.2   345  ASP345     -0.2718
     89  CB       193.7970  189.4450 -349.3970 C.3   345  ASP345      0.1424
     90  CG       194.0690  190.4700 -348.3250 C.2   345  ASP345      0.3668
     91  OD1      193.6060  190.2690 -347.1840 O.co2 345  ASP345     -0.2456
     92  OD2      194.7630  191.4640 -348.6190 O.co2 345  ASP345     -0.2456
     93  N        194.4420  186.9240 -347.0160 N.am  346  ILE346     -0.1980
     94  CA       195.5800  186.2180 -346.4250 C.3   346  ILE346      0.1595
     95  C        195.2410  185.0540 -345.5140 C.2   346  ILE346      0.2287
     96  O        194.1430  184.9570 -344.9670 O.2   346  ILE346     -0.2864
     97  CB       196.4690  187.1670 -345.6070 C.3   346  ILE346      0.0276
     98  CG1      195.6260  187.9300 -344.5920 C.3   346  ILE346      0.0022
     99  CG2      197.2260  188.1210 -346.5100 C.3   346  ILE346      0.0022
    100  CD1      196.4330  188.6270 -343.5230 C.3   346  ILE346      0.0001
    101  N        209.2390  197.2900 -337.8160 N.3   378  ARG378     -0.1245
    102  CA       207.8890  197.5520 -337.3510 C.3   378  ARG378      0.1563
    103  C        207.0890  196.2690 -337.4670 C.2   378  ARG378      0.2260
    104  O        206.7580  195.8330 -338.5680 O.2   378  ARG378     -0.2867
    105  CB       207.2590  198.6990 -338.1480 C.3   378  ARG378      0.0307
    106  CG       205.8650  199.1280 -337.7100 C.3   378  ARG378      0.0489
    107  CD       204.7640  198.2960 -338.3390 C.3   378  ARG378      0.2205
    108  NE       203.4780  198.9680 -338.2420 N.pl3 378  ARG378     -0.0865
    109  CZ       202.3340  198.4520 -338.6690 C.cat 378  ARG378      0.5346
    110  NH1      202.3120  197.2550 -339.2360 N.pl3 378  ARG378      0.1354
    111  NH2      201.2130  199.1400 -338.5360 N.pl3 378  ARG378      0.1354
    112  N        204.0700  193.9250 -337.4860 N.3   380  ASP380     -0.1225
    113  CA       202.6380  193.8960 -337.7440 C.3   380  ASP380      0.1805
    114  C        201.8940  192.9400 -336.8230 C.2   380  ASP380      0.2597
    115  O        202.2260  191.7550 -336.7610 O.2   380  ASP380     -0.2718
    116  CB       202.3890  193.5100 -339.1950 C.3   380  ASP380      0.1424
    117  CG       200.9550  193.6800 -339.5970 C.2   380  ASP380      0.3668
    118  OD1      200.5410  194.8350 -339.8030 O.co2 380  ASP380     -0.2456
    119  OD2      200.2480  192.6590 -339.7170 O.co2 380  ASP380     -0.2456
    120  N        200.8740  193.4570 -336.1430 N.am  381  ASN381     -0.1974
    121  CA       199.9670  192.6580 -335.3140 C.3   381  ASN381      0.1688
    122  C        200.6360  191.6000 -334.4570 C.2   381  ASN381      0.2292
    123  O        200.2880  190.4260 -334.5630 O.2   381  ASN381     -0.2864
    124  CB       198.9510  191.9350 -336.1970 C.3   381  ASN381      0.1181
    125  CG       197.9440  192.8630 -336.7990 C.2   381  ASN381      0.2629
    126  OD1      198.2940  193.9370 -337.2850 O.2   381  ASN381     -0.2716
    127  ND2      196.6780  192.4580 -336.7770 N.am  381  ASN381     -0.0877
    128  N        200.2170  190.8560 -331.5270 N.3   383  HIS383     -0.1241
    129  CA       199.3230  190.2740 -330.5340 C.3   383  HIS383      0.1621
    130  C        198.5140  189.1180 -331.1080 C.2   383  HIS383      0.2264
    131  O        197.7320  188.4940 -330.3910 O.2   383  HIS383     -0.2867
    132  CB       198.3830  191.3300 -329.9400 C.3   383  HIS383      0.0745
    133  CG       197.5170  192.0220 -330.9460 C.ar  383  HIS383      0.0817
    134  ND1      198.0270  192.8130 -331.9530 N.ar  383  HIS383     -0.2268
    135  CD2      196.1710  192.0630 -331.0810 C.ar  383  HIS383      0.1154
    136  CE1      197.0330  193.3000 -332.6730 C.ar  383  HIS383      0.1986
    137  NE2      195.8960  192.8610 -332.1640 N.ar  383  HIS383     -0.2212
    138  N        203.1990  196.8850 -333.1550 N.3   409  GLU409     -0.1245
    139  CA       201.9460  197.4930 -333.5880 C.3   409  GLU409      0.1567
    140  C        200.7780  196.7240 -332.9870 C.2   409  GLU409      0.2260
    141  O        200.0960  195.9740 -333.6800 O.2   409  GLU409     -0.2867
    142  CB       201.8430  197.5230 -335.1090 C.3   409  GLU409      0.0388
    143  CG       200.6530  198.3170 -335.6240 C.3   409  GLU409      0.1160
    144  CD       199.5990  197.4450 -336.2830 C.2   409  GLU409      0.3649
    145  OE1      199.9070  196.2860 -336.6360 O.co2 409  GLU409     -0.2457
    146  OE2      198.4620  197.9250 -336.4580 O.co2 409  GLU409     -0.2457
    147  N        197.3720  197.2230 -331.2270 N.3   411  PHE411     -0.1241
    148  CA       196.1690  197.8870 -330.7550 C.3   411  PHE411      0.1605
    149  C        195.2290  196.8270 -330.2310 C.2   411  PHE411      0.2264
    150  O        194.4920  196.1940 -330.9860 O.2   411  PHE411     -0.2867
    151  CB       195.5140  198.6890 -331.8700 C.3   411  PHE411      0.0534
    152  CG       196.4030  199.7420 -332.4450 C.ar  411  PHE411     -0.0203
    153  CD1      196.7420  200.8590 -331.7050 C.ar  411  PHE411     -0.0042
    154  CD2      196.9320  199.5980 -333.7140 C.ar  411  PHE411     -0.0042
    155  CE1      197.5740  201.8200 -332.2310 C.ar  411  PHE411     -0.0003
    156  CE2      197.7660  200.5560 -334.2390 C.ar  411  PHE411     -0.0003
    157  CZ       198.0860  201.6670 -333.5010 C.ar  411  PHE411     -0.0000
    158  N        195.5250  203.0590 -341.2230 N.3   466  ASP466     -0.1239
    159  CA       194.3440  202.4040 -340.6750 C.3   466  ASP466      0.1674
    160  C        193.5650  203.2780 -339.6990 C.2   466  ASP466      0.2266
    161  O        192.4890  202.8920 -339.2510 O.2   466  ASP466     -0.2867
    162  CB       194.7500  201.0940 -339.9990 C.3   466  ASP466      0.1410
    163  CG       195.6550  200.2510 -340.8730 C.2   466  ASP466      0.3668
    164  OD1      195.1420  199.6630 -341.8430 O.co2 466  ASP466     -0.2456
    165  OD2      196.8770  200.2040 -340.6290 O.co2 466  ASP466     -0.2456
    166  N        188.6230  204.6150 -341.2510 N.3   514  GLU514     -0.1245
    167  CA       189.3550  204.4100 -342.5030 C.3   514  GLU514      0.1567
    168  C        189.3540  205.6520 -343.3910 C.2   514  GLU514      0.2260
    169  O        188.3810  206.4020 -343.4060 O.2   514  GLU514     -0.2867
    170  CB       188.7870  203.2290 -343.2830 C.3   514  GLU514      0.0388
    171  CG       189.0010  201.8890 -342.6330 C.3   514  GLU514      0.1160
    172  CD       190.4200  201.4060 -342.8370 C.2   514  GLU514      0.3649
    173  OE1      190.9430  201.5670 -343.9590 O.co2 514  GLU514     -0.2457
    174  OE2      191.0090  200.8520 -341.8890 O.co2 514  GLU514     -0.2457
    175  N        196.1070  201.9390 -349.1080 N.3   520  LYS520     -0.1231
    176  CA       196.3810  200.5120 -348.9540 C.3   520  LYS520      0.1693
    177  C        195.9770  199.6780 -350.1670 C.2   520  LYS520      0.2592
    178  O        196.5450  198.6170 -350.4110 O.2   520  LYS520     -0.2718
    179  CB       195.6800  199.9690 -347.7040 C.3   520  LYS520      0.0285
    180  CG       196.1850  200.5610 -346.3960 C.3   520  LYS520      0.0035
    181  CD       195.4770  199.9540 -345.2000 C.3   520  LYS520      0.0206
    182  CE       194.0120  200.3110 -345.1910 C.3   520  LYS520      0.1093
    183  NZ       193.3050  199.7050 -344.0400 N.3   520  LYS520     -0.1314
    184  N        195.0250  200.1700 -350.9470 N.am  521  TYR521     -0.1976
    185  CA       194.4740  199.3720 -352.0300 C.3   521  TYR521      0.1639
    186  C        194.6420  200.0470 -353.3780 C.2   521  TYR521      0.2290
    187  O        194.1490  199.5510 -354.3910 O.2   521  TYR521     -0.2864
    188  CB       192.9940  199.0900 -351.7870 C.3   521  TYR521      0.0560
    189  CG       192.6480  198.7450 -350.3590 C.ar  521  TYR521     -0.0198
    190  CD1      192.8280  197.4600 -349.8730 C.ar  521  TYR521     -0.0009
    191  CD2      192.1230  199.7000 -349.5010 C.ar  521  TYR521     -0.0009
    192  CE1      192.5030  197.1390 -348.5710 C.ar  521  TYR521      0.0417
    193  CE2      191.7970  199.3880 -348.1990 C.ar  521  TYR521      0.0417
    194  CZ       191.9900  198.1080 -347.7410 C.ar  521  TYR521      0.1957
    195  OH       191.6650  197.7930 -346.4470 O.3   521  TYR521     -0.2866
@<TRIPOS>BOND
     1   187   186    2
     2     4     3    2
     3     3     2    1
     4   186   185    1
     5     1     2    1
     6     2     5    1
     7   185   188    1
     8   185   184    1
     9   188   189    1
    10    18    19    1
    11     5     6    1
    12   184   177   am
    13   178   177    2
    14   189   190   ar
    15   189   191   ar
    16   177   176    1
    17    21    20    2
    18    19    20    1
    19    19    22    1
    20    10    11    1
    21     6     7    1
    22    12    11    1
    23    12    13    2
    24   190   192   ar
    25     7     8    1
    26   191   193   ar
    27    89    86    1
    28    89    90    1
    29    11    14    1
    30   175   176    1
    31    88    87    2
    32   176   179    1
    33    22    23    1
    34    86    87    1
    35    86    85    1
    36    92    90   ar
    37   192   194   ar
    38    90    91   ar
    39    87    93   am
    40     8     9    1
    41   193   194   ar
    42    14    15    1
    43   194   195    1
    44   179   180    1
    45    24    25    1
    46    15    16    2
    47    15    17   am
    48    93    94    1
    49    26    25    1
    50    26    27    2
    51    99    97    1
    52    94    97    1
    53    94    95    1
    54   180   181    1
    55    25    28    1
    56    36    34   ar
    57    36    37   ar
    58    34    31   ar
    59    97    98    1
    60    95    96    2
    61   181   182    1
    62    28    29    1
    63   182   183    1
    64    76    75    2
    65    75    74    1
    66    37    35   ar
    67    31    29   ar
    68    31    33   ar
    69    98   100    1
    70    29    30   ar
    71    41    40    2
    72   173   172   ar
    73    74    77    1
    74    74    73    1
    75    35    33   ar
    76    40    39    1
    77    33    32   ar
    78    67    66    2
    79   169   168    2
    80   168   167    1
    81    30    32   ar
    82   170   171    1
    83   170   167    1
    84    77    78    1
    85    46    44   am
    86    73    66   am
    87   172   171    1
    88   172   174   ar
    89    43    44    1
    90    43    42    1
    91    66    65    1
    92   167   166    1
    93    39    42    1
    94    39    38    1
    95    68    65    1
    96    68    69    1
    97    44    45    2
    98    80    78   ar
    99    80    82   ar
   100    78    79   ar
   101    70    69    1
   102    70    71    1
   103   164   163   ar
   104    65    64    1
   105    72    71    1
   106   158   159    1
   107    82    83   ar
   108    79    81   ar
   109    64    57   am
   110   163   165   ar
   111   163   162    1
   112   159   162    1
   113   159   160    1
   114    83    81   ar
   115    83    84    1
   116   118   117   ar
   117   119   117   ar
   118   160   161    2
   119    57    58    2
   120    57    56    1
   121   117   116    1
   122   110   109    1
   123   116   113    1
   124    56    59    1
   125    56    55    1
   126    59    60    1
   127   109   111    1
   128   109   108    2
   129   104   103    2
   130   107   108    1
   131   107   106    1
   132   105   106    1
   133   105   102    1
   134    60    61    1
   135    61    62    1
   136   101   102    1
   137    53    52    2
   138   113   112    1
   139   113   114    1
   140   103   102    1
   141   126   125    2
   142    47    48    1
   143    62    63    1
   144   114   115    2
   145   114   120   am
   146   125   127   am
   147   125   124    1
   148    52    54   am
   149    52    51    1
   150   145   144   ar
   151   146   144   ar
   152   144   143    1
   153   124   121    1
   154   120   121    1
   155    48    51    1
   156    48    49    1
   157   143   142    1
   158    49    50    2
   159   121   122    1
   160   142   139    1
   161   123   122    2
   162   156   154   ar
   163   156   157   ar
   164   154   152   ar
   165   141   140    2
   166   139   138    1
   167   139   140    1
   168   157   155   ar
   169   136   137   ar
   170   136   134   ar
   171   152   151    1
   172   152   153   ar
   173   155   153   ar
   174   137   135   ar
   175   134   133   ar
   176   151   148    1
   177   128   129    1
   178   147   148    1
   179   130   129    1
   180   130   131    2
   181   135   133   ar
   182   150   149    2
   183   133   132    1
   184   148   149    1
   185   129   132    1
