@<TRIPOS>MOLECULE
tmp/5vtaB04.pdb
 217 214 0 0 0
SMALL
GASTEIGER

@<TRIPOS>ATOM
      1  N        -43.4230   38.5620   -1.7610 N.3    60  ASP60      -0.1225
      2  CA       -43.9990   38.7930   -0.4300 C.3    60  ASP60       0.1805
      3  C        -43.0410   38.4070    0.7250 C.2    60  ASP60       0.2598
      4  O        -43.3910   38.5760    1.8900 O.2    60  ASP60      -0.2718
      5  CB       -45.3530   38.0550   -0.3040 C.3    60  ASP60       0.1424
      6  CG       -46.4270   38.8730    0.4500 C.2    60  ASP60       0.3668
      7  OD1      -46.1540   40.0330    0.8520 O.co2  60  ASP60      -0.2456
      8  OD2      -47.5580   38.3450    0.6540 O.co2  60  ASP60      -0.2456
      9  N        -41.8260   37.9450    0.4190 N.am   61  SER61      -0.1938
     10  CA       -40.9090   37.4680    1.4590 C.3    61  SER61       0.2055
     11  C        -40.2850   38.5330    2.3680 C.2    61  SER61       0.2643
     12  O        -39.9020   38.2130    3.4970 O.2    61  SER61      -0.2714
     13  CB       -39.8070   36.5900    0.8560 C.3    61  SER61       0.2130
     14  OG       -38.9690   37.3410    0.0190 O.3    61  SER61      -0.2179
     15  N        -40.1950   39.7840    1.9160 N.am   62  ILE62      -0.1963
     16  CA       -39.5350   40.8170    2.7250 C.3    62  ILE62       0.1727
     17  C        -40.3240   41.0330    4.0210 C.2    62  ILE62       0.2616
     18  O        -41.5190   41.3000    3.9870 O.2    62  ILE62      -0.2715
     19  CB       -39.3600   42.1550    1.9750 C.3    62  ILE62       0.0290
     20  CG1      -38.5090   41.9890    0.7010 C.3    62  ILE62       0.0022
     21  CG2      -38.7110   43.1930    2.8860 C.3    62  ILE62       0.0023
     22  CD1      -37.0610   41.5920    0.9200 C.3    62  ILE62       0.0001
     23  N        -39.6420   40.8600    5.1500 N.am   63  SER63      -0.1950
     24  CA       -40.2190   41.0680    6.4760 C.3    63  SER63       0.1924
     25  C        -39.8200   42.4100    7.0940 C.2    63  SER63       0.2314
     26  O        -40.5830   42.9530    7.8810 O.2    63  SER63      -0.2863
     27  CB       -39.8510   39.9150    7.4430 C.3    63  SER63       0.2116
     28  OG       -38.4860   39.9080    7.8130 O.3    63  SER63      -0.2180
     29  N        -38.1220   35.2960    7.0150 N.3    80  TYR80      -0.1241
     30  CA       -38.2000   35.3080    8.4870 C.3    80  TYR80       0.1605
     31  C        -38.7240   33.9410    8.9810 C.2    80  TYR80       0.2264
     32  O        -39.6930   33.4140    8.4130 O.2    80  TYR80      -0.2867
     33  CB       -39.0880   36.4810    8.9700 C.3    80  TYR80       0.0534
     34  CG       -39.3930   36.5970   10.4740 C.ar   80  TYR80      -0.0201
     35  CD1      -40.3880   35.8120   11.0730 C.ar   80  TYR80      -0.0009
     36  CD2      -38.7400   37.5610   11.2830 C.ar   80  TYR80      -0.0009
     37  CE1      -40.6950   35.9520   12.4390 C.ar   80  TYR80       0.0417
     38  CE2      -39.0420   37.7130   12.6500 C.ar   80  TYR80       0.0417
     39  CZ       -40.0150   36.9090   13.2400 C.ar   80  TYR80       0.1957
     40  OH       -40.3150   37.0520   14.6040 O.3    80  TYR80      -0.2866
     41  N        -39.3850   32.7860   12.9760 N.3    82  LYS82      -0.1245
     42  CA       -39.3540   33.0020   14.4320 C.3    82  LYS82       0.1561
     43  C        -38.7460   31.7950   15.1690 C.2    82  LYS82       0.2260
     44  O        -38.9310   30.6430   14.7660 O.2    82  LYS82      -0.2867
     45  CB       -40.7780   33.3280   14.9550 C.3    82  LYS82       0.0271
     46  CG       -41.0610   33.0690   16.4380 C.3    82  LYS82       0.0035
     47  CD       -42.3910   33.6880   16.9030 C.3    82  LYS82       0.0206
     48  CE       -42.6050   33.6290   18.4240 C.3    82  LYS82       0.1093
     49  NZ       -42.3190   32.2970   19.0570 N.3    82  LYS82      -0.1314
     50  N        -37.7860   32.1850   19.3600 N.3    84  TRP84      -0.1227
     51  CA       -38.4940   32.4830   20.6110 C.3    84  TRP84       0.1737
     52  C        -39.1640   33.8960   20.5640 C.2    84  TRP84       0.2595
     53  O        -39.5350   34.3640   19.4800 O.2    84  TRP84      -0.2718
     54  CB       -37.5420   32.2830   21.8060 C.3    84  TRP84       0.0564
     55  CG       -36.7470   31.0030   21.7550 C.ar   84  TRP84       0.0003
     56  CD1      -35.4010   30.8720   21.9050 C.ar   84  TRP84       0.0946
     57  CD2      -37.2500   29.6860   21.5300 C.ar   84  TRP84       0.0152
     58  NE1      -35.0320   29.5600   21.7890 N.ar   84  TRP84      -0.2442
     59  CE2      -36.1460   28.8040   21.5660 C.ar   84  TRP84       0.0810
     60  CE3      -38.5250   29.1600   21.3010 C.ar   84  TRP84       0.0012
     61  CZ2      -36.2750   27.4240   21.3770 C.ar   84  TRP84       0.0191
     62  CZ3      -38.6550   27.7740   21.1220 C.ar   84  TRP84       0.0001
     63  CH2      -37.5290   26.9270   21.1570 C.ar   84  TRP84       0.0015
     64  N        -39.3350   34.5580   21.7150 N.am   85  ARG85      -0.1966
     65  CA       -40.0790   35.8290   21.8000 C.3    85  ARG85       0.1729
     66  C        -39.5080   36.9410   20.9280 C.2    85  ARG85       0.2616
     67  O        -40.2630   37.6700   20.2810 O.2    85  ARG85      -0.2715
     68  CB       -40.1130   36.3130   23.2490 C.3    85  ARG85       0.0348
     69  CG       -40.9440   37.5620   23.4730 C.3    85  ARG85       0.0492
     70  CD       -40.7530   38.0810   24.8740 C.3    85  ARG85       0.2205
     71  NE       -41.4800   37.2930   25.8580 N.pl3  85  ARG85      -0.0865
     72  CZ       -42.7840   37.4010   26.1140 C.cat  85  ARG85       0.5346
     73  NH1      -43.5660   38.2410   25.4240 N.pl3  85  ARG85       0.1354
     74  NH2      -43.3160   36.6420   27.0690 N.pl3  85  ARG85       0.1354
     75  N        -38.1820   37.0820   20.9790 N.am   86  HIS86      -0.1973
     76  CA       -37.4130   38.0270   20.1600 C.3    86  HIS86       0.1656
     77  C        -36.5240   37.3860   19.0990 C.2    86  HIS86       0.2291
     78  O        -36.2940   37.9850   18.0560 O.2    86  HIS86      -0.2864
     79  CB       -36.5430   38.9180   21.0560 C.3    86  HIS86       0.0771
     80  CG       -37.3000   39.5800   22.1640 C.ar   86  HIS86       0.0820
     81  ND1      -37.1540   39.2140   23.4860 N.ar   86  HIS86      -0.2267
     82  CD2      -38.2200   40.5720   22.1490 C.ar   86  HIS86       0.1154
     83  CE1      -37.9480   39.9540   24.2400 C.ar   86  HIS86       0.1986
     84  NE2      -38.6000   40.7920   23.4530 N.ar   86  HIS86      -0.2212
     85  N        -35.0630   36.2480   27.4240 N.3   165  GLU165     -0.1231
     86  CA       -36.4310   36.3390   27.9530 C.3   165  GLU165      0.1699
     87  C        -36.5670   37.2330   29.1710 C.2   165  GLU165      0.2592
     88  O        -37.6340   37.8000   29.3850 O.2   165  GLU165     -0.2718
     89  CB       -36.9620   34.9330   28.2950 C.3   165  GLU165      0.0402
     90  CG       -38.3640   34.8570   28.9240 C.3   165  GLU165      0.1161
     91  CD       -39.4810   35.3630   28.0390 C.2   165  GLU165      0.3649
     92  OE1      -39.2900   35.4510   26.7970 O.co2 165  GLU165     -0.2457
     93  OE2      -40.5640   35.6610   28.5910 O.co2 165  GLU165     -0.2457
     94  N        -35.5200   37.3180   29.9870 N.am  166  GLU166     -0.1979
     95  CA       -35.6340   37.9140   31.3260 C.3   166  GLU166      0.1602
     96  C        -34.6860   39.0330   31.6570 C.2   166  GLU166      0.2287
     97  O        -34.8220   39.6470   32.7100 O.2   166  GLU166     -0.2864
     98  CB       -35.4430   36.8250   32.3900 C.3   166  GLU166      0.0415
     99  CG       -36.3520   35.6260   32.2250 C.3   166  GLU166      0.1163
    100  CD       -37.8090   35.9820   32.3670 C.2   166  GLU166      0.3649
    101  OE1      -38.1230   37.1260   32.7750 O.co2 166  GLU166     -0.2457
    102  OE2      -38.6460   35.0980   32.0860 O.co2 166  GLU166     -0.2457
    103  N        -34.0800   41.2960   26.8210 N.3   169  GLY169     -0.1225
    104  CA       -35.2960   41.3370   26.0410 C.3   169  GLY169      0.1811
    105  C        -35.0180   41.4920   24.5670 C.2   169  GLY169      0.2280
    106  O        -35.7780   42.1670   23.8760 O.2   169  GLY169     -0.2866
    107  N        -37.5520   45.1090   36.6810 N.3   312  PHE312     -0.1241
    108  CA       -37.0760   43.8070   36.2260 C.3   312  PHE312      0.1605
    109  C        -35.5530   43.7010   36.2340 C.2   312  PHE312      0.2264
    110  O        -35.0190   42.6230   36.4520 O.2   312  PHE312     -0.2867
    111  CB       -37.6640   43.5210   34.8540 C.3   312  PHE312      0.0534
    112  CG       -39.1810   43.4440   34.8720 C.ar  312  PHE312     -0.0203
    113  CD1      -39.8390   42.2620   35.2330 C.ar  312  PHE312     -0.0042
    114  CD2      -39.9590   44.5680   34.5810 C.ar  312  PHE312     -0.0042
    115  CE1      -41.2230   42.2080   35.2650 C.ar  312  PHE312     -0.0003
    116  CE2      -41.3470   44.5010   34.6130 C.ar  312  PHE312     -0.0003
    117  CZ       -41.9740   43.3260   34.9570 C.ar  312  PHE312     -0.0000
    118  N        -53.6050   39.8640   35.2850 N.3   500  TYR500     -0.1241
    119  CA       -52.2240   39.4340   35.0550 C.3   500  TYR500      0.1605
    120  C        -51.4280   39.3360   36.3600 C.2   500  TYR500      0.2264
    121  O        -50.7070   38.3680   36.5460 O.2   500  TYR500     -0.2867
    122  CB       -51.4580   40.3510   34.1160 C.3   500  TYR500      0.0534
    123  CG       -50.0670   39.8270   33.8920 C.ar  500  TYR500     -0.0201
    124  CD1      -49.8860   38.6130   33.2920 C.ar  500  TYR500     -0.0009
    125  CD2      -48.9430   40.4970   34.3520 C.ar  500  TYR500     -0.0009
    126  CE1      -48.6260   38.0960   33.0890 C.ar  500  TYR500      0.0417
    127  CE2      -47.6700   39.9780   34.1670 C.ar  500  TYR500      0.0417
    128  CZ       -47.5180   38.7710   33.5150 C.ar  500  TYR500      0.1957
    129  OH       -46.2910   38.1770   33.2620 O.3   500  TYR500     -0.2866
    130  N        -50.6990   33.2120   31.4340 N.3   583  SER583     -0.1202
    131  CA       -49.3600   33.0980   32.0850 C.3   583  SER583      0.2020
    132  C        -49.3980   33.4130   33.5830 C.2   583  SER583      0.2618
    133  O        -50.1350   32.7220   34.2680 O.2   583  SER583     -0.2717
    134  CB       -48.2240   33.7540   31.2470 C.3   583  SER583      0.2103
    135  OG       -47.6520   34.9570   31.7010 O.3   583  SER583     -0.2182
    136  N        -48.6610   34.4020   34.1030 N.am  584  TYR584     -0.1975
    137  CA       -48.7400   34.7310   35.5460 C.3   584  TYR584      0.1639
    138  C        -50.1910   34.8990   35.9740 C.2   584  TYR584      0.2290
    139  O        -50.6050   34.4120   36.9970 O.2   584  TYR584     -0.2864
    140  CB       -47.9810   36.0210   35.9100 C.3   584  TYR584      0.0560
    141  CG       -47.7190   36.1680   37.4100 C.ar  584  TYR584     -0.0198
    142  CD1      -48.7250   36.5520   38.2930 C.ar  584  TYR584     -0.0009
    143  CD2      -46.4590   35.9170   37.9410 C.ar  584  TYR584     -0.0009
    144  CE1      -48.4920   36.6560   39.6450 C.ar  584  TYR584      0.0417
    145  CE2      -46.2170   36.0320   39.2940 C.ar  584  TYR584      0.0417
    146  CZ       -47.2360   36.4020   40.1380 C.ar  584  TYR584      0.1957
    147  OH       -47.0090   36.5150   41.4740 O.3   584  TYR584     -0.2866
    148  N        -48.5350   29.1450   35.2010 N.3   609  VAL609     -0.1245
    149  CA       -47.4940   28.6330   36.0680 C.3   609  VAL609      0.1561
    150  C        -48.2220   27.7850   37.1070 C.2   609  VAL609      0.2260
    151  O        -49.2440   28.1930   37.6440 O.2   609  VAL609     -0.2867
    152  CB       -46.6960   29.7780   36.7660 C.3   609  VAL609      0.0252
    153  CG1      -46.2420   29.3870   38.1740 C.3   609  VAL609      0.0019
    154  CG2      -45.4820   30.1820   35.9390 C.3   609  VAL609      0.0019
    155  N        -43.6170   27.2130   41.1820 N.3   612  TRP612     -0.1241
    156  CA       -42.5090   28.1370   40.8890 C.3   612  TRP612      0.1605
    157  C        -41.1800   27.4210   40.6390 C.2   612  TRP612      0.2264
    158  O        -40.3610   27.9230   39.8720 O.2   612  TRP612     -0.2867
    159  CB       -42.3930   29.2520   41.9440 C.3   612  TRP612      0.0550
    160  CG       -43.4790   30.2420   41.7800 C.ar  612  TRP612      0.0003
    161  CD1      -44.5270   30.5060   42.6470 C.ar  612  TRP612      0.0946
    162  CD2      -43.6830   31.0700   40.6470 C.ar  612  TRP612      0.0152
    163  NE1      -45.3580   31.4610   42.1080 N.ar  612  TRP612     -0.2442
    164  CE2      -44.8650   31.8260   40.8820 C.ar  612  TRP612      0.0810
    165  CE3      -42.9910   31.2480   39.4420 C.ar  612  TRP612      0.0012
    166  CZ2      -45.3580   32.7470   39.9490 C.ar  612  TRP612      0.0191
    167  CZ3      -43.4970   32.1620   38.5020 C.ar  612  TRP612      0.0001
    168  CH2      -44.6640   32.9010   38.7690 C.ar  612  TRP612      0.0015
    169  N        -40.8190   27.2170   36.6770 N.3   615  TYR615     -0.1241
    170  CA       -40.5460   28.4250   35.8660 C.3   615  TYR615      0.1605
    171  C        -39.0560   28.7780   36.0160 C.2   615  TYR615      0.2264
    172  O        -38.4270   28.3550   36.9750 O.2   615  TYR615     -0.2867
    173  CB       -41.4980   29.6170   36.2090 C.3   615  TYR615      0.0534
    174  CG       -41.5440   30.6610   35.0900 C.ar  615  TYR615     -0.0201
    175  CD1      -42.1000   30.3400   33.8660 C.ar  615  TYR615     -0.0009
    176  CD2      -40.9760   31.9510   35.2370 C.ar  615  TYR615     -0.0009
    177  CE1      -42.1150   31.2460   32.8160 C.ar  615  TYR615      0.0417
    178  CE2      -40.9830   32.8690   34.1850 C.ar  615  TYR615      0.0417
    179  CZ       -41.5580   32.5070   32.9740 C.ar  615  TYR615      0.1957
    180  OH       -41.5980   33.3780   31.9030 O.3   615  TYR615     -0.2866
    181  N        -36.3240   34.9150   36.4280 N.3   619  TYR619     -0.1241
    182  CA       -37.6170   35.5340   36.8180 C.3   619  TYR619      0.1605
    183  C        -38.0910   35.1030   38.1940 C.2   619  TYR619      0.2264
    184  O        -38.4610   35.9500   39.0010 O.2   619  TYR619     -0.2867
    185  CB       -38.7340   35.2340   35.8180 C.3   619  TYR619      0.0534
    186  CG       -40.0830   35.8880   36.1190 C.ar  619  TYR619     -0.0201
    187  CD1      -40.9840   35.2930   37.0040 C.ar  619  TYR619     -0.0009
    188  CD2      -40.4710   37.0690   35.4910 C.ar  619  TYR619     -0.0009
    189  CE1      -42.2170   35.8670   37.2790 C.ar  619  TYR619      0.0417
    190  CE2      -41.7000   37.6510   35.7640 C.ar  619  TYR619      0.0417
    191  CZ       -42.5680   37.0370   36.6590 C.ar  619  TYR619      0.1957
    192  OH       -43.7920   37.5770   36.9430 O.3   619  TYR619     -0.2866
    193  N        -41.9320   28.6500   27.1730 N.3   663  ASN663     -0.1225
    194  CA       -41.9080   29.5720   28.3210 C.3   663  ASN663      0.1785
    195  C        -42.4060   28.8600   29.5790 C.2   663  ASN663      0.2597
    196  O        -41.6070   28.4400   30.4230 O.2   663  ASN663     -0.2718
    197  CB       -42.7530   30.8340   28.0030 C.3   663  ASN663      0.1169
    198  CG       -42.1950   32.0900   28.6170 C.2   663  ASN663      0.2627
    199  OD1      -41.4920   32.0600   29.6360 O.2   663  ASN663     -0.2716
    200  ND2      -42.4960   33.2150   27.9860 N.am  663  ASN663     -0.0877
    201  N        -43.7200   28.6890   29.6790 N.am  664  VAL664     -0.1980
    202  CA       -44.3430   28.0350   30.8170 C.3   664  VAL664      0.1595
    203  C        -44.5810   26.6660   30.2010 C.2   664  VAL664      0.2287
    204  O        -45.4420   26.5210   29.3410 O.2   664  VAL664     -0.2864
    205  CB       -45.6630   28.7230   31.2130 C.3   664  VAL664      0.0276
    206  CG1      -46.1890   28.1860   32.5270 C.3   664  VAL664      0.0022
    207  CG2      -45.4430   30.2060   31.3450 C.3   664  VAL664      0.0022
    208  N        -46.2960   29.9660   23.7480 N.3   693  HIS693     -0.1241
    209  CA       -46.8650   30.7730   24.8210 C.3   693  HIS693      0.1621
    210  C        -47.9000   31.7890   24.3740 C.2   693  HIS693      0.2264
    211  O        -48.8410   32.0410   25.0940 O.2   693  HIS693     -0.2867
    212  CB       -45.7510   31.5200   25.5490 C.3   693  HIS693      0.0745
    213  CG       -46.1350   31.9760   26.9080 C.ar  693  HIS693      0.0817
    214  ND1      -46.8050   31.1620   27.7950 N.ar  693  HIS693     -0.2268
    215  CD2      -45.9270   33.1470   27.5440 C.ar  693  HIS693      0.1154
    216  CE1      -47.0230   31.8260   28.9110 C.ar  693  HIS693      0.1986
    217  NE2      -46.4980   33.0340   28.7840 N.ar  693  HIS693     -0.2212
@<TRIPOS>BOND
     1     1     2    1
     2     2     5    1
     3     2     3    1
     4     5     6    1
     5    14    13    1
     6     9     3   am
     7     9    10    1
     8     6     8   ar
     9     6     7   ar
    10    20    22    1
    11    20    19    1
    12     3     4    2
    13    13    10    1
    14    10    11    1
    15    15    11   am
    16    15    16    1
    17    19    16    1
    18    19    21    1
    19    11    12    2
    20    16    17    1
    21    18    17    2
    22    17    23   am
    23    23    24    1
    24    24    25    1
    25    24    27    1
    26    29    30    1
    27    25    26    2
    28    27    28    1
    29    32    31    2
    30    30    33    1
    31    30    31    1
    32    33    34    1
    33    34    35   ar
    34    34    36   ar
    35    35    37   ar
    36    36    38   ar
    37    37    39   ar
    38    38    39   ar
    39    41    42    1
    40    39    40    1
    41    42    45    1
    42    42    43    1
    43    44    43    2
    44    45    46    1
    45    46    47    1
    46    47    48    1
    47    78    77    2
    48    48    49    1
    49    77    76    1
    50    50    51    1
    51    53    52    2
    52    76    75    1
    53    76    79    1
    54    67    66    2
    55    52    51    1
    56    52    64   am
    57    51    54    1
    58    66    75   am
    59    66    65    1
    60    79    80    1
    61    62    63   ar
    62    62    60   ar
    63    63    61   ar
    64    60    57   ar
    65    61    59   ar
    66    57    59   ar
    67    57    55   ar
    68    59    58   ar
    69    64    65    1
    70    55    54    1
    71    55    56   ar
    72    58    56   ar
    73    65    68    1
    74    82    80   ar
    75    82    84   ar
    76    80    81   ar
    77    68    69    1
    78    84    83   ar
    79    69    70    1
    80    81    83   ar
    81   208   209    1
    82   106   105    2
    83   210   209    1
    84   210   211    2
    85   105   104    1
    86   209   212    1
    87    70    71    1
    88    73    72    1
    89   212   213    1
    90    71    72    2
    91   104   103    1
    92    72    74    1
    93    92    91   ar
    94   213   215   ar
    95   213   214   ar
    96   193   194    1
    97    85    86    1
    98   215   217   ar
    99   214   216   ar
   100    86    89    1
   101    86    87    1
   102   200   198   am
   103   197   194    1
   104   197   198    1
   105    91    93   ar
   106    91    90    1
   107    89    90    1
   108   194   195    1
   109   198   199    2
   110   217   216   ar
   111    87    88    2
   112    87    94   am
   113   204   203    2
   114   195   201   am
   115   195   196    2
   116   201   202    1
   117    94    95    1
   118   203   202    1
   119   202   205    1
   120   205   207    1
   121   205   206    1
   122   134   135    1
   123   134   131    1
   124    95    96    1
   125    95    98    1
   126   130   131    1
   127    96    97    2
   128   180   179    1
   129   131   132    1
   130   102   100   ar
   131    99   100    1
   132    99    98    1
   133   100   101   ar
   134   177   179   ar
   135   177   175   ar
   136   179   178   ar
   137   126   124   ar
   138   126   128   ar
   139   129   128    1
   140   124   123   ar
   141   128   127   ar
   142   132   136   am
   143   132   133    2
   144   175   174   ar
   145   123   122    1
   146   123   125   ar
   147   136   137    1
   148   122   119    1
   149   127   125   ar
   150   178   176   ar
   151   114   116   ar
   152   114   112   ar
   153   116   117   ar
   154   111   112    1
   155   111   108    1
   156   112   113   ar
   157   117   115   ar
   158   119   118    1
   159   119   120    1
   160   174   176   ar
   161   174   173    1
   162   148   149    1
   163   113   115   ar
   164   188   190   ar
   165   188   186   ar
   166   137   140    1
   167   137   138    1
   168   190   191   ar
   169   185   186    1
   170   185   182    1
   171   170   171    1
   172   170   173    1
   173   170   169    1
   174   140   141    1
   175   154   152    1
   176   138   139    2
   177   171   172    2
   178   149   152    1
   179   149   150    1
   180   186   187   ar
   181   108   109    1
   182   108   107    1
   183   109   110    2
   184   120   121    2
   185   181   182    1
   186   191   192    1
   187   191   189   ar
   188   152   153    1
   189   182   183    1
   190   187   189   ar
   191   150   151    2
   192   141   143   ar
   193   141   142   ar
   194   143   145   ar
   195   183   184    2
   196   142   144   ar
   197   167   168   ar
   198   167   165   ar
   199   168   166   ar
   200   145   146   ar
   201   165   162   ar
   202   144   146   ar
   203   158   157    2
   204   166   164   ar
   205   146   147    1
   206   157   156    1
   207   162   164   ar
   208   162   160   ar
   209   164   163   ar
   210   156   155    1
   211   156   159    1
   212   160   159    1
   213   160   161   ar
   214   163   161   ar
