@<TRIPOS>MOLECULE
tmp/5vtaA06.pdb
 192 186 0 0 0
SMALL
GASTEIGER

@<TRIPOS>ATOM
      1  N        -47.1810  -10.1180   44.0340 N.3    63  SER63      -0.1217
      2  CA       -48.1670  -10.0720   42.9330 C.3    63  SER63       0.1889
      3  C        -48.5570  -11.4540   42.3560 C.2    63  SER63       0.2288
      4  O        -49.6520  -11.5970   41.8170 O.2    63  SER63      -0.2866
      5  CB       -47.6740   -9.1460   41.8030 C.3    63  SER63       0.2089
      6  OG       -46.2760   -9.2270   41.6090 O.3    63  SER63      -0.2183
      7  N        -43.7620   -5.9270   41.6260 N.3    80  TYR80      -0.1241
      8  CA       -44.1670   -5.8760   40.2120 C.3    80  TYR80       0.1605
      9  C        -44.2550   -4.4250   39.7470 C.2    80  TYR80       0.2264
     10  O        -44.9550   -3.6150   40.3470 O.2    80  TYR80      -0.2867
     11  CB       -45.5070   -6.6090   40.0150 C.3    80  TYR80       0.0534
     12  CG       -46.2240   -6.4570   38.6790 C.ar   80  TYR80      -0.0201
     13  CD1      -46.9000   -5.2860   38.3480 C.ar   80  TYR80      -0.0009
     14  CD2      -46.3020   -7.5300   37.7800 C.ar   80  TYR80      -0.0009
     15  CE1      -47.5980   -5.1730   37.1500 C.ar   80  TYR80       0.0417
     16  CE2      -46.9970   -7.4260   36.5740 C.ar   80  TYR80       0.0417
     17  CZ       -47.6440   -6.2430   36.2520 C.ar   80  TYR80       0.1957
     18  OH       -48.3410   -6.1310   35.0420 O.3    80  TYR80      -0.2866
     19  N        -45.0530   -2.6200   36.0880 N.3    82  LYS82      -0.1245
     20  CA       -45.5030   -2.7810   34.7250 C.3    82  LYS82       0.1561
     21  C        -44.6540   -2.0070   33.7040 C.2    82  LYS82       0.2260
     22  O        -44.0730   -0.9610   34.0070 O.2    82  LYS82      -0.2867
     23  CB       -46.9620   -2.3320   34.6280 C.3    82  LYS82       0.0271
     24  CG       -47.7040   -2.8200   33.4010 C.3    82  LYS82       0.0035
     25  CD       -48.9900   -2.0410   33.1920 C.3    82  LYS82       0.0206
     26  CE       -49.2240   -1.7200   31.7280 C.3    82  LYS82       0.1093
     27  NZ       -49.7050   -0.3290   31.5710 N.3    82  LYS82      -0.1314
     28  N        -48.2600   -3.8160   27.5930 N.3    85  ARG85      -0.1231
     29  CA       -49.4860   -4.6270   27.7500 C.3    85  ARG85       0.1694
     30  C        -49.2800   -5.9400   28.5060 C.2    85  ARG85       0.2592
     31  O        -50.0870   -6.2790   29.3570 O.2    85  ARG85      -0.2718
     32  CB       -50.0830   -4.9370   26.3780 C.3    85  ARG85       0.0321
     33  CG       -51.5640   -5.2280   26.3990 C.3    85  ARG85       0.0489
     34  CD       -52.0350   -5.7890   25.0770 C.3    85  ARG85       0.2205
     35  NE       -52.5420   -4.7620   24.1580 N.pl3  85  ARG85      -0.0865
     36  CZ       -53.7640   -4.2180   24.1880 C.cat  85  ARG85       0.5346
     37  NH1      -54.6480   -4.5260   25.1310 N.pl3  85  ARG85       0.1354
     38  NH2      -54.1010   -3.3300   23.2640 N.pl3  85  ARG85       0.1354
     39  N        -48.2220   -6.6790   28.1590 N.am   86  HIS86      -0.1976
     40  CA       -47.8200   -7.8890   28.8790 C.3    86  HIS86       0.1656
     41  C        -46.5590   -7.7570   29.7130 C.2    86  HIS86       0.2291
     42  O        -46.4230   -8.4170   30.7310 O.2    86  HIS86      -0.2864
     43  CB       -47.7210   -9.0430   27.8880 C.3    86  HIS86       0.0771
     44  CG       -48.9440   -9.1700   27.0540 C.ar   86  HIS86       0.0820
     45  ND1      -48.9990   -8.7200   25.7570 N.ar   86  HIS86      -0.2267
     46  CD2      -50.1970   -9.5690   27.3680 C.ar   86  HIS86       0.1154
     47  CE1      -50.2250   -8.8850   25.2880 C.ar   86  HIS86       0.1986
     48  NE2      -50.9710   -9.4070   26.2430 N.ar   86  HIS86      -0.2212
     49  N        -46.7650   -6.8520   21.3410 N.3   165  GLU165     -0.1231
     50  CA       -48.0970   -6.3170   21.1390 C.3   165  GLU165      0.1699
     51  C        -48.8570   -7.1230   20.1170 C.2   165  GLU165      0.2592
     52  O        -49.9640   -7.5620   20.3940 O.2   165  GLU165     -0.2718
     53  CB       -48.0210   -4.8420   20.6990 C.3   165  GLU165      0.0402
     54  CG       -49.3510   -4.2200   20.3150 C.3   165  GLU165      0.1161
     55  CD       -50.3020   -4.0800   21.4780 C.2   165  GLU165      0.3649
     56  OE1      -49.9110   -4.3670   22.6320 O.co2 165  GLU165     -0.2457
     57  OE2      -51.4560   -3.6540   21.2330 O.co2 165  GLU165     -0.2457
     58  N        -48.2350   -7.3360   18.9530 N.am  166  GLU166     -0.1979
     59  CA       -48.9440   -7.7160   17.7050 C.3   166  GLU166      0.1602
     60  C        -48.8460   -9.1410   17.1770 C.2   166  GLU166      0.2287
     61  O        -49.6330   -9.5060   16.3060 O.2   166  GLU166     -0.2864
     62  CB       -48.4990   -6.8010   16.5580 C.3   166  GLU166      0.0415
     63  CG       -48.8000   -5.3470   16.7800 C.3   166  GLU166      0.1163
     64  CD       -50.2880   -5.0700   16.8870 C.2   166  GLU166      0.3649
     65  OE1      -51.1260   -5.9980   16.6970 O.co2 166  GLU166     -0.2457
     66  OE2      -50.6150   -3.8970   17.1520 O.co2 166  GLU166     -0.2457
     67  N        -48.5120  -11.7470   21.9620 N.3   169  GLY169     -0.1225
     68  CA       -49.3520  -11.4160   23.0830 C.3   169  GLY169      0.1811
     69  C        -48.6750  -11.7150   24.4020 C.2   169  GLY169      0.2280
     70  O        -49.3470  -12.0970   25.3640 O.2   169  GLY169     -0.2866
     71  N        -55.5150  -12.9690   13.3260 N.3   317  PHE317     -0.1241
     72  CA       -54.4270  -12.0060   13.5510 C.3   317  PHE317      0.1605
     73  C        -53.0410  -12.5910   13.2550 C.2   317  PHE317      0.2264
     74  O        -52.0570  -11.8480   13.1610 O.2   317  PHE317     -0.2867
     75  CB       -54.4610  -11.4950   15.0020 C.3   317  PHE317      0.0534
     76  CG       -55.6790  -10.6770   15.3190 C.ar  317  PHE317     -0.0203
     77  CD1      -55.7730   -9.3600   14.8920 C.ar  317  PHE317     -0.0042
     78  CD2      -56.7510  -11.2280   16.0120 C.ar  317  PHE317     -0.0042
     79  CE1      -56.9100   -8.6070   15.1630 C.ar  317  PHE317     -0.0003
     80  CE2      -57.8850  -10.4790   16.2830 C.ar  317  PHE317     -0.0003
     81  CZ       -57.9680   -9.1700   15.8590 C.ar  317  PHE317     -0.0000
     82  N        -66.2520   -0.7670   18.1280 N.3   510  TYR510     -0.1241
     83  CA       -64.8320   -1.0540   17.9540 C.3   510  TYR510      0.1605
     84  C        -64.5630   -1.1860   16.4590 C.2   510  TYR510      0.2264
     85  O        -63.7720   -0.4230   15.9160 O.2   510  TYR510     -0.2867
     86  CB       -64.4090   -2.3080   18.7050 C.3   510  TYR510      0.0534
     87  CG       -62.9370   -2.5980   18.5680 C.ar  510  TYR510     -0.0201
     88  CD1      -61.9910   -1.7650   19.1540 C.ar  510  TYR510     -0.0009
     89  CD2      -62.4860   -3.6900   17.8540 C.ar  510  TYR510     -0.0009
     90  CE1      -60.6290   -2.0260   19.0470 C.ar  510  TYR510      0.0417
     91  CE2      -61.1270   -3.9610   17.7360 C.ar  510  TYR510      0.0417
     92  CZ       -60.1960   -3.1230   18.3360 C.ar  510  TYR510      0.1957
     93  OH       -58.8430   -3.3830   18.2250 O.3   510  TYR510     -0.2866
     94  N        -59.5720    2.9010   20.8430 N.3   593  SER593     -0.1202
     95  CA       -58.6240    2.2410   19.8670 C.3   593  SER593      0.2020
     96  C        -59.1170    2.4060   18.4240 C.2   593  SER593      0.2618
     97  O        -59.2950    3.5390   17.9560 O.2   593  SER593     -0.2717
     98  CB       -58.3440    0.7440   20.2050 C.3   593  SER593      0.2103
     99  OG       -57.2170    0.5330   21.0170 O.3   593  SER593     -0.2182
    100  N        -59.3810    1.2830   17.7480 N.am  594  TYR594     -0.1975
    101  CA       -59.9070    1.2720   16.4110 C.3   594  TYR594      0.1639
    102  C        -61.2900    1.9030   16.4430 C.2   594  TYR594      0.2290
    103  O        -61.6620    2.6490   15.5420 O.2   594  TYR594     -0.2864
    104  CB       -59.9840   -0.1710   15.8820 C.3   594  TYR594      0.0560
    105  CG       -60.1330   -0.2380   14.3740 C.ar  594  TYR594     -0.0198
    106  CD1      -61.3310    0.0900   13.7610 C.ar  594  TYR594     -0.0009
    107  CD2      -59.0800   -0.6030   13.5660 C.ar  594  TYR594     -0.0009
    108  CE1      -61.4710    0.0610   12.3950 C.ar  594  TYR594      0.0417
    109  CE2      -59.2130   -0.6430   12.1970 C.ar  594  TYR594      0.0417
    110  CZ       -60.4140   -0.3130   11.6190 C.ar  594  TYR594      0.1957
    111  OH       -60.5830   -0.3450   10.2550 O.3   594  TYR594     -0.2866
    112  N        -57.0490    6.3050   16.3680 N.3   619  VAL619     -0.1245
    113  CA       -56.1070    6.3030   15.2710 C.3   619  VAL619      0.1561
    114  C        -56.6030    7.3860   14.3300 C.2   619  VAL619      0.2260
    115  O        -57.7860    7.4450   14.0390 O.2   619  VAL619     -0.2867
    116  CB       -56.0770    4.9310   14.5590 C.3   619  VAL619      0.0252
    117  CG1      -55.4700    5.0550   13.1850 C.3   619  VAL619      0.0019
    118  CG2      -55.2650    3.9300   15.3640 C.3   619  VAL619      0.0019
    119  N        -53.2960    6.0650    9.2320 N.3   622  TRP622     -0.1241
    120  CA       -52.7570    4.6960    9.3550 C.3   622  TRP622      0.1605
    121  C        -51.2340    4.6120    9.3060 C.2   622  TRP622      0.2264
    122  O        -50.6890    3.5810    9.6540 O.2   622  TRP622     -0.2867
    123  CB       -53.4270    3.7160    8.3650 C.3   622  TRP622      0.0550
    124  CG       -54.7740    3.3370    8.8240 C.ar  622  TRP622      0.0003
    125  CD1      -55.9690    3.6640    8.2460 C.ar  622  TRP622      0.0946
    126  CD2      -55.0890    2.6260   10.0160 C.ar  622  TRP622      0.0152
    127  NE1      -57.0100    3.1870    9.0090 N.ar  622  TRP622     -0.2442
    128  CE2      -56.4980    2.5440   10.0980 C.ar  622  TRP622      0.0810
    129  CE3      -54.3180    2.0370   11.0240 C.ar  622  TRP622      0.0012
    130  CZ2      -57.1460    1.8890   11.1380 C.ar  622  TRP622      0.0191
    131  CZ3      -54.9740    1.3860   12.0730 C.ar  622  TRP622      0.0001
    132  CH2      -56.3720    1.3180   12.1170 C.ar  622  TRP622      0.0015
    133  N        -49.8000    4.2510   13.1330 N.3   625  TYR625     -0.1241
    134  CA       -49.9130    2.9960   13.8870 C.3   625  TYR625      0.1605
    135  C        -48.8470    1.9700   13.4620 C.2   625  TYR625      0.2264
    136  O        -48.2850    2.0850   12.3700 O.2   625  TYR625     -0.2867
    137  CB       -51.3320    2.4320   13.7840 C.3   625  TYR625      0.0534
    138  CG       -51.6410    1.4720   14.8940 C.ar  625  TYR625     -0.0201
    139  CD1      -51.5330    1.8740   16.2060 C.ar  625  TYR625     -0.0009
    140  CD2      -52.0120    0.1510   14.6290 C.ar  625  TYR625     -0.0009
    141  CE1      -51.7920    1.0060   17.2350 C.ar  625  TYR625      0.0417
    142  CE2      -52.2780   -0.7270   15.6500 C.ar  625  TYR625      0.0417
    143  CZ       -52.1680   -0.2940   16.9490 C.ar  625  TYR625      0.1957
    144  OH       -52.4110   -1.1570   17.9810 O.3   625  TYR625     -0.2866
    145  N        -49.5020   -4.7030   12.5430 N.3   629  TYR629     -0.1241
    146  CA       -50.9730   -4.6050   12.4580 C.3   629  TYR629      0.1605
    147  C        -51.4710   -3.8040   11.2680 C.2   629  TYR629      0.2264
    148  O        -52.3150   -4.2870   10.5240 O.2   629  TYR629     -0.2867
    149  CB       -51.5460   -3.9870   13.7240 C.3   629  TYR629      0.0534
    150  CG       -53.0580   -3.8320   13.7830 C.ar  629  TYR629     -0.0201
    151  CD1      -53.6910   -2.7570   13.1720 C.ar  629  TYR629     -0.0009
    152  CD2      -53.8400   -4.7230   14.5080 C.ar  629  TYR629     -0.0009
    153  CE1      -55.0540   -2.6060   13.2420 C.ar  629  TYR629      0.0417
    154  CE2      -55.2010   -4.5770   14.5770 C.ar  629  TYR629      0.0417
    155  CZ       -55.7950   -3.5140   13.9450 C.ar  629  TYR629      0.1957
    156  OH       -57.1420   -3.3580   14.0200 O.3   629  TYR629     -0.2866
    157  N        -50.8390   -5.5990    7.8760 N.3   632  ARG632     -0.1197
    158  CA       -51.6580   -6.8000    7.7200 C.3   632  ARG632      0.1779
    159  C        -52.9150   -6.5100    6.8660 C.2   632  ARG632      0.2305
    160  O        -53.3190   -7.3660    6.0820 O.2   632  ARG632     -0.2863
    161  CB       -52.0170   -7.4090    9.0950 C.2   632  ARG632     -0.0007
    162  CG       -52.8980   -8.6500    9.0490 C.2   632  ARG632      0.0176
    163  CD       -53.0680   -9.3910   10.3810 C.3   632  ARG632      0.2464
    164  NE       -52.9770   -8.6090   11.6280 N.pl3 632  ARG632     -0.0815
    165  CZ       -52.0690   -8.7750   12.5940 C.cat 632  ARG632      0.5349
    166  NH1      -51.0900   -9.6840   12.4960 N.pl3 632  ARG632      0.1354
    167  NH2      -52.1280   -8.0110   13.6870 N.pl3 632  ARG632      0.1354
    168  N        -48.8910    2.9720   22.5950 N.3   673  ASN673     -0.1225
    169  CA       -49.5870    2.1610   21.6200 C.3   673  ASN673      0.1785
    170  C        -50.0860    3.0440   20.4860 C.2   673  ASN673      0.2597
    171  O        -49.5360    3.0070   19.3930 O.2   673  ASN673     -0.2718
    172  CB       -50.7450    1.4500   22.3350 C.3   673  ASN673      0.1169
    173  CG       -51.0860    0.1230   21.7320 C.2   673  ASN673      0.2627
    174  OD1      -50.9230   -0.0970   20.5360 O.2   673  ASN673     -0.2716
    175  ND2      -51.5810   -0.7770   22.5670 N.am  673  ASN673     -0.0877
    176  N        -51.1180    3.8460   20.7660 N.am  674  VAL674     -0.1980
    177  CA       -51.7090    4.7710   19.8030 C.3   674  VAL674      0.1595
    178  C        -51.2570    6.1140   20.3120 C.2   674  VAL674      0.2287
    179  O        -51.9290    6.7480   21.1110 O.2   674  VAL674     -0.2864
    180  CB       -53.2400    4.7220   19.7790 C.3   674  VAL674      0.0276
    181  CG1      -53.7620    5.6830   18.7410 C.3   674  VAL674      0.0022
    182  CG2      -53.7100    3.3260   19.4810 C.3   674  VAL674      0.0022
    183  N        -52.5220    3.4020   27.1470 N.3   703  HIS703     -0.1241
    184  CA       -53.6720    3.1320   26.3330 C.3   703  HIS703      0.1621
    185  C        -54.8800    2.7520   27.1590 C.2   703  HIS703      0.2264
    186  O        -56.0050    2.9620   26.7320 O.2   703  HIS703     -0.2867
    187  CB       -53.3500    2.0130   25.3390 C.3   703  HIS703      0.0745
    188  CG       -54.1740    2.0640   24.1040 C.ar  703  HIS703      0.0817
    189  ND1      -54.5650    3.2500   23.5250 N.ar  703  HIS703     -0.2268
    190  CD2      -54.6660    1.0820   23.3200 C.ar  703  HIS703      0.1154
    191  CE1      -55.2730    2.9980   22.4410 C.ar  703  HIS703      0.1986
    192  NE2      -55.3590    1.6900   22.3020 N.ar  703  HIS703     -0.2212
@<TRIPOS>BOND
     1   160   159    2
     2   159   158    1
     3   158   157    1
     4   158   161    1
     5   125   124   ar
     6   125   127   ar
     7   123   124    1
     8   123   120    1
     9   124   126   ar
    10   127   128   ar
    11   162   161    2
    12   162   163    1
    13   119   120    1
    14   121   120    1
    15   121   122    2
    16   126   128   ar
    17   126   129   ar
    18   128   130   ar
    19   111   110    1
    20   163   164    1
    21   148   147    2
    22   129   131   ar
    23   130   132   ar
    24   147   146    1
    25   110   109   ar
    26   110   108   ar
    27   164   165    2
    28   131   132   ar
    29   109   107   ar
    30   136   135    2
    31   108   106   ar
    32   146   145    1
    33   146   149    1
    34   166   165    1
    35   165   167    1
    36   133   134    1
    37    74    73    2
    38   151   153   ar
    39   151   150   ar
    40   117   116    1
    41   153   155   ar
    42    73    72    1
    43    71    72    1
    44   135   134    1
    45    72    75    1
    46   107   105   ar
    47   149   150    1
    48   106   105   ar
    49   150   152   ar
    50   137   134    1
    51   137   138    1
    52   155   156    1
    53   155   154   ar
    54   115   114    2
    55   114   113    1
    56   105   104    1
    57   152   154   ar
    58   116   113    1
    59   116   118    1
    60   140   138   ar
    61   140   142   ar
    62    77    79   ar
    63    77    76   ar
    64   138   139   ar
    65    75    76    1
    66    79    81   ar
    67   113   112    1
    68    76    78   ar
    69   103   102    2
    70   142   143   ar
    71    81    80   ar
    72   104   101    1
    73    85    84    2
    74    78    80   ar
    75   139   141   ar
    76    61    60    2
    77   101   102    1
    78   101   100    1
    79    84    83    1
    80    62    63    1
    81    62    59    1
    82    65    64   ar
    83    63    64    1
    84    64    66   ar
    85   143   141   ar
    86   143   144    1
    87    60    59    1
    88    59    58    1
    89    91    89   ar
    90    91    92   ar
    91   100    96   am
    92    89    87   ar
    93    83    82    1
    94    83    86    1
    95    97    96    2
    96    93    92    1
    97    92    90   ar
    98    96    95    1
    99    87    86    1
   100    87    88   ar
   101   181   180    1
   102    58    51   am
   103    90    88   ar
   104   171   170    2
   105   182   180    1
   106   180   177    1
   107   177   178    1
   108   177   176    1
   109    95    98    1
   110    95    94    1
   111    51    52    2
   112    51    50    1
   113    98    99    1
   114   178   179    2
   115    54    53    1
   116    54    55    1
   117   170   176   am
   118   170   169    1
   119   174   173    2
   120    53    50    1
   121    50    49    1
   122    57    55   ar
   123    55    56   ar
   124   169   172    1
   125   169   168    1
   126   173   172    1
   127   173   175   am
   128    67    68    1
   129   192   191   ar
   130   192   190   ar
   131   191   189   ar
   132    68    69    1
   133    38    36    1
   134   190   188   ar
   135   189   188   ar
   136   188   187    1
   137    35    36    2
   138    35    34    1
   139    36    37    1
   140    69    70    2
   141    34    33    1
   142    47    45   ar
   143    47    48   ar
   144   187   184    1
   145    45    44   ar
   146    48    46   ar
   147   184   183    1
   148   184   185    1
   149    32    33    1
   150    32    29    1
   151   186   185    2
   152    44    46   ar
   153    44    43    1
   154    28    29    1
   155    29    30    1
   156    43    40    1
   157    39    30   am
   158    39    40    1
   159    30    31    2
   160    40    41    1
   161    41    42    2
   162    27    26    1
   163    26    25    1
   164    25    24    1
   165    24    23    1
   166    21    22    2
   167    21    20    1
   168    23    20    1
   169    20    19    1
   170    18    17    1
   171    17    16   ar
   172    17    15   ar
   173    16    14   ar
   174    15    13   ar
   175    14    12   ar
   176    13    12   ar
   177    12    11    1
   178     9     8    1
   179     9    10    2
   180    11     8    1
   181     8     7    1
   182     6     5    1
   183     5     2    1
   184     4     3    2
   185     3     2    1
   186     2     1    1
