@<TRIPOS>MOLECULE
tmp/5vtaC06.pdb
 192 186 0 0 0
SMALL
GASTEIGER

@<TRIPOS>ATOM
      1  N       -113.3670   38.3060  -42.8650 N.3    63  SER63      -0.1217
      2  CA      -112.4710   38.0060  -41.7220 C.3    63  SER63       0.1889
      3  C       -112.7430   36.6450  -41.0790 C.2    63  SER63       0.2288
      4  O       -111.8200   35.9800  -40.5940 O.2    63  SER63      -0.2866
      5  CB      -112.5360   39.1130  -40.6510 C.3    63  SER63       0.2089
      6  OG      -113.6660   38.9860  -39.8160 O.3    63  SER63      -0.2183
      7  N       -114.4220   43.8460  -40.4640 N.3    80  TYR80      -0.1241
      8  CA      -114.0270   43.7870  -39.0500 C.3    80  TYR80       0.1605
      9  C       -113.3100   45.0940  -38.6950 C.2    80  TYR80       0.2264
     10  O       -112.3800   45.4860  -39.4010 O.2    80  TYR80      -0.2867
     11  CB      -113.1410   42.5290  -38.8170 C.3    80  TYR80       0.0534
     12  CG      -112.3640   42.3760  -37.5050 C.ar   80  TYR80      -0.0201
     13  CD1     -111.1680   43.0830  -37.2820 C.ar   80  TYR80      -0.0009
     14  CD2     -112.7690   41.4370  -36.5310 C.ar   80  TYR80      -0.0009
     15  CE1     -110.4310   42.9070  -36.1100 C.ar   80  TYR80       0.0417
     16  CE2     -112.0330   41.2470  -35.3570 C.ar   80  TYR80       0.0417
     17  CZ      -110.8660   41.9800  -35.1490 C.ar   80  TYR80       0.1957
     18  OH      -110.1440   41.7840  -33.9850 O.3    80  TYR80      -0.2866
     19  N       -111.6460   46.5650  -35.1490 N.3    82  LYS82      -0.1245
     20  CA      -111.3060   46.2360  -33.7410 C.3    82  LYS82       0.1561
     21  C       -111.6880   47.3340  -32.7180 C.2    82  LYS82       0.2260
     22  O       -111.7110   48.5270  -33.0390 O.2    82  LYS82      -0.2867
     23  CB      -109.8030   45.9150  -33.5920 C.3    82  LYS82       0.0271
     24  CG      -109.4820   44.9340  -32.4570 C.3    82  LYS82       0.0035
     25  CD      -108.0440   45.0040  -31.9330 C.3    82  LYS82       0.0206
     26  CE      -107.8760   46.0140  -30.8010 C.3    82  LYS82       0.1093
     27  NZ      -107.0230   45.4850  -29.7130 N.3    82  LYS82      -0.1314
     28  N       -109.3150   44.2210  -26.4500 N.3    85  ARG85      -0.1231
     29  CA      -108.6950   42.8950  -26.5950 C.3    85  ARG85       0.1694
     30  C       -109.5650   41.9430  -27.4300 C.2    85  ARG85       0.2592
     31  O       -109.0410   41.2430  -28.2890 O.2    85  ARG85      -0.2718
     32  CB      -108.3760   42.2550  -25.2180 C.3    85  ARG85       0.0321
     33  CG      -107.3230   41.1430  -25.2560 C.3    85  ARG85       0.0489
     34  CD      -106.9580   40.5670  -23.8760 C.3    85  ARG85       0.2205
     35  NE      -105.9180   41.3030  -23.1120 N.pl3  85  ARG85      -0.0865
     36  CZ      -104.5820   41.1240  -23.1770 C.cat  85  ARG85       0.5346
     37  NH1     -104.0150   40.2470  -24.0110 N.pl3  85  ARG85       0.1354
     38  NH2     -103.7820   41.8670  -22.4070 N.pl3  85  ARG85       0.1354
     39  N       -110.8840   41.9470  -27.1860 N.am   86  HIS86      -0.1976
     40  CA      -111.8430   40.9740  -27.7740 C.3    86  HIS86       0.1656
     41  C       -112.9520   41.5350  -28.6800 C.2    86  HIS86       0.2291
     42  O       -113.5010   40.7890  -29.4680 O.2    86  HIS86      -0.2864
     43  CB      -112.5220   40.1430  -26.6540 C.3    86  HIS86       0.0771
     44  CG      -111.5530   39.4450  -25.7420 C.ar   86  HIS86       0.0820
     45  ND1     -110.6850   38.4670  -26.1810 N.ar   86  HIS86      -0.2267
     46  CD2     -111.3000   39.6020  -24.4220 C.ar   86  HIS86       0.1154
     47  CE1     -109.9350   38.0580  -25.1740 C.ar   86  HIS86       0.1986
     48  NE2     -110.2920   38.7270  -24.0940 N.ar   86  HIS86      -0.2212
     49  N       -112.4320   42.3840  -20.3160 N.3   165  GLU165     -0.1231
     50  CA      -110.9880   42.1710  -20.1210 C.3   165  GLU165      0.1699
     51  C       -110.6500   41.2260  -18.9460 C.2   165  GLU165      0.2592
     52  O       -109.8300   40.3170  -19.1030 O.2   165  GLU165     -0.2718
     53  CB      -110.2810   43.5350  -19.9490 C.3   165  GLU165      0.0402
     54  CG      -108.8060   43.5030  -19.5400 C.3   165  GLU165      0.1161
     55  CD      -107.8240   43.3870  -20.6940 C.2   165  GLU165      0.3649
     56  OE1     -108.1150   43.9280  -21.7770 O.co2 165  GLU165     -0.2457
     57  OE2     -106.7430   42.7760  -20.5070 O.co2 165  GLU165     -0.2457
     58  N       -111.2890   41.4480  -17.7940 N.am  166  GLU166     -0.1979
     59  CA      -110.8660   40.8760  -16.4980 C.3   166  GLU166      0.1602
     60  C       -111.7350   39.7810  -15.8660 C.2   166  GLU166      0.2287
     61  O       -111.3970   39.2990  -14.7880 O.2   166  GLU166     -0.2864
     62  CB      -110.7330   42.0060  -15.4660 C.3   166  GLU166      0.0415
     63  CG      -109.7930   43.1370  -15.8460 C.3   166  GLU166      0.1163
     64  CD      -108.3580   42.6960  -15.9480 C.2   166  GLU166      0.3649
     65  OE1     -108.0490   41.5470  -15.5800 O.co2 166  GLU166     -0.2457
     66  OE2     -107.5350   43.5130  -16.3870 O.co2 166  GLU166     -0.2457
     67  N       -113.0970   37.1720  -20.4230 N.3   169  GLY169     -0.1225
     68  CA      -112.1280   37.0760  -21.5230 C.3   169  GLY169      0.1811
     69  C       -112.7830   37.1510  -22.8940 C.2   169  GLY169      0.2280
     70  O       -112.3130   36.5340  -23.8490 O.2   169  GLY169     -0.2866
     71  N       -107.4110   32.8300  -12.0710 N.3   317  PHE317     -0.1241
     72  CA      -107.8400   34.2210  -12.2730 C.3   317  PHE317      0.1605
     73  C       -109.3120   34.4470  -11.8650 C.2   317  PHE317      0.2264
     74  O       -109.7510   35.5950  -11.7640 O.2   317  PHE317     -0.2867
     75  CB      -107.6010   34.6500  -13.7330 C.3   317  PHE317      0.0534
     76  CG      -106.1500   34.7780  -14.0930 C.ar  317  PHE317     -0.0203
     77  CD1     -105.4060   33.6600  -14.4100 C.ar  317  PHE317     -0.0042
     78  CD2     -105.5230   36.0100  -14.0950 C.ar  317  PHE317     -0.0042
     79  CE1     -104.0630   33.7640  -14.7390 C.ar  317  PHE317     -0.0003
     80  CE2     -104.1770   36.1250  -14.4130 C.ar  317  PHE317     -0.0003
     81  CZ      -103.4430   34.9970  -14.7420 C.ar  317  PHE317     -0.0000
     82  N        -92.5760   38.8730  -17.1020 N.3   510  TYR510     -0.1241
     83  CA       -93.9450   39.3290  -16.8800 C.3   510  TYR510      0.1605
     84  C        -94.1500   39.2930  -15.3590 C.2   510  TYR510      0.2264
     85  O        -94.2900   40.3490  -14.7390 O.2   510  TYR510     -0.2867
     86  CB       -94.9600   38.4840  -17.6460 C.3   510  TYR510      0.0534
     87  CG       -96.4020   38.9240  -17.4620 C.ar  510  TYR510     -0.0201
     88  CD1      -96.9130   40.0290  -18.1350 C.ar  510  TYR510     -0.0009
     89  CD2      -97.2690   38.2060  -16.6370 C.ar  510  TYR510     -0.0009
     90  CE1      -98.2420   40.4130  -17.9770 C.ar  510  TYR510      0.0417
     91  CE2      -98.5910   38.5860  -16.4650 C.ar  510  TYR510      0.0417
     92  CZ       -99.0740   39.6860  -17.1340 C.ar  510  TYR510      0.1957
     93  OH      -100.3850   40.0570  -16.9340 O.3   510  TYR510     -0.2866
     94  N        -96.6990   45.3190  -19.8630 N.3   593  SER593     -0.1202
     95  CA       -97.8530   45.2080  -18.9300 C.3   593  SER593      0.2020
     96  C        -97.4010   45.0720  -17.4390 C.2   593  SER593      0.2618
     97  O        -96.7080   45.9660  -16.9480 O.2   593  SER593     -0.2717
     98  CB       -98.7750   44.0610  -19.3820 C.3   593  SER593      0.2103
     99  OG       -99.2440   44.2320  -20.7150 O.3   593  SER593     -0.2182
    100  N        -97.7590   43.9860  -16.7310 N.am  594  TYR594     -0.1975
    101  CA       -97.2030   43.6880  -15.3910 C.3   594  TYR594      0.1639
    102  C        -95.6830   43.5710  -15.4420 C.2   594  TYR594      0.2290
    103  O        -95.0210   43.8930  -14.4850 O.2   594  TYR594     -0.2864
    104  CB       -97.8030   42.3860  -14.7730 C.3   594  TYR594      0.0560
    105  CG       -97.5880   42.2210  -13.2510 C.ar  594  TYR594     -0.0198
    106  CD1      -96.3120   41.9640  -12.7150 C.ar  594  TYR594     -0.0009
    107  CD2      -98.6560   42.3150  -12.3450 C.ar  594  TYR594     -0.0009
    108  CE1      -96.1030   41.8450  -11.3550 C.ar  594  TYR594      0.0417
    109  CE2      -98.4450   42.1860  -10.9800 C.ar  594  TYR594      0.0417
    110  CZ       -97.1650   41.9490  -10.5000 C.ar  594  TYR594      0.1957
    111  OH       -96.9170   41.8040   -9.1630 O.3   594  TYR594     -0.2866
    112  N        -97.4550   49.3430  -15.6420 N.3   619  VAL619     -0.1245
    113  CA       -98.1900   49.8620  -14.4770 C.3   619  VAL619      0.1561
    114  C        -97.1700   50.6160  -13.6320 C.2   619  VAL619      0.2260
    115  O        -96.0820   50.1020  -13.3930 O.2   619  VAL619     -0.2867
    116  CB       -98.8340   48.7520  -13.6000 C.3   619  VAL619      0.0252
    117  CG1      -99.2320   49.2840  -12.2240 C.3   619  VAL619      0.0019
    118  CG2     -100.0540   48.1530  -14.2820 C.3   619  VAL619      0.0019
    119  N       -100.5290   51.2700   -8.4320 N.3   622  TRP622     -0.1241
    120  CA      -101.6950   50.3630   -8.5390 C.3   622  TRP622      0.1605
    121  C       -103.0950   51.0060   -8.4980 C.2   622  TRP622      0.2264
    122  O       -104.0240   50.4540   -9.0850 O.2   622  TRP622     -0.2867
    123  CB      -101.6030   49.2060   -7.5400 C.3   622  TRP622      0.0550
    124  CG      -100.6040   48.2090   -7.9660 C.ar  622  TRP622      0.0003
    125  CD1      -99.4070   47.9760   -7.3900 C.ar  622  TRP622      0.0946
    126  CD2     -100.6860   47.3360   -9.1020 C.ar  622  TRP622      0.0152
    127  NE1      -98.7320   46.9970   -8.0760 N.ar  622  TRP622     -0.2442
    128  CE2      -99.4950   46.5860   -9.1340 C.ar  622  TRP622      0.0810
    129  CE3     -101.6520   47.1140  -10.0940 C.ar  622  TRP622      0.0012
    130  CZ2      -99.2370   45.6270  -10.1170 C.ar  622  TRP622      0.0191
    131  CZ3     -101.3950   46.1540  -11.0810 C.ar  622  TRP622      0.0001
    132  CH2     -100.2000   45.4230  -11.0790 C.ar  622  TRP622      0.0015
    133  N       -104.6070   51.0900  -12.1400 N.3   625  TYR625     -0.1241
    134  CA      -105.0970   49.9070  -12.8750 C.3   625  TYR625      0.1605
    135  C       -106.5080   49.4820  -12.4250 C.2   625  TYR625      0.2264
    136  O       -106.9240   49.8290  -11.3140 O.2   625  TYR625     -0.2867
    137  CB      -104.1040   48.7430  -12.7820 C.3   625  TYR625      0.0534
    138  CG      -104.3150   47.7610  -13.9060 C.ar  625  TYR625     -0.0201
    139  CD1     -104.0860   48.1350  -15.2210 C.ar  625  TYR625     -0.0009
    140  CD2     -104.8020   46.4860  -13.6650 C.ar  625  TYR625     -0.0009
    141  CE1     -104.3100   47.2570  -16.2630 C.ar  625  TYR625      0.0417
    142  CE2     -105.0220   45.5920  -14.7020 C.ar  625  TYR625      0.0417
    143  CZ      -104.7810   45.9790  -16.0010 C.ar  625  TYR625      0.1957
    144  OH      -105.0030   45.0880  -17.0270 O.3   625  TYR625     -0.2866
    145  N       -109.1030   43.2920  -11.4670 N.3   629  TYR629     -0.1241
    146  CA      -107.7670   42.6840  -11.4060 C.3   629  TYR629      0.1605
    147  C       -107.0440   43.0730  -10.1420 C.2   629  TYR629      0.2264
    148  O       -106.7220   42.1980   -9.3500 O.2   629  TYR629     -0.2867
    149  CB      -106.9180   43.1180  -12.5880 C.3   629  TYR629      0.0534
    150  CG      -105.5900   42.4170  -12.7850 C.ar  629  TYR629     -0.0201
    151  CD1     -105.5100   41.2090  -13.4860 C.ar  629  TYR629     -0.0009
    152  CD2     -104.3930   43.0020  -12.3560 C.ar  629  TYR629     -0.0009
    153  CE1     -104.2850   40.5880  -13.7270 C.ar  629  TYR629      0.0417
    154  CE2     -103.1590   42.3830  -12.5900 C.ar  629  TYR629      0.0417
    155  CZ      -103.1130   41.1760  -13.2750 C.ar  629  TYR629      0.1957
    156  OH      -101.9160   40.5530  -13.5210 O.3   629  TYR629     -0.2866
    157  N       -108.4570   41.9760   -6.6710 N.3   632  ARG632     -0.1245
    158  CA      -108.2470   40.5190   -6.5520 C.3   632  ARG632      0.1563
    159  C       -106.9960   40.2220   -5.6940 C.2   632  ARG632      0.2260
    160  O       -107.0670   39.4350   -4.7450 O.2   632  ARG632     -0.2867
    161  CB      -108.1770   39.8010   -7.9350 C.3   632  ARG632      0.0307
    162  CG      -108.2320   38.2730   -7.8390 C.3   632  ARG632      0.0489
    163  CD      -108.5910   37.5050   -9.1170 C.3   632  ARG632      0.2205
    164  NE      -107.9160   37.9710  -10.3360 N.pl3 632  ARG632     -0.0865
    165  CZ      -108.5150   38.5350  -11.3920 C.cat 632  ARG632      0.5346
    166  NH1     -109.8380   38.7170  -11.4470 N.pl3 632  ARG632      0.1354
    167  NH2     -107.7730   38.9220  -12.4260 N.pl3 632  ARG632      0.1354
    168  N       -105.9980   50.0850  -21.5820 N.3   673  ASN673     -0.1225
    169  CA      -105.7930   49.0910  -20.5030 C.3   673  ASN673      0.1785
    170  C       -104.8950   49.7380  -19.4240 C.2   673  ASN673      0.2597
    171  O       -105.4190   50.2760  -18.4470 O.2   673  ASN673     -0.2718
    172  CB      -105.2150   47.7890  -21.1220 C.3   673  ASN673      0.1169
    173  CG      -105.3160   46.5700  -20.2170 C.2   673  ASN673      0.2627
    174  OD1     -105.6010   46.6640  -19.0270 O.2   673  ASN673     -0.2716
    175  ND2     -105.0590   45.4010  -20.7980 N.am  673  ASN673     -0.0877
    176  N       -103.5690   49.7250  -19.6040 N.am  674  VAL674     -0.1980
    177  CA      -102.6530   50.4990  -18.7630 C.3   674  VAL674      0.1595
    178  C       -102.5920   51.8510  -19.4430 C.2   674  VAL674      0.2287
    179  O       -101.9000   51.9890  -20.4440 O.2   674  VAL674     -0.2864
    180  CB      -101.2220   49.9070  -18.6990 C.3   674  VAL674      0.0276
    181  CG1     -100.3480   50.6850  -17.7230 C.3   674  VAL674      0.0022
    182  CG2     -101.2600   48.4600  -18.2730 C.3   674  VAL674      0.0022
    183  N       -102.6430   49.0590  -26.1550 N.3   703  HIS703     -0.1241
    184  CA      -101.7850   48.1890  -25.3170 C.3   703  HIS703      0.1621
    185  C       -100.8140   47.3070  -26.1080 C.2   703  HIS703      0.2264
    186  O        -99.6070   47.2570  -25.8050 O.2   703  HIS703     -0.2867
    187  CB      -102.6590   47.3000  -24.4000 C.3   703  HIS703      0.0745
    188  CG      -101.9380   46.7780  -23.1950 C.ar  703  HIS703      0.0817
    189  ND1     -101.2240   47.6010  -22.3490 N.ar  703  HIS703     -0.2268
    190  CD2     -101.8210   45.5240  -22.6910 C.ar  703  HIS703      0.1154
    191  CE1     -100.6900   46.8770  -21.3830 C.ar  703  HIS703      0.1986
    192  NE2     -101.0350   45.6130  -21.5690 N.ar  703  HIS703     -0.2212
@<TRIPOS>BOND
     1     1     2    1
     2     2     3    1
     3     2     5    1
     4     3     4    2
     5     5     6    1
     6     7     8    1
     7    10     9    2
     8     8    11    1
     9     8     9    1
    10    11    12    1
    11    12    13   ar
    12    12    14   ar
    13    13    15   ar
    14    14    16   ar
    15    15    17   ar
    16    16    17   ar
    17    17    18    1
    18    19    20    1
    19    20    23    1
    20    20    21    1
    21    23    24    1
    22    22    21    2
    23    24    25    1
    24    25    26    1
    25    26    27    1
    26    42    41    2
    27    41    40    1
    28    31    30    2
    29    40    39    1
    30    40    43    1
    31    30    39   am
    32    30    29    1
    33    43    44    1
    34    29    28    1
    35    29    32    1
    36    45    44   ar
    37    45    47   ar
    38   183   184    1
    39   185   186    2
    40   185   184    1
    41    44    46   ar
    42   184   187    1
    43    33    32    1
    44    33    34    1
    45    47    48   ar
    46    46    48   ar
    47   187   188    1
    48    37    36    1
    49    34    35    1
    50    70    69    2
    51   188   190   ar
    52   188   189   ar
    53    36    35    2
    54    36    38    1
    55    69    68    1
    56   190   192   ar
    57   189   191   ar
    58    56    55   ar
    59   168   169    1
    60   192   191   ar
    61    68    67    1
    62   172   169    1
    63   172   173    1
    64   175   173   am
    65    99    98    1
    66    55    57   ar
    67    55    54    1
    68   169   170    1
    69   179   178    2
    70    49    50    1
    71   173   174    2
    72    50    53    1
    73    50    51    1
    74    53    54    1
    75    94    95    1
    76   176   170   am
    77   176   177    1
    78   178   177    1
    79   170   171    2
    80    98    95    1
    81    52    51    2
    82    51    58   am
    83    95    96    1
    84   177   180    1
    85   180   182    1
    86   180   181    1
    87    88    90   ar
    88    88    87   ar
    89    90    92   ar
    90    58    59    1
    91    86    87    1
    92    86    83    1
    93    87    89   ar
    94    96    97    2
    95    96   100   am
    96    92    93    1
    97    92    91   ar
    98    82    83    1
    99   144   143    1
   100    83    84    1
   101   100   101    1
   102    89    91   ar
   103    59    60    1
   104    59    62    1
   105    66    64   ar
   106   141   143   ar
   107   141   139   ar
   108   143   142   ar
   109    64    63    1
   110    64    65   ar
   111    60    61    2
   112    63    62    1
   113   112   113    1
   114   102   101    1
   115   102   103    2
   116   101   104    1
   117    84    85    2
   118   139   138   ar
   119   104   105    1
   120    81    79   ar
   121    81    80   ar
   122    79    77   ar
   123   142   140   ar
   124   113   114    1
   125   113   116    1
   126    80    78   ar
   127    77    76   ar
   128   118   116    1
   129    78    76   ar
   130    76    75    1
   131   138   140   ar
   132   138   137    1
   133    75    72    1
   134   153   151   ar
   135   153   155   ar
   136   114   115    2
   137   116   117    1
   138   156   155    1
   139   151   150   ar
   140   155   154   ar
   141   105   106   ar
   142   105   107   ar
   143   134   137    1
   144   134   135    1
   145   134   133    1
   146   150   149    1
   147   150   152   ar
   148   106   108   ar
   149   154   152   ar
   150   149   146    1
   151   167   165    1
   152   135   136    2
   153   107   109   ar
   154    72    71    1
   155    72    73    1
   156    73    74    2
   157   145   146    1
   158   166   165    1
   159   146   147    1
   160   165   164    2
   161   108   110   ar
   162   131   132   ar
   163   131   129   ar
   164   132   130   ar
   165   109   110   ar
   166   110   111    1
   167   164   163    1
   168   147   148    2
   169   130   128   ar
   170   129   126   ar
   171   128   126   ar
   172   128   127   ar
   173   163   162    1
   174   126   124   ar
   175   122   121    2
   176   120   121    1
   177   120   119    1
   178   120   123    1
   179   127   125   ar
   180   124   123    1
   181   124   125   ar
   182   161   162    1
   183   161   158    1
   184   157   158    1
   185   158   159    1
   186   159   160    2
