@<TRIPOS>MOLECULE
tmp/5vtwC04.pdb
 113 107 0 0 0
SMALL
GASTEIGER

@<TRIPOS>ATOM
      1  N        -56.6320  -68.2450    0.5420 N.3    90  TYR90      -0.1241
      2  CA       -55.6720  -69.3290    0.7110 C.3    90  TYR90       0.1605
      3  C        -54.6190  -68.8780    1.7260 C.2    90  TYR90       0.2264
      4  O        -54.2180  -67.7120    1.7210 O.2    90  TYR90      -0.2867
      5  CB       -55.0370  -69.6880   -0.6230 C.3    90  TYR90       0.0534
      6  CG       -54.5950  -71.1100   -0.7230 C.ar   90  TYR90      -0.0201
      7  CD1      -55.4590  -72.0930   -1.1690 C.ar   90  TYR90      -0.0009
      8  CD2      -53.3100  -71.4860   -0.3540 C.ar   90  TYR90      -0.0009
      9  CE1      -55.0610  -73.4180   -1.2600 C.ar   90  TYR90       0.0417
     10  CE2      -52.9070  -72.8100   -0.4380 C.ar   90  TYR90       0.0417
     11  CZ       -53.7890  -73.7630   -0.8980 C.ar   90  TYR90       0.1957
     12  OH       -53.3770  -75.0450   -0.9960 O.3    90  TYR90      -0.2866
     13  N        -56.9750  -71.7030  -11.2360 N.3   126  GLY126     -0.1210
     14  CA       -57.2090  -72.6410  -10.1470 C.3   126  GLY126      0.1956
     15  C        -57.7520  -71.9320   -8.9240 C.2   126  GLY126      0.2612
     16  O        -57.4950  -70.7300   -8.7170 O.2   126  GLY126     -0.2717
     17  N        -58.4950  -72.6790   -8.1080 N.am  127  GLY127     -0.1942
     18  CA       -59.0610  -72.1410   -6.8740 C.3   127  GLY127      0.2014
     19  C        -59.2390  -73.1790   -5.7900 C.2   127  GLY127      0.2640
     20  O        -58.8840  -74.3500   -5.9560 O.2   127  GLY127     -0.2714
     21  N        -59.7820  -72.7280   -4.6700 N.am  128  SER128     -0.1935
     22  CA       -59.8390  -73.5280   -3.4660 C.3   128  SER128      0.2055
     23  C        -61.0050  -73.1030   -2.6150 C.2   128  SER128      0.2643
     24  O        -61.4140  -71.9490   -2.6490 O.2   128  SER128     -0.2714
     25  CB       -58.5430  -73.3550   -2.6800 C.3   128  SER128      0.2130
     26  OG       -58.6590  -73.7650   -1.3240 O.3   128  SER128     -0.2179
     27  N        -61.5280  -74.0520   -1.8470 N.am  129  ASN129     -0.1957
     28  CA       -62.5610  -73.7740   -0.8620 C.3   129  ASN129      0.1819
     29  C        -62.0590  -72.9660    0.3280 C.2   129  ASN129      0.2621
     30  O        -62.8570  -72.4130    1.0690 O.2   129  ASN129     -0.2715
     31  CB       -63.2230  -75.0750   -0.4010 C.3   129  ASN129      0.1195
     32  CG       -64.1280  -75.6630   -1.4880 C.2   129  ASN129      0.2630
     33  OD1      -64.9040  -74.9370   -2.1280 O.2   129  ASN129     -0.2716
     34  ND2      -64.0410  -76.9720   -1.6990 N.am  129  ASN129     -0.0877
     35  N        -60.7480  -72.8690    0.4910 N.am  130  ALA130     -0.1977
     36  CA       -60.1580  -71.9210    1.4250 C.3   130  ALA130      0.1597
     37  C        -60.4430  -70.4580    1.0740 C.2   130  ALA130      0.2287
     38  O        -60.2520  -69.5810    1.9130 O.2   130  ALA130     -0.2864
     39  CB       -58.6490  -72.1400    1.4910 C.3   130  ALA130      0.0319
     40  N        -65.5490  -72.3260   -5.2200 N.3   137  SER137     -0.1217
     41  CA       -64.1610  -72.1520   -4.8650 C.3   137  SER137      0.1889
     42  C        -63.5620  -71.0090   -5.6910 C.2   137  SER137      0.2288
     43  O        -64.0530  -70.6950   -6.7710 O.2   137  SER137     -0.2866
     44  CB       -63.3750  -73.4490   -5.0550 C.3   137  SER137      0.2089
     45  OG       -63.2730  -73.7610   -6.4190 O.3   137  SER137     -0.2183
     46  N        -53.4900  -69.2570  -10.4570 N.3   145  TRP145     -0.1241
     47  CA       -52.9560  -70.5330   -9.9950 C.3   145  TRP145      0.1605
     48  C        -52.9220  -71.4670  -11.1850 C.2   145  TRP145      0.2264
     49  O        -53.9650  -71.8460  -11.7160 O.2   145  TRP145     -0.2867
     50  CB       -53.8440  -71.0980   -8.8880 C.3   145  TRP145      0.0550
     51  CG       -53.3080  -72.2810   -8.1460 C.ar  145  TRP145      0.0003
     52  CD1      -52.2350  -73.0510   -8.4670 C.ar  145  TRP145      0.0946
     53  CD2      -53.8600  -72.8460   -6.9600 C.ar  145  TRP145      0.0152
     54  NE1      -52.0770  -74.0570   -7.5410 N.ar  145  TRP145     -0.2442
     55  CE2      -53.0610  -73.9520   -6.6060 C.ar  145  TRP145      0.0810
     56  CE3      -54.9660  -72.5360   -6.1750 C.ar  145  TRP145      0.0012
     57  CZ2      -53.3150  -74.7360   -5.4860 C.ar  145  TRP145      0.0191
     58  CZ3      -55.2290  -73.3180   -5.0580 C.ar  145  TRP145      0.0001
     59  CH2      -54.4020  -74.4110   -4.7250 C.ar  145  TRP145      0.0015
     60  N        -51.9550  -75.0670  -13.0090 N.3   147  THR147     -0.1218
     61  CA       -51.8130  -76.4910  -12.7190 C.3   147  THR147      0.1862
     62  C        -51.7450  -77.2400  -14.0540 C.2   147  THR147      0.2287
     63  O        -51.9150  -76.6440  -15.1210 O.2   147  THR147     -0.2866
     64  CB       -52.9950  -77.0190  -11.8630 C.3   147  THR147      0.1770
     65  OG1      -54.2370  -76.7070  -12.5030 O.3   147  THR147     -0.2211
     66  CG2      -52.9810  -76.3890  -10.4810 C.3   147  THR147      0.0375
     67  N        -46.4350  -72.1170   -4.6030 N.3   175  HIS175     -0.1241
     68  CA       -47.2930  -72.9950   -3.8340 C.3   175  HIS175      0.1621
     69  C        -46.4770  -74.1150   -3.2000 C.2   175  HIS175      0.2264
     70  O        -45.6940  -74.7640   -3.8680 O.2   175  HIS175     -0.2867
     71  CB       -48.3690  -73.5770   -4.7330 C.3   175  HIS175      0.0745
     72  CG       -49.3350  -74.4560   -4.0130 C.ar  175  HIS175      0.0817
     73  ND1      -49.5260  -75.7770   -4.3450 N.ar  175  HIS175     -0.2268
     74  CD2      -50.1590  -74.2030   -2.9700 C.ar  175  HIS175      0.1154
     75  CE1      -50.4340  -76.2990   -3.5470 C.ar  175  HIS175      0.1986
     76  NE2      -50.8310  -75.3660   -2.7000 N.ar  175  HIS175     -0.2212
     77  N        -50.0390  -84.6320   -3.5690 N.3   182  GLU182     -0.1245
     78  CA       -50.5640  -83.3280   -3.9640 C.3   182  GLU182      0.1567
     79  C        -49.6640  -82.6410   -5.0000 C.2   182  GLU182      0.2260
     80  O        -50.1510  -82.1260   -6.0100 O.2   182  GLU182     -0.2867
     81  CB       -50.7010  -82.4600   -2.7180 C.3   182  GLU182      0.0388
     82  CG       -51.6420  -81.2820   -2.8290 C.3   182  GLU182      0.1160
     83  CD       -51.9520  -80.7040   -1.4570 C.2   182  GLU182      0.3649
     84  OE1      -52.8070  -81.2760   -0.7410 O.co2 182  GLU182     -0.2457
     85  OE2      -51.3100  -79.7050   -1.0780 O.co2 182  GLU182     -0.2457
     86  N        -50.9480  -82.0910   -8.8610 N.3   186  LEU186     -0.1245
     87  CA       -51.1190  -80.7360   -9.3990 C.3   186  LEU186      0.1561
     88  C        -50.1330  -80.3610  -10.4950 C.2   186  LEU186      0.2260
     89  O        -50.5150  -79.6930  -11.4510 O.2   186  LEU186     -0.2867
     90  CB       -51.0180  -79.6810   -8.2930 C.3   186  LEU186      0.0270
     91  CG       -52.1180  -79.6570   -7.2260 C.3   186  LEU186      0.0019
     92  CD1      -51.8600  -78.5160   -6.2590 C.3   186  LEU186      0.0001
     93  CD2      -53.5010  -79.5230   -7.8440 C.3   186  LEU186      0.0001
     94  N        -59.2510  -75.2400    5.9260 N.3   217  MET217     -0.1230
     95  CA       -59.3550  -76.4640    5.1170 C.3   217  MET217      0.1702
     96  C        -58.0360  -76.9300    4.4790 C.2   217  MET217      0.2593
     97  O        -58.0400  -77.9260    3.7390 O.2   217  MET217     -0.2718
     98  CB       -60.4200  -76.3300    3.9680 C.3   217  MET217      0.0401
     99  CG       -61.7950  -75.7320    4.3190 C.3   217  MET217      0.0596
    100  SD       -63.0820  -76.9930    4.4880 S.3   217  MET217     -0.1393
    101  CE       -63.2790  -77.4950    2.7610 C.3   217  MET217      0.0692
    102  N        -56.9180  -76.2400    4.7110 N.am  218  THR218     -0.1953
    103  CA       -55.6800  -76.6650    4.0650 C.3   218  THR218      0.1897
    104  C        -54.4210  -76.5850    4.9410 C.2   218  THR218      0.2313
    105  O        -54.2440  -75.6550    5.7370 O.2   218  THR218     -0.2863
    106  CB       -55.5080  -75.9550    2.7000 C.3   218  THR218      0.1794
    107  OG1      -54.3300  -76.4370    2.0390 O.3   218  THR218     -0.2208
    108  CG2      -55.4350  -74.4620    2.8490 C.3   218  THR218      0.0378
    109  N        -51.5210  -76.8540    3.1580 N.3   220  ALA220     -0.1245
    110  CA       -50.5920  -76.2620    2.2050 C.3   220  ALA220      0.1562
    111  C        -50.5150  -74.7620    2.3800 C.2   220  ALA220      0.2260
    112  O        -51.2430  -74.1800    3.1650 O.2   220  ALA220     -0.2867
    113  CB       -51.0130  -76.6110    0.7980 C.3   220  ALA220      0.0290
@<TRIPOS>BOND
     1    63    62    2
     2    62    61    1
     3    60    61    1
     4    61    64    1
     5    65    64    1
     6    64    66    1
     7    49    48    2
     8    89    88    2
     9    13    14    1
    10    48    47    1
    11    88    87    1
    12    46    47    1
    13    14    15    1
    14    47    50    1
    15    87    86    1
    16    87    90    1
    17    15    16    2
    18    15    17   am
    19    50    51    1
    20    52    51   ar
    21    52    54   ar
    22    90    91    1
    23    51    53   ar
    24    17    18    1
    25    93    91    1
    26    54    55   ar
    27    91    92    1
    28    53    55   ar
    29    53    56   ar
    30    18    19    1
    31    43    42    2
    32    55    57   ar
    33    45    44    1
    34    56    58   ar
    35    80    79    2
    36    20    19    2
    37    19    21   am
    38    42    41    1
    39    57    59   ar
    40    40    41    1
    41    58    59   ar
    42    44    41    1
    43    79    78    1
    44    71    72    1
    45    71    68    1
    46    21    22    1
    47    67    68    1
    48    73    72   ar
    49    73    75   ar
    50    72    74   ar
    51    78    77    1
    52    78    81    1
    53    70    69    2
    54    68    69    1
    55    75    76   ar
    56    22    25    1
    57    22    23    1
    58    74    76   ar
    59    82    81    1
    60    82    83    1
    61    25    26    1
    62    24    23    2
    63    23    27   am
    64    33    32    2
    65    27    28    1
    66    34    32   am
    67    32    31    1
    68    83    85   ar
    69    83    84   ar
    70     9     7   ar
    71     9    11   ar
    72     7     6   ar
    73    12    11    1
    74    11    10   ar
    75    28    31    1
    76    28    29    1
    77     6     5    1
    78     6     8   ar
    79     5     2    1
    80    10     8   ar
    81    29    35   am
    82    29    30    2
    83    35    36    1
    84     1     2    1
    85     2     3    1
    86   113   110    1
    87    37    36    1
    88    37    38    2
    89    36    39    1
    90     4     3    2
    91   107   106    1
    92   110   111    1
    93   110   109    1
    94   111   112    2
    95   106   108    1
    96   106   103    1
    97   101   100    1
    98    97    96    2
    99    98    99    1
   100    98    95    1
   101   103   102    1
   102   103   104    1
   103    99   100    1
   104    96   102   am
   105    96    95    1
   106   104   105    2
   107    95    94    1
