@<TRIPOS>MOLECULE
tmp/5vu0A04.pdb
 77 76 0 0 0
SMALL
GASTEIGER

@<TRIPOS>ATOM
      1  N        118.1990   10.7990   12.4800 N.3   149  ILE149     -0.1231
      2  CA       117.6370   10.7910   11.1290 C.3   149  ILE149      0.1692
      3  C        118.5120   11.7640   10.3120 C.2   149  ILE149      0.2592
      4  O        119.1530   12.6500   10.9210 O.2   149  ILE149     -0.2718
      5  CB       116.2060   11.3540   11.2200 C.3   149  ILE149      0.0266
      6  CG1      115.4750   11.2530    9.9260 C.3   149  ILE149      0.0019
      7  CG2      116.2000   12.8230   11.6440 C.3   149  ILE149      0.0020
      8  CD1      113.9580   11.1470   10.1350 C.3   149  ILE149      0.0001
      9  N        118.5260   11.6070    8.9790 N.am  150  ALA150     -0.1966
     10  CA       119.1150   12.6010    8.0680 C.3   150  ALA150      0.1728
     11  C        118.0920   12.9250    7.0400 C.2   150  ALA150      0.2616
     12  O        117.3980   12.0220    6.5150 O.2   150  ALA150     -0.2715
     13  CB       120.3540   12.0500    7.3840 C.3   150  ALA150      0.0334
     14  N        117.9620   14.2030    6.7760 N.am  151  VAL151     -0.1963
     15  CA       117.0150   14.7200    5.7890 C.3   151  VAL151      0.1727
     16  C        117.8060   15.6220    4.8470 C.2   151  VAL151      0.2616
     17  O        118.5970   16.4710    5.3460 O.2   151  VAL151     -0.2715
     18  CB       115.9820   15.5490    6.5080 C.3   151  VAL151      0.0290
     19  CG1      114.9420   16.1160    5.5380 C.3   151  VAL151      0.0023
     20  CG2      115.3330   14.7130    7.6060 C.3   151  VAL151      0.0023
     21  N        117.6560   15.4460    3.5360 N.am  152  GLU152     -0.1977
     22  CA       118.3520   16.2800    2.5650 C.3   152  GLU152      0.1602
     23  C        117.4840   16.5590    1.3650 C.2   152  GLU152      0.2287
     24  O        116.6000   15.7690    1.0310 O.2   152  GLU152     -0.2864
     25  CB       119.5520   15.5420    1.9860 C.3   152  GLU152      0.0415
     26  CG       120.6400   15.1150    2.9820 C.3   152  GLU152      0.1163
     27  CD       121.7050   14.2240    2.3460 C.2   152  GLU152      0.3649
     28  OE1      121.6720   13.9750    1.1180 O.co2 152  GLU152     -0.2457
     29  OE2      122.5700   13.7720    3.0540 O.co2 152  GLU152     -0.2457
     30  N        118.8120   25.0850    2.3660 N.3   163  TYR163     -0.1241
     31  CA       117.7170   24.6290    3.2140 C.3   163  TYR163      0.1605
     32  C        118.1360   24.6110    4.7040 C.2   163  TYR163      0.2264
     33  O        119.3080   24.5800    5.0060 O.2   163  TYR163     -0.2867
     34  CB       117.1980   23.2560    2.7520 C.3   163  TYR163      0.0534
     35  CG       118.1670   22.0780    2.9680 C.ar  163  TYR163     -0.0201
     36  CD1      118.2520   21.3840    4.1860 C.ar  163  TYR163     -0.0009
     37  CD2      118.9440   21.6230    1.9420 C.ar  163  TYR163     -0.0009
     38  CE1      119.1490   20.3120    4.3580 C.ar  163  TYR163      0.0417
     39  CE2      119.7920   20.5380    2.0750 C.ar  163  TYR163      0.0417
     40  CZ       119.8730   19.8830    3.2750 C.ar  163  TYR163      0.1957
     41  OH       120.7710   18.8000    3.3550 O.3   163  TYR163     -0.2866
     42  N        116.6840   22.6510    8.5340 N.3   165  THR165     -0.1203
     43  CA       115.8040   21.6530    9.1100 C.3   165  THR165      0.1994
     44  C        115.6720   21.9600   10.5670 C.2   165  THR165      0.2619
     45  O        116.6640   22.3610   11.2250 O.2   165  THR165     -0.2717
     46  CB       116.4140   20.2990    8.9140 C.3   165  THR165      0.1784
     47  OG1      116.4580   20.1010    7.4710 O.3   165  THR165     -0.2211
     48  CG2      115.5380   19.1720    9.5430 C.3   165  THR165      0.0376
     49  N        114.4640   21.8090   11.0890 N.am  166  THR166     -0.1939
     50  CA       114.2510   22.0720   12.4970 C.3   166  THR166      0.2013
     51  C        114.8340   20.8580   13.2530 C.2   166  THR166      0.2484
     52  O        114.9560   19.7550   12.6850 O.2   166  THR166     -0.2729
     53  CB       112.7610   22.0960   12.8350 C.3   166  THR166      0.1807
     54  OG1      112.1770   20.8160   12.5370 O.3   166  THR166     -0.2208
     55  CG2      112.1190   23.1530   12.1540 C.3   166  THR166      0.0379
     56  N        115.1130   21.0120   14.5490 N.am  167  PRO167     -0.2715
     57  CA       115.3330   19.8100   15.2640 C.3   167  PRO167      0.1521
     58  C        114.0850   18.9130   15.3570 C.2   167  PRO167      0.2440
     59  O        112.9440   19.3960   15.1600 O.2   167  PRO167     -0.2731
     60  CB       115.7240   20.2730   16.6880 C.3   167  PRO167      0.0310
     61  CG       115.5920   21.7760   16.7410 C.3   167  PRO167      0.0237
     62  CD       115.0180   22.1990   15.3920 C.3   167  PRO167      0.0939
     63  N        114.2860   17.6350   15.7220 N.am  168  PRO168     -0.2727
     64  CA       113.1510   16.7360   16.0010 C.3   168  PRO168      0.1402
     65  C        112.3710   17.2510   17.2170 C.2   168  PRO168      0.2269
     66  O        113.0110   17.7110   18.1200 O.2   168  PRO168     -0.2865
     67  CB       113.8130   15.4100   16.3710 C.3   168  PRO168      0.0296
     68  CG       115.2440   15.5300   15.9420 C.3   168  PRO168      0.0237
     69  CD       115.5940   16.9910   15.9860 C.3   168  PRO168      0.0939
     70  N        109.7890   16.4700   12.4150 N.3   178  LEU178     -0.1245
     71  CA       110.5210   17.6830   12.1210 C.3   178  LEU178      0.1561
     72  C        110.0010   18.2320   10.7760 C.2   178  LEU178      0.2260
     73  O        109.2910   17.5290   10.0150 O.2   178  LEU178     -0.2867
     74  CB       112.0400   17.4370   12.0940 C.3   178  LEU178      0.0270
     75  CG       112.5390   16.4070   11.0840 C.3   178  LEU178      0.0019
     76  CD1      112.4620   16.8390    9.5710 C.3   178  LEU178      0.0001
     77  CD2      113.9620   16.0250   11.3800 C.3   178  LEU178      0.0001
@<TRIPOS>BOND
     1    24    23    2
     2    28    27   ar
     3    23    22    1
     4    37    39   ar
     5    37    35   ar
     6    25    22    1
     7    25    26    1
     8    39    40   ar
     9    27    26    1
    10    27    29   ar
    11    30    31    1
    12    22    21    1
    13    34    35    1
    14    34    31    1
    15    35    36   ar
    16    31    32    1
    17    40    41    1
    18    40    38   ar
    19    21    16   am
    20    36    38   ar
    21    32    33    2
    22    16    17    2
    23    16    15    1
    24    19    18    1
    25    15    18    1
    26    15    14    1
    27    18    20    1
    28    12    11    2
    29    14    11   am
    30    11    10    1
    31    13    10    1
    32    47    46    1
    33    10     9    1
    34    42    43    1
    35    46    43    1
    36    46    48    1
    37     9     3   am
    38    43    44    1
    39    76    75    1
    40     6     8    1
    41     6     5    1
    42    73    72    2
    43     3     4    2
    44     3     2    1
    45    44    49   am
    46    44    45    2
    47    72    71    1
    48    75    77    1
    49    75    74    1
    50    49    50    1
    51     2     5    1
    52     2     1    1
    53     5     7    1
    54    74    71    1
    55    71    70    1
    56    55    53    1
    57    50    53    1
    58    50    51    1
    59    54    53    1
    60    52    51    2
    61    51    56   am
    62    56    57    1
    63    56    62    1
    64    59    58    2
    65    57    58    1
    66    57    60    1
    67    58    63   am
    68    62    61    1
    69    63    69    1
    70    63    64    1
    71    68    69    1
    72    68    67    1
    73    64    67    1
    74    64    65    1
    75    60    61    1
    76    65    66    2
