@<TRIPOS>MOLECULE
tmp/5vu7A00.pdb
 97 96 0 0 0
SMALL
GASTEIGER

@<TRIPOS>ATOM
      1  N          5.6140    4.3980  310.8460 N.3   404  ASP404     -0.1225
      2  CA         6.8540    5.1500  310.9610 C.3   404  ASP404      0.1805
      3  C          7.6050    4.7170  312.2110 C.2   404  ASP404      0.2597
      4  O          7.0050    4.2780  313.1950 O.2   404  ASP404     -0.2718
      5  CB         6.6040    6.6630  311.0180 C.3   404  ASP404      0.1424
      6  CG         5.9350    7.0940  312.3090 C.2   404  ASP404      0.3668
      7  OD1        4.8960    6.5050  312.6690 O.co2 404  ASP404     -0.2456
      8  OD2        6.4570    8.0130  312.9730 O.co2 404  ASP404     -0.2456
      9  N          8.9280    4.8460  312.1600 N.am  405  PHE405     -0.1976
     10  CA         9.7360    4.6390  313.3520 C.3   405  PHE405      0.1639
     11  C          9.5590    5.8020  314.3200 C.2   405  PHE405      0.2290
     12  O          9.3090    6.9430  313.9210 O.2   405  PHE405     -0.2864
     13  CB        11.2160    4.4910  312.9910 C.3   405  PHE405      0.0560
     14  CG        11.5880    3.1220  312.5050 C.ar  405  PHE405     -0.0200
     15  CD1       11.8600    2.1050  313.4040 C.ar  405  PHE405     -0.0042
     16  CD2       11.6660    2.8500  311.1510 C.ar  405  PHE405     -0.0042
     17  CE1       12.2010    0.8420  312.9600 C.ar  405  PHE405     -0.0003
     18  CE2       12.0070    1.5880  310.7030 C.ar  405  PHE405     -0.0003
     19  CZ        12.2740    0.5840  311.6080 C.ar  405  PHE405     -0.0000
     20  N         11.4220    8.1760  316.6680 N.3   407  SER407     -0.1202
     21  CA        12.7590    8.7250  316.8940 C.3   407  SER407      0.2020
     22  C         13.8350    7.8030  316.3210 C.2   407  SER407      0.2619
     23  O         14.6770    7.2670  317.0400 O.2   407  SER407     -0.2717
     24  CB        12.9980    8.9810  318.3840 C.3   407  SER407      0.2103
     25  OG        12.0960    9.9520  318.8820 O.3   407  SER407     -0.2182
     26  N         13.7900    7.6250  315.0000 N.am  408  LEU408     -0.1965
     27  CA        14.6980    6.7090  314.3160 C.3   408  LEU408      0.1728
     28  C         16.1560    6.9980  314.6530 C.2   408  LEU408      0.2616
     29  O         16.8100    6.2030  315.3350 O.2   408  LEU408     -0.2715
     30  CB        14.4940    6.7770  312.8010 C.3   408  LEU408      0.0311
     31  CG        15.4180    5.8800  311.9700 C.3   408  LEU408      0.0022
     32  CD1       15.2580    4.4080  312.3530 C.3   408  LEU408      0.0001
     33  CD2       15.1780    6.0830  310.4810 C.3   408  LEU408      0.0001
     34  N         16.6660    8.1390  314.1900 N.am  409  TYR409     -0.1960
     35  CA        18.0810    8.4530  314.3820 C.3   409  TYR409      0.1756
     36  C         18.4820    8.5420  315.8510 C.2   409  TYR409      0.2461
     37  O         19.5280    7.9750  316.2120 O.2   409  TYR409     -0.2730
     38  CB        18.4340    9.7410  313.6250 C.3   409  TYR409      0.0574
     39  CG        18.4280    9.6080  312.1120 C.ar  409  TYR409     -0.0198
     40  CD1       18.1130    8.4010  311.5000 C.ar  409  TYR409     -0.0009
     41  CD2       18.7410   10.6900  311.2950 C.ar  409  TYR409     -0.0009
     42  CE1       18.1060    8.2740  310.1260 C.ar  409  TYR409      0.0417
     43  CE2       18.7340   10.5710  309.9140 C.ar  409  TYR409      0.0417
     44  CZ        18.4170    9.3580  309.3370 C.ar  409  TYR409      0.1957
     45  OH        18.4080    9.2210  307.9680 O.3   409  TYR409     -0.2866
     46  N         17.7430    9.2240  316.7390 N.am  410  PRO410     -0.2727
     47  CA        18.1470    9.2050  318.1560 C.3   410  PRO410      0.1402
     48  C         18.1420    7.8150  318.7710 C.2   410  PRO410      0.2269
     49  O         19.0560    7.4830  319.5370 O.2   410  PRO410     -0.2865
     50  CB        17.1200   10.1300  318.8230 C.3   410  PRO410      0.0296
     51  CG        16.6810   11.0320  317.7420 C.3   410  PRO410      0.0237
     52  CD        16.6440   10.1790  316.5120 C.3   410  PRO410      0.0939
     53  N         16.4060   15.5680  318.0870 N.3   491  ASN491     -0.1225
     54  CA        16.4180   15.3360  316.6500 C.3   491  ASN491      0.1785
     55  C         17.4370   16.1980  315.9180 C.2   491  ASN491      0.2597
     56  O         17.4700   16.1740  314.6830 O.2   491  ASN491     -0.2718
     57  CB        15.0210   15.5730  316.0720 C.3   491  ASN491      0.1169
     58  CG        13.9620   14.7250  316.7500 C.2   491  ASN491      0.2627
     59  OD1       14.2410   13.6200  317.2150 O.2   491  ASN491     -0.2716
     60  ND2       12.7390   15.2410  316.8150 N.am  491  ASN491     -0.0877
     61  N         18.2610   16.9500  316.6460 N.am  492  SER492     -0.1952
     62  CA        19.3120   17.7640  316.0550 C.3   492  SER492      0.1924
     63  C         20.6880   17.1190  316.1590 C.2   492  SER492      0.2314
     64  O         21.6550   17.6660  315.6210 O.2   492  SER492     -0.2863
     65  CB        19.3410   19.1480  316.7150 C.3   492  SER492      0.2116
     66  OG        18.0560   19.7450  316.7080 O.3   492  SER492     -0.2180
     67  N         21.7940   14.1510  314.9190 N.3   494  TYR494     -0.1227
     68  CA        22.2900   13.5990  313.6640 C.3   494  TYR494      0.1736
     69  C         22.8030   14.7010  312.7490 C.2   494  TYR494      0.2596
     70  O         23.9240   14.6200  312.2340 O.2   494  TYR494     -0.2718
     71  CB        21.2050   12.7970  312.9550 C.3   494  TYR494      0.0548
     72  CG        21.4620   12.6960  311.4700 C.ar  494  TYR494     -0.0200
     73  CD1       22.4960   11.9130  310.9760 C.ar  494  TYR494     -0.0009
     74  CD2       20.6830   13.4000  310.5630 C.ar  494  TYR494     -0.0009
     75  CE1       22.7360   11.8300  309.6230 C.ar  494  TYR494      0.0417
     76  CE2       20.9130   13.3180  309.2090 C.ar  494  TYR494      0.0417
     77  CZ        21.9380   12.5330  308.7420 C.ar  494  TYR494      0.1957
     78  OH        22.1640   12.4570  307.3870 O.3   494  TYR494     -0.2866
     79  N         21.9820   15.7270  312.5160 N.am  495  GLY495     -0.1957
     80  CA        22.4250   16.8420  311.6990 C.3   495  GLY495      0.1869
     81  C         23.6790   17.4840  312.2490 C.2   495  GLY495      0.2309
     82  O         24.5390   17.9440  311.4930 O.2   495  GLY495     -0.2863
     83  N         12.5980    7.4780  304.2400 N.3   541  THR541     -0.1203
     84  CA        13.6090    7.5760  305.2920 C.3   541  THR541      0.1994
     85  C         13.2490    6.8640  306.5960 C.2   541  THR541      0.2617
     86  O         14.0000    5.9930  307.0440 O.2   541  THR541     -0.2717
     87  CB        13.9200    9.0470  305.5840 C.3   541  THR541      0.1784
     88  OG1       14.0760    9.7520  304.3470 O.3   541  THR541     -0.2211
     89  CG2       15.1920    9.1690  306.4050 C.3   541  THR541      0.0376
     90  N         12.1350    7.2330  307.2350 N.am  542  ASP542     -0.1973
     91  CA        11.8030    6.6760  308.5390 C.3   542  ASP542      0.1709
     92  C         10.4020    6.0900  308.6410 C.2   542  ASP542      0.2293
     93  O          9.9990    5.6850  309.7380 O.2   542  ASP542     -0.2864
     94  CB        11.9510    7.7470  309.6300 C.3   542  ASP542      0.1436
     95  CG        10.9280    8.8560  309.4910 C.2   542  ASP542      0.3671
     96  OD1       10.3330    8.9850  308.4030 O.co2 542  ASP542     -0.2456
     97  OD2       10.7220    9.6020  310.4730 O.co2 542  ASP542     -0.2456
@<TRIPOS>BOND
     1    83    84    1
     2    88    87    1
     3    84    87    1
     4    84    85    1
     5    87    89    1
     6    85    86    2
     7    85    90   am
     8    90    91    1
     9    78    77    1
    10    45    44    1
    11    96    95   ar
    12    91    92    1
    13    91    94    1
    14    92    93    2
    15    77    76   ar
    16    77    75   ar
    17    76    74   ar
    18    44    43   ar
    19    44    42   ar
    20    95    94    1
    21    95    97   ar
    22    75    73   ar
    23    43    41   ar
    24    42    40   ar
    25    33    31    1
    26    74    72   ar
    27    18    16   ar
    28    18    19   ar
    29     1     2    1
    30     2     5    1
    31     2     3    1
    32    73    72   ar
    33     5     6    1
    34    16    14   ar
    35    41    39   ar
    36    72    71    1
    37    82    81    2
    38    40    39   ar
    39    19    17   ar
    40    80    81    1
    41    80    79    1
    42    31    32    1
    43    31    30    1
    44    39    38    1
    45     9     3   am
    46     9    10    1
    47     3     4    2
    48    70    69    2
    49     6     7   ar
    50     6     8   ar
    51    14    13    1
    52    14    15   ar
    53    79    69   am
    54    69    68    1
    55    30    27    1
    56    71    68    1
    57    17    15   ar
    58    13    10    1
    59    10    11    1
    60    38    35    1
    61    68    67    1
    62    12    11    2
    63    34    35    1
    64    34    28   am
    65    27    28    1
    66    27    26    1
    67    35    36    1
    68    28    29    2
    69    56    55    2
    70    26    22   am
    71    64    63    2
    72    36    37    2
    73    36    46   am
    74    55    61   am
    75    55    54    1
    76    62    63    1
    77    62    61    1
    78    62    65    1
    79    57    54    1
    80    57    58    1
    81    22    21    1
    82    22    23    2
    83    52    46    1
    84    52    51    1
    85    54    53    1
    86    20    21    1
    87    66    65    1
    88    46    47    1
    89    58    60   am
    90    58    59    2
    91    21    24    1
    92    51    50    1
    93    47    48    1
    94    47    50    1
    95    24    25    1
    96    48    49    2
