@<TRIPOS>MOLECULE
tmp/5vu8A00.pdb
 182 174 0 0 0
SMALL
GASTEIGER

@<TRIPOS>ATOM
      1  N         76.1790  111.7360  458.8780 N.3   402  TYR402     -0.1241
      2  CA        77.5240  112.2640  459.0750 C.3   402  TYR402      0.1605
      3  C         78.1080  111.6540  460.3440 C.2   402  TYR402      0.2264
      4  O         77.7060  112.0120  461.4560 O.2   402  TYR402     -0.2867
      5  CB        77.5080  113.7890  459.1550 C.3   402  TYR402      0.0534
      6  CG        78.8900  114.4030  459.1860 C.ar  402  TYR402     -0.0201
      7  CD1       79.7810  114.1970  458.1410 C.ar  402  TYR402     -0.0009
      8  CD2       79.3020  115.1900  460.2530 C.ar  402  TYR402     -0.0009
      9  CE1       81.0440  114.7540  458.1580 C.ar  402  TYR402      0.0417
     10  CE2       80.5660  115.7520  460.2790 C.ar  402  TYR402      0.0417
     11  CZ        81.4320  115.5300  459.2280 C.ar  402  TYR402      0.1957
     12  OH        82.6920  116.0850  459.2440 O.3   402  TYR402     -0.2866
     13  N         81.5130  111.4520  462.2750 N.3   404  ASP404     -0.1225
     14  CA        82.8140  112.0960  462.3490 C.3   404  ASP404      0.1805
     15  C         83.5540  111.6590  463.6050 C.2   404  ASP404      0.2598
     16  O         82.9420  111.3390  464.6300 O.2   404  ASP404     -0.2718
     17  CB        82.6800  113.6240  462.3300 C.3   404  ASP404      0.1424
     18  CG        82.2410  114.1860  463.6660 C.2   404  ASP404      0.3668
     19  OD1       83.0770  114.8020  464.3590 O.co2 404  ASP404     -0.2456
     20  OD2       81.0640  113.9950  464.0300 O.co2 404  ASP404     -0.2456
     21  N         84.8800  111.6400  463.5100 N.am  405  PHE405     -0.1962
     22  CA        85.7130  111.3480  464.6660 C.3   405  PHE405      0.1771
     23  C         85.6020  112.4620  465.6990 C.2   405  PHE405      0.2619
     24  O         85.4530  113.6400  465.3640 O.2   405  PHE405     -0.2715
     25  CB        87.1730  111.1740  464.2440 C.3   405  PHE405      0.0574
     26  CG        87.5210  109.7800  463.8110 C.ar  405  PHE405     -0.0200
     27  CD1       87.2690  109.3550  462.5170 C.ar  405  PHE405     -0.0042
     28  CD2       88.1130  108.8960  464.6980 C.ar  405  PHE405     -0.0042
     29  CE1       87.5940  108.0710  462.1190 C.ar  405  PHE405     -0.0003
     30  CE2       88.4400  107.6140  464.3060 C.ar  405  PHE405     -0.0003
     31  CZ        88.1800  107.2000  463.0150 C.ar  405  PHE405     -0.0000
     32  N         85.6750  112.0780  466.9700 N.am  406  ARG406     -0.1963
     33  CA        85.6240  113.0320  468.0730 C.3   406  ARG406      0.1729
     34  C         87.0500  113.3950  468.4670 C.2   406  ARG406      0.2617
     35  O         87.7600  112.5800  469.0660 O.2   406  ARG406     -0.2715
     36  CB        84.8630  112.4510  469.2610 C.3   406  ARG406      0.0348
     37  CG        84.7380  113.4170  470.4240 C.3   406  ARG406      0.0492
     38  CD        84.6750  112.6880  471.7530 C.3   406  ARG406      0.2205
     39  NE        83.5080  111.8190  471.8550 N.pl3 406  ARG406     -0.0865
     40  CZ        83.1630  111.1650  472.9600 C.cat 406  ARG406      0.5346
     41  NH1       83.8980  111.2830  474.0570 N.pl3 406  ARG406      0.1354
     42  NH2       82.0850  110.3930  472.9680 N.pl3 406  ARG406      0.1354
     43  N         87.4630  114.6180  468.1370 N.am  407  SER407     -0.1936
     44  CA        88.8080  115.1140  468.4260 C.3   407  SER407      0.2055
     45  C         89.8650  114.1520  467.8810 C.2   407  SER407      0.2643
     46  O         90.6340  113.5380  468.6220 O.2   407  SER407     -0.2714
     47  CB        88.9940  115.3490  469.9270 C.3   407  SER407      0.2130
     48  OG        88.0510  116.2870  470.4180 O.3   407  SER407     -0.2179
     49  N         89.8830  114.0340  466.5520 N.am  408  LEU408     -0.1963
     50  CA        90.7290  113.0430  465.8940 C.3   408  LEU408      0.1728
     51  C         92.2060  113.3030  466.1690 C.2   408  LEU408      0.2616
     52  O         92.9130  112.4430  466.7050 O.2   408  LEU408     -0.2715
     53  CB        90.4510  113.0380  464.3900 C.3   408  LEU408      0.0311
     54  CG        91.3390  112.1320  463.5350 C.3   408  LEU408      0.0022
     55  CD1       91.2050  110.6810  463.9670 C.3   408  LEU408      0.0001
     56  CD2       91.0010  112.2900  462.0610 C.3   408  LEU408      0.0001
     57  N         92.6880  114.4910  465.8070 N.am  409  TYR409     -0.1974
     58  CA        94.1100  114.7850  465.9630 C.3   409  TYR409      0.1639
     59  C         94.5840  114.7720  467.4130 C.2   409  TYR409      0.2290
     60  O         95.6740  114.2290  467.6660 O.2   409  TYR409     -0.2864
     61  CB        94.4340  116.1250  465.2890 C.3   409  TYR409      0.0560
     62  CG        94.3250  116.0870  463.7810 C.ar  409  TYR409     -0.0198
     63  CD1       94.5860  114.9200  463.0770 C.ar  409  TYR409     -0.0009
     64  CD2       93.9560  117.2170  463.0630 C.ar  409  TYR409     -0.0009
     65  CE1       94.4870  114.8790  461.6990 C.ar  409  TYR409      0.0417
     66  CE2       93.8540  117.1850  461.6850 C.ar  409  TYR409      0.0417
     67  CZ        94.1210  116.0130  461.0080 C.ar  409  TYR409      0.1957
     68  OH        94.0200  115.9770  459.6360 O.3   409  TYR409     -0.2866
     69  N         86.0040  119.6990  477.8790 N.3   460  ARG460     -0.1245
     70  CA        85.0580  119.9640  476.8010 C.3   460  ARG460      0.1563
     71  C         83.8170  119.0900  476.9210 C.2   460  ARG460      0.2260
     72  O         82.6950  119.5710  476.7220 O.2   460  ARG460     -0.2867
     73  CB        85.7210  119.7460  475.4410 C.3   460  ARG460      0.0307
     74  CG        84.8010  120.0630  474.2730 C.3   460  ARG460      0.0489
     75  CD        85.3400  119.5360  472.9570 C.3   460  ARG460      0.2205
     76  NE        84.4230  119.8240  471.8580 N.pl3 460  ARG460     -0.0865
     77  CZ        84.5830  119.3880  470.6130 C.cat 460  ARG460      0.5346
     78  NH1       85.6290  118.6350  470.3000 N.pl3 460  ARG460      0.1354
     79  NH2       83.6950  119.7030  469.6800 N.pl3 460  ARG460      0.1354
     80  N         79.7520  119.7640  476.9030 N.3   464  LYS464     -0.1245
     81  CA        78.8300  119.0980  475.9890 C.3   464  LYS464      0.1561
     82  C         77.6540  118.4850  476.7390 C.2   464  LYS464      0.2260
     83  O         76.5220  118.4820  476.2410 O.2   464  LYS464     -0.2867
     84  CB        79.5700  118.0270  475.1870 C.3   464  LYS464      0.0271
     85  CG        80.6070  118.5730  474.2200 C.3   464  LYS464      0.0035
     86  CD        79.9520  119.1880  472.9940 C.3   464  LYS464      0.0206
     87  CE        79.1770  118.1440  472.2040 C.3   464  LYS464      0.1093
     88  NZ        78.5670  118.7150  470.9710 N.3   464  LYS464     -0.1314
     89  N         82.4020  124.8000  474.1300 N.3   483  GLN483     -0.1245
     90  CA        82.9070  123.5190  473.6470 C.3   483  GLN483      0.1566
     91  C         83.5660  123.6570  472.2820 C.2   483  GLN483      0.2260
     92  O         84.4250  122.8420  471.9240 O.2   483  GLN483     -0.2867
     93  CB        81.7770  122.4860  473.5980 C.3   483  GLN483      0.0367
     94  CG        80.6480  122.8130  472.6260 C.3   483  GLN483      0.0905
     95  CD        80.8770  122.2430  471.2360 C.2   483  GLN483      0.2608
     96  OE1       81.7920  121.4480  471.0210 O.2   483  GLN483     -0.2717
     97  NE2       80.0420  122.6480  470.2860 N.am  483  GLN483     -0.0878
     98  N         87.6460  122.7390  471.2190 N.3   487  LYS487     -0.1231
     99  CA        87.9670  121.9880  470.0090 C.3   487  LYS487      0.1693
    100  C         89.0660  122.6800  469.2110 C.2   487  LYS487      0.2591
    101  O         90.0310  122.0410  468.7740 O.2   487  LYS487     -0.2718
    102  CB        86.7090  121.8120  469.1580 C.3   487  LYS487      0.0285
    103  CG        86.9760  121.6250  467.6730 C.3   487  LYS487      0.0035
    104  CD        85.7010  121.7950  466.8630 C.3   487  LYS487      0.0206
    105  CE        86.0040  121.9340  465.3790 C.3   487  LYS487      0.1093
    106  NZ        84.7700  122.1710  464.5770 N.3   487  LYS487     -0.1314
    107  N         88.9390  123.9950  469.0170 N.am  488  ILE488     -0.1980
    108  CA        89.9570  124.7380  468.2800 C.3   488  ILE488      0.1595
    109  C         91.2570  124.7930  469.0740 C.2   488  ILE488      0.2287
    110  O         92.3520  124.7370  468.5020 O.2   488  ILE488     -0.2864
    111  CB        89.4430  126.1470  467.9330 C.3   488  ILE488      0.0276
    112  CG1       88.0990  126.0630  467.2060 C.3   488  ILE488      0.0022
    113  CG2       90.4580  126.8950  467.0800 C.3   488  ILE488      0.0022
    114  CD1       88.1420  125.2550  465.9270 C.3   488  ILE488      0.0001
    115  N         93.1350  121.1970  468.7690 N.3   491  ASN491     -0.1240
    116  CA        93.8130  121.0150  467.4900 C.3   491  ASN491      0.1653
    117  C         95.0040  121.9470  467.3320 C.2   491  ASN491      0.2266
    118  O         95.8990  121.6610  466.5290 O.2   491  ASN491     -0.2867
    119  CB        92.8350  121.2330  466.3350 C.3   491  ASN491      0.1155
    120  CG        91.6790  120.2570  466.3570 C.2   491  ASN491      0.2627
    121  OD1       90.5150  120.6560  466.3600 O.2   491  ASN491     -0.2716
    122  ND2       91.9930  118.9660  466.3730 N.am  491  ASN491     -0.0877
    123  N         98.2950  120.2370  467.8110 N.3   494  TYR494     -0.1227
    124  CA        98.8100  119.5520  466.6310 C.3   494  TYR494      0.1736
    125  C         99.4900  120.5400  465.6870 C.2   494  TYR494      0.2596
    126  O        100.6150  120.3060  465.2310 O.2   494  TYR494     -0.2718
    127  CB        97.6760  118.8030  465.9250 C.3   494  TYR494      0.0548
    128  CG        97.7200  118.8940  464.4200 C.ar  494  TYR494     -0.0200
    129  CD1       98.6480  118.1670  463.6870 C.ar  494  TYR494     -0.0009
    130  CD2       96.8340  119.7100  463.7320 C.ar  494  TYR494     -0.0009
    131  CE1       98.6970  118.2590  462.3150 C.ar  494  TYR494      0.0417
    132  CE2       96.8740  119.8050  462.3590 C.ar  494  TYR494      0.0417
    133  CZ        97.8060  119.0790  461.6560 C.ar  494  TYR494      0.1957
    134  OH        97.8490  119.1720  460.2860 O.3   494  TYR494     -0.2866
    135  N         98.8190  121.6530  465.3800 N.am  495  GLY495     -0.1957
    136  CA        99.4450  122.7070  464.6010 C.3   495  GLY495      0.1869
    137  C        100.6230  123.3580  465.2910 C.2   495  GLY495      0.2309
    138  O        101.4970  123.9090  464.6130 O.2   495  GLY495     -0.2863
    139  N         88.2000  115.2040  456.7640 N.3   541  THR541     -0.1203
    140  CA        89.3150  114.7090  457.5670 C.3   541  THR541      0.1994
    141  C         88.8060  113.8750  458.7360 C.2   541  THR541      0.2617
    142  O         89.3530  112.8100  459.0360 O.2   541  THR541     -0.2717
    143  CB        90.1780  115.8590  458.1040 C.3   541  THR541      0.1784
    144  OG1       89.3440  116.9710  458.4510 O.3   541  THR541     -0.2211
    145  CG2       91.2270  116.2960  457.0890 C.3   541  THR541      0.0376
    146  N         87.7590  114.3590  459.4040 N.am  542  ASP542     -0.1973
    147  CA        87.2470  113.7300  460.6130 C.3   542  ASP542      0.1709
    148  C         86.0540  112.8170  460.3690 C.2   542  ASP542      0.2293
    149  O         85.8190  111.9090  461.1730 O.2   542  ASP542     -0.2864
    150  CB        86.8530  114.8020  461.6360 C.3   542  ASP542      0.1436
    151  CG        87.8960  114.9810  462.7200 C.2   542  ASP542      0.3671
    152  OD1       87.5730  114.7460  463.9040 O.co2 542  ASP542     -0.2456
    153  OD2       89.0460  115.3330  462.3870 O.co2 542  ASP542     -0.2456
    154  N         81.6470  108.9300  466.3320 N.3   578  GLU578     -0.1245
    155  CA        80.3660  109.2610  466.9360 C.3   578  GLU578      0.1567
    156  C         79.3320  109.6090  465.8700 C.2   578  GLU578      0.2260
    157  O         79.6490  109.8220  464.6960 O.2   578  GLU578     -0.2867
    158  CB        80.5070  110.4190  467.9330 C.3   578  GLU578      0.0388
    159  CG        80.8980  111.7430  467.3060 C.3   578  GLU578      0.1160
    160  CD        80.8270  112.8890  468.2950 C.2   578  GLU578      0.3649
    161  OE1       80.5080  112.6340  469.4750 O.co2 578  GLU578     -0.2457
    162  OE2       81.0860  114.0420  467.8930 O.co2 578  GLU578     -0.2457
    163  N         77.0360  112.2570  464.7290 N.3   580  GLU580     -0.1245
    164  CA        76.8310  113.6920  464.8940 C.3   580  GLU580      0.1567
    165  C         75.4720  114.1400  464.3720 C.2   580  GLU580      0.2260
    166  O         74.8460  115.0290  464.9600 O.2   580  GLU580     -0.2867
    167  CB        77.9490  114.4710  464.2050 C.3   580  GLU580      0.0388
    168  CG        78.0160  115.9340  464.6230 C.3   580  GLU580      0.1160
    169  CD        79.4210  116.3710  464.9940 C.2   580  GLU580      0.3649
    170  OE1       80.2100  116.6880  464.0790 O.co2 580  GLU580     -0.2457
    171  OE2       79.7400  116.3880  466.2020 O.co2 580  GLU580     -0.2457
    172  N         78.3220  124.7400  453.8950 N.3   606  ARG606     -0.1245
    173  CA        79.7390  124.7920  454.2350 C.3   606  ARG606      0.1563
    174  C         80.5490  125.0120  452.9670 C.2   606  ARG606      0.2260
    175  O         80.4860  124.1990  452.0390 O.2   606  ARG606     -0.2867
    176  CB        80.1860  123.5060  454.9370 C.3   606  ARG606      0.0307
    177  CG        79.3620  123.1420  456.1620 C.3   606  ARG606      0.0489
    178  CD        79.6240  124.0890  457.3200 C.3   606  ARG606      0.2205
    179  NE        80.4800  123.4780  458.3330 N.pl3 606  ARG606     -0.0865
    180  CZ        80.0290  122.7320  459.3360 C.cat 606  ARG606      0.5346
    181  NH1       80.8770  122.2120  460.2130 N.pl3 606  ARG606      0.1354
    182  NH2       78.7290  122.5040  459.4620 N.pl3 606  ARG606      0.1354
@<TRIPOS>BOND
     1   175   174    2
     2   174   173    1
     3   172   173    1
     4   173   176    1
     5   176   177    1
     6   177   178    1
     7   139   140    1
     8   145   143    1
     9   178   179    1
    10   140   143    1
    11   140   141    1
    12   143   144    1
    13     7     9   ar
    14     7     6   ar
    15     9    11   ar
    16   179   180    2
    17   141   142    2
    18   141   146   am
    19     1     2    1
    20     2     5    1
    21     2     3    1
    22     5     6    1
    23     6     8   ar
    24    11    12    1
    25    11    10   ar
    26   180   182    1
    27   180   181    1
    28   146   147    1
    29    68    67    1
    30     8    10   ar
    31   134   133    1
    32     3     4    2
    33   148   147    1
    34   148   149    2
    35   147   150    1
    36    67    66   ar
    37    67    65   ar
    38   150   151    1
    39   133   131   ar
    40   133   132   ar
    41    66    64   ar
    42    65    63   ar
    43    56    54    1
    44    29    27   ar
    45    29    31   ar
    46    13    14    1
    47   131   129   ar
    48    17    14    1
    49    17    18    1
    50    14    15    1
    51   132   130   ar
    52   153   151   ar
    53    27    26   ar
    54   151   152   ar
    55    31    30   ar
    56    64    62   ar
    57    63    62   ar
    58    21    15   am
    59    21    22    1
    60    54    55    1
    61    54    53    1
    62    15    16    2
    63    18    20   ar
    64    18    19   ar
    65   129   128   ar
    66   130   128   ar
    67    62    61    1
    68    26    25    1
    69    26    28   ar
    70   170   169   ar
    71   167   168    1
    72   167   164    1
    73    25    22    1
    74    30    28   ar
    75   165   164    1
    76   165   166    2
    77    53    50    1
    78   128   127    1
    79   106   105    1
    80   136   137    1
    81   136   135    1
    82   138   137    2
    83   168   169    1
    84    22    23    1
    85   157   156    2
    86   163   164    1
    87   169   171   ar
    88   126   125    2
    89    61    58    1
    90    24    23    2
    91   105   104    1
    92   135   125   am
    93   125   124    1
    94    23    32   am
    95    57    58    1
    96    57    51   am
    97   156   155    1
    98    50    51    1
    99    50    49    1
   100   127   124    1
   101   114   112    1
   102    58    59    1
   103    51    52    2
   104   154   155    1
   105   119   120    1
   106   119   116    1
   107   120   121    2
   108   120   122   am
   109   118   117    2
   110    49    45   am
   111   124   123    1
   112   104   103    1
   113   155   158    1
   114    32    33    1
   115   113   111    1
   116   112   111    1
   117   159   158    1
   118   159   160    1
   119   117   116    1
   120    59    60    2
   121   116   115    1
   122   103   102    1
   123    45    44    1
   124    45    46    2
   125   162   160   ar
   126   111   108    1
   127    33    34    1
   128    33    36    1
   129    43    44    1
   130    43    34   am
   131   108   107    1
   132   108   109    1
   133   160   161   ar
   134    44    47    1
   135    34    35    2
   136   110   109    2
   137   101   100    2
   138   107   100   am
   139   102    99    1
   140   100    99    1
   141    36    37    1
   142    79    77    1
   143    47    48    1
   144    99    98    1
   145    97    95   am
   146    78    77    1
   147    37    38    1
   148    77    76    2
   149    88    87    1
   150    96    95    2
   151    95    94    1
   152    38    39    1
   153    39    40    2
   154    76    75    1
   155    92    91    2
   156    87    86    1
   157    91    90    1
   158    94    93    1
   159    75    74    1
   160    40    42    1
   161    40    41    1
   162    86    85    1
   163    93    90    1
   164    90    89    1
   165    85    84    1
   166    74    73    1
   167    84    81    1
   168    73    70    1
   169    81    82    1
   170    81    80    1
   171    83    82    2
   172    72    71    2
   173    70    71    1
   174    70    69    1
