@<TRIPOS>MOLECULE
tmp/5vuaA00.pdb
 166 154 0 0 0
SMALL
GASTEIGER

@<TRIPOS>ATOM
      1  N         24.3570  -33.7100   -5.8030 N.3     9  LEU9       -0.1231
      2  CA        23.4400  -34.8140   -6.0950 C.3     9  LEU9        0.1693
      3  C         22.1600  -34.3110   -6.7500 C.2     9  LEU9        0.2593
      4  O         21.4940  -35.0440   -7.4830 O.2     9  LEU9       -0.2718
      5  CB        23.1080  -35.5970   -4.8220 C.3     9  LEU9        0.0284
      6  CG        24.2720  -36.3550   -4.1870 C.3     9  LEU9        0.0019
      7  CD1       23.8490  -37.0310   -2.8950 C.3     9  LEU9        0.0001
      8  CD2       24.8010  -37.3850   -5.1630 C.3     9  LEU9        0.0001
      9  N         21.8190  -33.0550   -6.4850 N.am   10  GLY10      -0.1942
     10  CA        20.6410  -32.4470   -7.0790 C.3    10  GLY10       0.2014
     11  C         20.3840  -31.0910   -6.4620 C.2    10  GLY10       0.2639
     12  O         20.9400  -30.7800   -5.4080 O.2    10  GLY10      -0.2714
     13  N         19.5520  -30.2810   -7.1110 N.am   11  SER11      -0.1949
     14  CA        19.2080  -28.9680   -6.5770 C.3    11  SER11       0.1924
     15  C         17.8460  -28.4920   -7.0710 C.2    11  SER11       0.2314
     16  O         17.2800  -29.0560   -8.0090 O.2    11  SER11      -0.2863
     17  CB        20.2780  -27.9330   -6.9400 C.3    11  SER11       0.2116
     18  OG        20.2440  -27.6280   -8.3260 O.3    11  SER11      -0.2180
     19  N         14.5830  -24.7050   -3.4340 N.3    14  PHE14      -0.1241
     20  CA        14.7120  -24.9300   -1.9950 C.3    14  PHE14       0.1605
     21  C         16.1720  -24.8420   -1.5570 C.2    14  PHE14       0.2264
     22  O         16.4740  -24.3820   -0.4480 O.2    14  PHE14      -0.2867
     23  CB        14.1770  -26.3200   -1.6340 C.3    14  PHE14       0.0534
     24  CG        15.0170  -27.4450   -2.1800 C.ar   14  PHE14      -0.0203
     25  CD1       14.8410  -27.8870   -3.4810 C.ar   14  PHE14      -0.0042
     26  CD2       16.0050  -28.0350   -1.4000 C.ar   14  PHE14      -0.0042
     27  CE1       15.6190  -28.9050   -3.9910 C.ar   14  PHE14      -0.0003
     28  CE2       16.7890  -29.0510   -1.9040 C.ar   14  PHE14      -0.0003
     29  CZ        16.5970  -29.4860   -3.2020 C.ar   14  PHE14      -0.0000
     30  N         21.7260  -30.4010   -2.6780 N.3    17  VAL17      -0.1245
     31  CA        22.1480  -31.5860   -1.9360 C.3    17  VAL17       0.1561
     32  C         23.4520  -32.1480   -2.4920 C.2    17  VAL17       0.2260
     33  O         23.5600  -32.3790   -3.6950 O.2    17  VAL17      -0.2867
     34  CB        21.0650  -32.6900   -1.9790 C.3    17  VAL17       0.0252
     35  CG1       21.5090  -33.9040   -1.1670 C.3    17  VAL17       0.0019
     36  CG2       19.7480  -32.1620   -1.4570 C.3    17  VAL17       0.0019
     37  N         24.6330  -37.3290    3.1760 N.3    30  ALA30      -0.1245
     38  CA        24.1570  -36.3710    2.1920 C.3    30  ALA30       0.1562
     39  C         24.0950  -35.0390    2.9110 C.2    30  ALA30       0.2260
     40  O         23.7480  -34.9810    4.0930 O.2    30  ALA30      -0.2867
     41  CB        22.7880  -36.7670    1.6490 C.3    30  ALA30       0.0290
     42  N         22.4630  -31.3590    2.8120 N.3    32  LYS32      -0.1245
     43  CA        21.3710  -30.6060    2.2090 C.3    32  LYS32       0.1561
     44  C         21.3650  -29.1510    2.6650 C.2    32  LYS32       0.2260
     45  O         21.1730  -28.8590    3.8480 O.2    32  LYS32      -0.2867
     46  CB        20.0290  -31.2680    2.5360 C.3    32  LYS32       0.0271
     47  CG        18.8190  -30.5850    1.9070 C.3    32  LYS32       0.0035
     48  CD        17.5540  -31.4040    2.1450 C.3    32  LYS32       0.0206
     49  CE        16.3490  -30.7970    1.4410 C.3    32  LYS32       0.1093
     50  NZ        15.1160  -31.6250    1.6480 N.3    32  LYS32      -0.1314
     51  N         11.1170  -29.3330    8.0930 N.3    54  GLU54      -0.1245
     52  CA        11.7490  -30.6040    7.7490 C.3    54  GLU54       0.1567
     53  C         12.6160  -31.1200    8.8930 C.2    54  GLU54       0.2260
     54  O         12.6700  -32.3280    9.1520 O.2    54  GLU54      -0.2867
     55  CB        12.5820  -30.4820    6.4590 C.3    54  GLU54       0.0388
     56  CG        13.3560  -31.7580    6.1270 C.3    54  GLU54       0.1160
     57  CD        14.0180  -31.7560    4.7460 C.2    54  GLU54       0.3649
     58  OE1       14.2640  -30.6620    4.1810 O.co2  54  GLU54      -0.2457
     59  OE2       14.2940  -32.8690    4.2290 O.co2  54  GLU54      -0.2457
     60  N         15.0120  -42.0970    5.8330 N.3    69  ILE69      -0.1245
     61  CA        16.3880  -41.6040    5.9470 C.3    69  ILE69       0.1561
     62  C         16.5130  -40.7420    7.2040 C.2    69  ILE69       0.2260
     63  O         15.6620  -39.8850    7.4750 O.2    69  ILE69      -0.2867
     64  CB        16.8360  -40.8210    4.6870 C.3    69  ILE69       0.0252
     65  CG1       17.2810  -41.7870    3.5810 C.3    69  ILE69       0.0019
     66  CG2       17.9630  -39.8510    5.0070 C.3    69  ILE69       0.0019
     67  CD1       18.5870  -42.5020    3.8370 C.3    69  ILE69       0.0001
     68  N         22.4540  -35.8120    6.3870 N.3    85  LEU85      -0.1231
     69  CA        21.5330  -36.9220    6.2900 C.3    85  LEU85       0.1693
     70  C         22.2590  -38.2190    5.9880 C.2    85  LEU85       0.2592
     71  O         23.3160  -38.2460    5.3530 O.2    85  LEU85      -0.2718
     72  CB        20.4730  -36.6430    5.2180 C.3    85  LEU85       0.0284
     73  CG        19.6760  -35.3490    5.3880 C.3    85  LEU85       0.0019
     74  CD1       19.2090  -34.8180    4.0410 C.3    85  LEU85       0.0001
     75  CD2       18.4870  -35.5770    6.3030 C.3    85  LEU85       0.0001
     76  N         21.6710  -39.2900    6.4890 N.am   86  GLU86      -0.1966
     77  CA        22.0980  -40.6480    6.2100 C.3    86  GLU86       0.1733
     78  C         22.2200  -40.8630    4.7000 C.2    86  GLU86       0.2616
     79  O         21.3790  -40.3840    3.9340 O.2    86  GLU86      -0.2715
     80  CB        21.0280  -41.5700    6.7880 C.3    86  GLU86       0.0429
     81  CG        21.3180  -43.0420    6.7870 C.3    86  GLU86       0.1163
     82  CD        20.2740  -43.8010    7.5830 C.2    86  GLU86       0.3649
     83  OE1       19.0870  -43.7840    7.1810 O.co2  86  GLU86      -0.2457
     84  OE2       20.6330  -44.3880    8.6270 O.co2  86  GLU86      -0.2457
     85  N         23.2610  -41.5660    4.2620 N.am   87  ARG87      -0.1964
     86  CA        23.4000  -41.9090    2.8410 C.3    87  ARG87       0.1714
     87  C         23.8430  -43.3530    2.6260 C.2    87  ARG87       0.2458
     88  O         25.0070  -43.6940    2.8540 O.2    87  ARG87      -0.2730
     89  CB        24.3660  -40.9680    2.1090 C.3    87  ARG87       0.0347
     90  CG        24.6660  -41.4150    0.6780 C.3    87  ARG87       0.0492
     91  CD        25.4450  -40.3680   -0.1150 C.3    87  ARG87       0.2205
     92  NE        26.8050  -40.1550    0.3890 N.pl3  87  ARG87      -0.0865
     93  CZ        27.8740  -40.8280   -0.0330 C.cat  87  ARG87       0.5346
     94  NH1       27.7500  -41.7670   -0.9620 N.pl3  87  ARG87       0.1354
     95  NH2       29.0690  -40.5640    0.4760 N.pl3  87  ARG87       0.1354
     96  N         22.9090  -44.2090    2.1870 N.am   88  PRO88      -0.2727
     97  CA        23.2820  -45.5910    1.8740 C.3    88  PRO88       0.1402
     98  C         24.0870  -45.6280    0.5780 C.2    88  PRO88       0.2269
     99  O         24.0400  -44.6840   -0.2180 O.2    88  PRO88      -0.2865
    100  CB        21.9290  -46.2970    1.6910 C.3    88  PRO88       0.0296
    101  CG        20.8870  -45.3470    2.2610 C.3    88  PRO88       0.0237
    102  CD        21.4600  -43.9750    2.0540 C.3    88  PRO88       0.0939
    103  N         23.3200  -46.6130   -3.8640 N.3    91  VAL91      -0.1245
    104  CA        21.8850  -46.3740   -3.9980 C.3    91  VAL91       0.1561
    105  C         21.5130  -45.9040   -5.3900 C.2    91  VAL91       0.2260
    106  O         22.3520  -45.4090   -6.1390 O.2    91  VAL91      -0.2867
    107  CB        21.3670  -45.2780   -3.0430 C.3    91  VAL91       0.0252
    108  CG1       21.2670  -45.7900   -1.6320 C.3    91  VAL91       0.0019
    109  CG2       22.2520  -44.0490   -3.1210 C.3    91  VAL91       0.0019
    110  N         17.7290  -43.8750   -6.8970 N.3    93  ASP93      -0.1239
    111  CA        16.3460  -43.5290   -6.5650 C.3    93  ASP93       0.1674
    112  C         15.3910  -44.3500   -7.4260 C.2    93  ASP93       0.2266
    113  O         15.7980  -44.8810   -8.4610 O.2    93  ASP93      -0.2867
    114  CB        16.0650  -42.0110   -6.6090 C.3    93  ASP93       0.1410
    115  CG        16.0170  -41.4300   -8.0230 C.2    93  ASP93       0.3668
    116  OD1       15.8150  -42.1590   -9.0190 O.co2  93  ASP93      -0.2456
    117  OD2       16.1590  -40.1940   -8.1390 O.co2  93  ASP93      -0.2456
    118  N         14.9340  -43.2590  -11.2760 N.3    96  ASP96      -0.1239
    119  CA        16.0040  -43.7170  -12.1630 C.3    96  ASP96       0.1674
    120  C         15.9270  -45.2210  -12.3740 C.2    96  ASP96       0.2266
    121  O         16.1740  -45.7150  -13.4760 O.2    96  ASP96      -0.2867
    122  CB        17.3800  -43.3610  -11.5980 C.3    96  ASP96       0.1410
    123  CG        17.6590  -41.8780  -11.6230 C.2    96  ASP96       0.3668
    124  OD1       16.8900  -41.1280  -12.2630 O.co2  96  ASP96      -0.2456
    125  OD2       18.6590  -41.4620  -10.9980 O.co2  96  ASP96      -0.2456
    126  N         10.9040  -40.3580   -7.0740 N.3   136  GLU136     -0.1231
    127  CA        12.1260  -39.5730   -6.8500 C.3   136  GLU136      0.1699
    128  C         12.5030  -39.4550   -5.3780 C.2   136  GLU136      0.2592
    129  O         13.6770  -39.2520   -5.0540 O.2   136  GLU136     -0.2718
    130  CB        11.9850  -38.1650   -7.4360 C.3   136  GLU136      0.0402
    131  CG        11.8830  -38.1090   -8.9460 C.3   136  GLU136      0.1161
    132  CD        11.5990  -36.7030   -9.4410 C.2   136  GLU136      0.3649
    133  OE1       12.5630  -35.9940   -9.7990 O.co2 136  GLU136     -0.2457
    134  OE2       10.4100  -36.3090   -9.4610 O.co2 136  GLU136     -0.2457
    135  N         11.5130  -39.5670   -4.4910 N.am  137  ASN137     -0.1974
    136  CA        11.7670  -39.4350   -3.0550 C.3   137  ASN137      0.1688
    137  C         11.9320  -40.7680   -2.3560 C.2   137  ASN137      0.2292
    138  O         11.7650  -40.8710   -1.1380 O.2   137  ASN137     -0.2864
    139  CB        10.6750  -38.6030   -2.3790 C.3   137  ASN137      0.1181
    140  CG        10.7100  -37.1560   -2.8150 C.2   137  ASN137      0.2629
    141  OD1       11.7630  -36.6520   -3.2030 O.2   137  ASN137     -0.2716
    142  ND2        9.5620  -36.4760   -2.7600 N.am  137  ASN137     -0.0877
    143  N         14.7160  -43.9570   -2.0960 N.3   139  LEU139     -0.1245
    144  CA        16.0510  -44.4610   -2.4030 C.3   139  LEU139      0.1561
    145  C         16.0810  -45.9610   -2.2180 C.2   139  LEU139      0.2260
    146  O         15.5160  -46.4890   -1.2550 O.2   139  LEU139     -0.2867
    147  CB        17.1060  -43.8090   -1.5080 C.3   139  LEU139      0.0270
    148  CG        17.2890  -42.2990   -1.6580 C.3   139  LEU139      0.0019
    149  CD1       18.4360  -41.8130   -0.7770 C.3   139  LEU139      0.0001
    150  CD2       17.5330  -41.9320   -3.1170 C.3   139  LEU139      0.0001
    151  N         12.8570  -40.0740    1.5120 N.3   150  ILE150     -0.1231
    152  CA        13.6320  -38.8540    1.7080 C.3   150  ILE150      0.1692
    153  C         12.8100  -37.6130    1.4020 C.2   150  ILE150      0.2592
    154  O         11.7100  -37.7070    0.8390 O.2   150  ILE150     -0.2718
    155  CB        14.8660  -38.8170    0.7920 C.3   150  ILE150      0.0266
    156  CG1       14.4270  -38.8640   -0.6720 C.3   150  ILE150      0.0019
    157  CG2       15.8120  -39.9580    1.1130 C.3   150  ILE150      0.0020
    158  CD1       15.5530  -38.6130   -1.6540 C.3   150  ILE150      0.0001
    159  N         13.3710  -36.4590    1.7640 N.am  151  ASP151     -0.1974
    160  CA        12.8010  -35.1450    1.4580 C.3   151  ASP151      0.1709
    161  C         11.4690  -34.8820    2.1600 C.2   151  ASP151      0.2293
    162  O         10.3910  -35.1000    1.5980 O.2   151  ASP151     -0.2864
    163  CB        12.6940  -34.9190   -0.0580 C.3   151  ASP151      0.1436
    164  CG        12.3930  -33.4700   -0.4120 C.2   151  ASP151      0.3671
    165  OD1       12.3660  -32.6230    0.5080 O.co2 151  ASP151     -0.2456
    166  OD2       12.1890  -33.1730   -1.6100 O.co2 151  ASP151     -0.2456
@<TRIPOS>BOND
     1   121   120    2
     2   120   119    1
     3   124   123   ar
     4   119   122    1
     5   119   118    1
     6   123   122    1
     7   123   125   ar
     8   133   132   ar
     9   134   132   ar
    10   132   131    1
    11   116   115   ar
    12   131   130    1
    13   113   112    2
    14    18    17    1
    15   117   115   ar
    16   115   114    1
    17    16    15    2
    18     4     3    2
    19   130   127    1
    20   112   111    1
    21    13    14    1
    22    13    11   am
    23    10     9    1
    24    10    11    1
    25   126   127    1
    26    15    14    1
    27    17    14    1
    28   110   111    1
    29   127   128    1
    30     3     9   am
    31     3     2    1
    32   114   111    1
    33    11    12    2
    34   106   105    2
    35     2     1    1
    36     2     5    1
    37   105   104    1
    38   128   129    2
    39   128   135   am
    40     8     6    1
    41     5     6    1
    42   135   136    1
    43     6     7    1
    44   104   103    1
    45   104   107    1
    46    27    25   ar
    47    27    29   ar
    48    33    32    2
    49    25    24   ar
    50    19    20    1
    51   141   140    2
    52    29    28   ar
    53   109   107    1
    54   150   148    1
    55   136   139    1
    56   136   137    1
    57   107   108    1
    58   140   142   am
    59   140   139    1
    60    30    31    1
    61    32    31    1
    62   144   145    1
    63   144   143    1
    64   144   147    1
    65   137   138    2
    66   145   146    2
    67    24    23    1
    68    24    26   ar
    69    20    23    1
    70    20    21    1
    71    34    31    1
    72    34    36    1
    73    34    35    1
    74    28    26   ar
    75   148   147    1
    76   148   149    1
    77   158   156    1
    78   166   164   ar
    79    21    22    2
    80    94    93    1
    81   156   155    1
    82   164   163    1
    83   164   165   ar
    84    99    98    2
    85    91    92    1
    86    91    90    1
    87   163   160    1
    88    93    92    2
    89    93    95    1
    90    98    97    1
    91    90    89    1
    92   155   157    1
    93   155   152    1
    94   154   153    2
    95   153   152    1
    96   153   159   am
    97    49    50    1
    98    49    48    1
    99   160   159    1
   100   160   161    1
   101   151   152    1
   102   162   161    2
   103    41    38    1
   104   100    97    1
   105   100   101    1
   106    97    96    1
   107    47    48    1
   108    47    46    1
   109   102    96    1
   110   102   101    1
   111    89    86    1
   112    96    87   am
   113    38    39    1
   114    38    37    1
   115    43    46    1
   116    43    44    1
   117    43    42    1
   118    87    86    1
   119    87    88    2
   120    44    45    2
   121    86    85    1
   122    39    40    2
   123    65    67    1
   124    65    64    1
   125    79    78    2
   126    74    73    1
   127    58    57   ar
   128    59    57   ar
   129    85    78   am
   130    64    66    1
   131    64    61    1
   132    78    77    1
   133    57    56    1
   134    72    73    1
   135    72    69    1
   136    71    70    2
   137    73    75    1
   138    60    61    1
   139    61    62    1
   140    70    69    1
   141    70    76   am
   142    56    55    1
   143    77    76    1
   144    77    80    1
   145    69    68    1
   146    55    52    1
   147    81    80    1
   148    81    82    1
   149    83    82   ar
   150    62    63    2
   151    82    84   ar
   152    52    51    1
   153    52    53    1
   154    53    54    2
