@<TRIPOS>MOLECULE
tmp/5vubA00.pdb
 158 147 0 0 0
SMALL
GASTEIGER

@<TRIPOS>ATOM
      1  N         41.4800   -4.3540    4.7350 N.3     9  LEU9       -0.1231
      2  CA        41.9690   -3.0090    5.0290 C.3     9  LEU9        0.1693
      3  C         40.8910   -2.1660    5.7050 C.2     9  LEU9        0.2593
      4  O         41.1860   -1.3050    6.5380 O.2     9  LEU9       -0.2718
      5  CB        42.4360   -2.3160    3.7450 C.3     9  LEU9        0.0284
      6  CG        43.7100   -2.8570    3.1020 C.3     9  LEU9        0.0019
      7  CD1       43.9180   -2.2570    1.7170 C.3     9  LEU9        0.0001
      8  CD2       44.9090   -2.5680    3.9920 C.3     9  LEU9        0.0001
      9  N         39.6410   -2.4090    5.3310 N.am   10  GLY10      -0.1942
     10  CA        38.5170   -1.7210    5.9400 C.3    10  GLY10       0.2014
     11  C         37.2260   -2.2100    5.3270 C.2    10  GLY10       0.2639
     12  O         37.2520   -2.8840    4.2970 O.2    10  GLY10      -0.2714
     13  N         36.1010   -1.8860    5.9560 N.am   11  SER11      -0.1949
     14  CA        34.8030   -2.2600    5.4130 C.3    11  SER11       0.1924
     15  C         33.7150   -1.3180    5.8950 C.2    11  SER11       0.2314
     16  O         33.8910   -0.6070    6.8850 O.2    11  SER11      -0.2863
     17  CB        34.4370   -3.6940    5.8020 C.3    11  SER11       0.2116
     18  OG        34.0770   -3.7810    7.1710 O.3    11  SER11      -0.2180
     19  N         28.7450   -0.3080    2.4160 N.3    14  PHE14      -0.1241
     20  CA        28.9910   -0.2570    0.9800 C.3    14  PHE14       0.1605
     21  C         29.6710   -1.5430    0.5070 C.2    14  PHE14       0.2264
     22  O         29.4210   -2.0160   -0.6090 O.2    14  PHE14      -0.2867
     23  CB        29.8810    0.9460    0.6340 C.3    14  PHE14       0.0534
     24  CG        31.3210    0.7640    1.0320 C.ar   14  PHE14      -0.0203
     25  CD1       32.2420    0.2220    0.1410 C.ar   14  PHE14      -0.0042
     26  CD2       31.7470    1.1060    2.3030 C.ar   14  PHE14      -0.0042
     27  CE1       33.5530    0.0300    0.5110 C.ar   14  PHE14      -0.0003
     28  CE2       33.0610    0.9200    2.6780 C.ar   14  PHE14      -0.0003
     29  CZ        33.9640    0.3800    1.7820 C.ar   14  PHE14      -0.0000
     30  N         37.2690   -3.7440    1.5970 N.3    17  VAL17      -0.1245
     31  CA        38.4890   -3.5100    0.8310 C.3    17  VAL17       0.1561
     32  C         39.6290   -4.3450    1.3840 C.2    17  VAL17       0.2260
     33  O         39.8920   -4.3180    2.5880 O.2    17  VAL17      -0.2867
     34  CB        38.9060   -2.0240    0.8690 C.3    17  VAL17       0.0252
     35  CG1       40.1210   -1.7970   -0.0210 C.3    17  VAL17       0.0019
     36  CG2       37.7600   -1.1440    0.4200 C.3    17  VAL17       0.0019
     37  N         44.7350   -2.7650   -4.2100 N.3    30  ALA30      -0.1245
     38  CA        43.6390   -2.8530   -3.2520 C.3    30  ALA30       0.1562
     39  C         42.4730   -3.4940   -3.9880 C.2    30  ALA30       0.2260
     40  O         42.2030   -3.1460   -5.1400 O.2    30  ALA30      -0.2867
     41  CB        43.2550   -1.4700   -2.7340 C.3    30  ALA30       0.0290
     42  N         38.5480   -3.8900   -3.9250 N.3    32  LYS32      -0.1245
     43  CA        37.3550   -3.3030   -3.3170 C.3    32  LYS32       0.1561
     44  C         36.0710   -3.9800   -3.7810 C.2    32  LYS32       0.2260
     45  O         35.7130   -3.9290   -4.9650 O.2    32  LYS32      -0.2867
     46  CB        37.2930   -1.8010   -3.6180 C.3    32  LYS32       0.0271
     47  CG        36.1190   -1.0640   -2.9660 C.3    32  LYS32       0.0035
     48  CD        36.1980    0.4370   -3.2640 C.3    32  LYS32       0.0206
     49  CE        35.1270    1.2230   -2.5200 C.3    32  LYS32       0.1093
     50  NZ        35.2000    2.6910   -2.8340 N.3    32  LYS32      -0.1314
     51  N         31.0200    5.0630   -9.2770 N.3    54  GLU54      -0.1245
     52  CA        32.4100    5.0080   -8.8750 C.3    54  GLU54       0.1567
     53  C         33.3160    4.5320  -10.0150 C.2    54  GLU54       0.2260
     54  O         34.3780    5.1050  -10.2630 O.2    54  GLU54      -0.2867
     55  CB        32.5250    4.0700   -7.6800 C.3    54  GLU54       0.0388
     56  CG        33.8350    4.1400   -6.9800 C.3    54  GLU54       0.1160
     57  CD        33.8920    3.2230   -5.7730 C.2    54  GLU54       0.3649
     58  OE1       34.9460    3.2300   -5.1210 O.co2  54  GLU54      -0.2457
     59  OE2       32.8980    2.5050   -5.4830 O.co2  54  GLU54      -0.2457
     60  N         43.8900    7.9260   -6.9600 N.3    69  ILE69      -0.1245
     61  CA        44.0920    6.4840   -7.0550 C.3    69  ILE69       0.1561
     62  C         43.6820    5.9940   -8.4590 C.2    69  ILE69       0.2260
     63  O         42.6760    6.4590   -9.0080 O.2    69  ILE69      -0.2867
     64  CB        43.2990    5.7590   -5.9260 C.3    69  ILE69       0.0252
     65  CG1       43.9920    4.4640   -5.4980 C.3    69  ILE69       0.0019
     66  CG2       41.8210    5.5620   -6.2960 C.3    69  ILE69       0.0019
     67  CD1       45.2610    4.7080   -4.6820 C.3    69  ILE69       0.0001
     68  N         42.3400   -1.5830   -7.5010 N.3    85  LEU85      -0.1231
     69  CA        42.8620   -0.2290   -7.3810 C.3    85  LEU85       0.1693
     70  C         44.3510   -0.2360   -7.0610 C.2    85  LEU85       0.2592
     71  O         44.8630   -1.1770   -6.4580 O.2    85  LEU85      -0.2718
     72  CB        42.1040    0.5190   -6.2780 C.3    85  LEU85       0.0284
     73  CG        40.5890    0.5840   -6.4780 C.3    85  LEU85       0.0019
     74  CD1       39.8460    0.6800   -5.1510 C.3    85  LEU85       0.0001
     75  CD2       40.2400    1.7570   -7.3660 C.3    85  LEU85       0.0001
     76  N         45.0390    0.8270   -7.4620 N.am   86  GLU86      -0.1966
     77  CA        46.4400    1.0210   -7.1150 C.3    86  GLU86       0.1733
     78  C         46.6230    1.0080   -5.5960 C.2    86  GLU86       0.2616
     79  O         45.7470    1.4610   -4.8570 O.2    86  GLU86      -0.2715
     80  CB        46.9240    2.3460   -7.7140 C.3    86  GLU86       0.0429
     81  CG        48.0310    3.0460   -6.9530 C.3    86  GLU86       0.1163
     82  CD        48.3400    4.4320   -7.5070 C.2    86  GLU86       0.3649
     83  OE1       47.4840    5.0020   -8.2270 O.co2  86  GLU86      -0.2457
     84  OE2       49.4440    4.9440   -7.2230 O.co2  86  GLU86      -0.2457
     85  N         47.7390    0.4570   -5.1270 N.am   87  ARG87      -0.1964
     86  CA        48.0600    0.5090   -3.6990 C.3    87  ARG87       0.1714
     87  C         49.5110    0.9050   -3.4600 C.2    87  ARG87       0.2458
     88  O         50.4220    0.1110   -3.6970 O.2    87  ARG87      -0.2730
     89  CB        47.7660   -0.8280   -3.0070 C.3    87  ARG87       0.0347
     90  CG        48.3290   -0.9230   -1.5850 C.3    87  ARG87       0.0492
     91  CD        47.8230   -2.1560   -0.8270 C.3    87  ARG87       0.2205
     92  NE        48.3380   -3.4220   -1.3460 N.pl3  87  ARG87      -0.0865
     93  CZ        49.4850   -3.9750   -0.9630 C.cat  87  ARG87       0.5346
     94  NH1       50.2570   -3.3650   -0.0700 N.pl3  87  ARG87       0.1354
     95  NH2       49.8680   -5.1340   -1.4780 N.pl3  87  ARG87       0.1354
     96  N         49.7310    2.1390   -2.9860 N.am   88  PRO88      -0.2727
     97  CA        51.0960    2.5470   -2.6410 C.3    88  PRO88       0.1402
     98  C         51.5600    1.7560   -1.4250 C.2    88  PRO88       0.2269
     99  O         50.7250    1.3030   -0.6350 O.2    88  PRO88      -0.2865
    100  CB        50.9440    4.0330   -2.2790 C.3    88  PRO88       0.0296
    101  CG        49.5990    4.4490   -2.8250 C.3    88  PRO88       0.0237
    102  CD        48.7520    3.2130   -2.7490 C.3    88  PRO88       0.0939
    103  N         52.2060    2.9930    2.8860 N.3    91  VAL91      -0.1245
    104  CA        51.1820    4.0150    2.8150 C.3    91  VAL91       0.1561
    105  C         50.5470    4.1840    4.1950 C.2    91  VAL91       0.2260
    106  O         50.5760    3.2650    5.0160 O.2    91  VAL91      -0.2867
    107  CB        50.1150    3.6390    1.7590 C.3    91  VAL91       0.0252
    108  CG1       49.3150    2.4260    2.2140 C.3    91  VAL91       0.0019
    109  CG2       49.1990    4.8110    1.4580 C.3    91  VAL91       0.0019
    110  N         46.9310    6.5310    5.7140 N.3    93  ASP93      -0.1239
    111  CA        45.9540    7.5710    5.3950 C.3    93  ASP93       0.1674
    112  C         46.1790    8.7900    6.2860 C.2    93  ASP93       0.2266
    113  O         46.8560    8.6910    7.3110 O.2    93  ASP93      -0.2867
    114  CB        44.4890    7.0690    5.3780 C.3    93  ASP93       0.1410
    115  CG        43.8970    6.8180    6.7690 C.2    93  ASP93       0.3668
    116  OD1       42.9030    6.0630    6.8380 O.co2  93  ASP93      -0.2456
    117  OD2       44.3680    7.3730    7.7830 O.co2  93  ASP93      -0.2456
    118  N         40.3930   10.7000    5.9670 N.3   135  GLU135     -0.1231
    119  CA        40.3200    9.2520    5.7700 C.3   135  GLU135      0.1699
    120  C         40.4230    8.8460    4.3010 C.2   135  GLU135      0.2592
    121  O         40.7880    7.7080    3.9900 O.2   135  GLU135     -0.2718
    122  CB        39.0120    8.7000    6.3290 C.3   135  GLU135      0.0402
    123  CG        38.9310    8.6580    7.8410 C.3   135  GLU135      0.1161
    124  CD        37.5580    8.2420    8.3210 C.2   135  GLU135      0.3649
    125  OE1       36.5960    9.0050    8.0920 O.co2 135  GLU135     -0.2457
    126  OE2       37.4420    7.1550    8.9210 O.co2 135  GLU135     -0.2457
    127  N         40.0730    9.7690    3.4090 N.am  136  ASN136     -0.1974
    128  CA        40.0510    9.4810    1.9740 C.3   136  ASN136      0.1688
    129  C         41.2770   10.0060    1.2470 C.2   136  ASN136      0.2292
    130  O         41.2640   10.1880    0.0270 O.2   136  ASN136     -0.2864
    131  CB        38.7710   10.0210    1.3310 C.3   136  ASN136      0.1181
    132  CG        37.5510    9.2000    1.7010 C.2   136  ASN136      0.2629
    133  OD1       37.6740    8.0330    2.0630 O.2   136  ASN136     -0.2716
    134  ND2       36.3660    9.8020    1.6020 N.am  136  ASN136     -0.0877
    135  N         45.3660    9.1280    0.9260 N.3   138  LEU138     -0.1245
    136  CA        46.4760    8.2340    1.2300 C.3   138  LEU138      0.1561
    137  C         47.8020    8.9680    1.0570 C.2   138  LEU138      0.2260
    138  O         47.9660    9.7690    0.1280 O.2   138  LEU138     -0.2867
    139  CB        46.4450    6.9990    0.3300 C.3   138  LEU138      0.0270
    140  CG        45.2420    6.0630    0.4420 C.3   138  LEU138      0.0019
    141  CD1       45.4010    4.8800   -0.5180 C.3   138  LEU138      0.0001
    142  CD2       45.0580    5.5780    1.8850 C.3   138  LEU138      0.0001
    143  N         41.1860    8.9230   -2.5530 N.3   149  ILE149     -0.1231
    144  CA        40.4950    7.6430   -2.7430 C.3   149  ILE149      0.1692
    145  C         38.9870    7.7350   -2.4900 C.2   149  ILE149      0.2592
    146  O         38.4880    8.7570   -2.0170 O.2   149  ILE149     -0.2718
    147  CB        41.0480    6.5350   -1.8120 C.3   149  ILE149      0.0266
    148  CG1       40.8720    6.9390   -0.3470 C.3   149  ILE149      0.0019
    149  CG2       42.5100    6.2440   -2.1040 C.3   149  ILE149      0.0020
    150  CD1       41.1250    5.8110    0.6400 C.3   149  ILE149      0.0001
    151  N         38.2900    6.6380   -2.7860 N.am  150  ASP150     -0.1974
    152  CA        36.8520    6.4810   -2.5430 C.3   150  ASP150      0.1709
    153  C         35.9660    7.4950   -3.2670 C.2   150  ASP150      0.2293
    154  O         35.5530    8.5030   -2.6930 O.2   150  ASP150     -0.2864
    155  CB        36.5290    6.4590   -1.0440 C.3   150  ASP150      0.1436
    156  CG        35.1130    5.9750   -0.7620 C.2   150  ASP150      0.3671
    157  OD1       34.4410    5.5080   -1.7050 O.co2 150  ASP150     -0.2456
    158  OD2       34.6740    6.0530    0.4030 O.co2 150  ASP150     -0.2456
@<TRIPOS>BOND
     1    54    53    2
     2    53    52    1
     3    51    52    1
     4    63    62    2
     5    52    55    1
     6    62    61    1
     7    83    82   ar
     8    80    77    1
     9    80    81    1
    10    55    56    1
    11    82    84   ar
    12    82    81    1
    13    68    69    1
    14    76    77    1
    15    76    70   am
    16    69    70    1
    17    69    72    1
    18    75    73    1
    19    77    78    1
    20    70    71    2
    21    61    60    1
    22    61    64    1
    23    56    57    1
    24    73    72    1
    25    73    74    1
    26    66    64    1
    27    64    65    1
    28    57    59   ar
    29    57    58   ar
    30    78    85   am
    31    78    79    2
    32    65    67    1
    33    40    39    2
    34    85    86    1
    35    45    44    2
    36    37    38    1
    37    39    38    1
    38    42    43    1
    39    44    43    1
    40    86    87    1
    41    86    89    1
    42    88    87    2
    43    46    43    1
    44    46    47    1
    45    87    96   am
    46   153   154    2
    47   153   152    1
    48    48    47    1
    49    48    49    1
    50    38    41    1
    51    89    90    1
    52    96   102    1
    53    96    97    1
    54    50    49    1
    55   101   102    1
    56   101   100    1
    57   151   152    1
    58   151   145   am
    59   144   143    1
    60   144   145    1
    61   144   147    1
    62    97   100    1
    63    97    98    1
    64   152   155    1
    65   145   146    2
    66   149   147    1
    67   147   148    1
    68   157   156   ar
    69    90    91    1
    70    95    93    1
    71    98    99    2
    72    92    93    2
    73    92    91    1
    74   155   156    1
    75    93    94    1
    76   156   158   ar
    77    22    21    2
    78   141   140    1
    79   148   150    1
    80    35    34    1
    81   130   129    2
    82   138   137    2
    83    25    27   ar
    84    25    24   ar
    85   139   140    1
    86   139   136    1
    87    36    34    1
    88   140   142    1
    89    21    20    1
    90    27    29   ar
    91    23    20    1
    92    23    24    1
    93    31    34    1
    94    31    32    1
    95    31    30    1
    96   135   136    1
    97    20    19    1
    98    24    26   ar
    99   137   136    1
   100   129   128    1
   101   131   132    1
   102   131   128    1
   103    32    33    2
   104   109   107    1
   105   134   132   am
   106   132   133    2
   107     7     6    1
   108   107   108    1
   109   107   104    1
   110    29    28   ar
   111   128   127    1
   112    26    28   ar
   113   104   103    1
   114   104   105    1
   115     6     5    1
   116     6     8    1
   117   127   120   am
   118     5     2    1
   119   121   120    2
   120   105   106    2
   121    12    11    2
   122   120   119    1
   123     1     2    1
   124     2     3    1
   125    11    10    1
   126    11    13   am
   127     9     3   am
   128     9    10    1
   129   114   111    1
   130   114   115    1
   131   111   110    1
   132   111   112    1
   133    14    17    1
   134    14    15    1
   135    14    13    1
   136     3     4    2
   137   119   118    1
   138   119   122    1
   139    17    18    1
   140    15    16    2
   141   112   113    2
   142   122   123    1
   143   115   116   ar
   144   115   117   ar
   145   123   124    1
   146   125   124   ar
   147   124   126   ar
