@<TRIPOS>MOLECULE
tmp/5vukA02.pdb
 168 165 0 0 0
SMALL
GASTEIGER

@<TRIPOS>ATOM
      1  N          2.7270    8.8690   34.8990 N.3    38  MET38      -0.1230
      2  CA         3.1010    8.4180   33.5610 C.3    38  MET38       0.1702
      3  C          3.0380    9.5470   32.5080 C.2    38  MET38       0.2592
      4  O          3.9300    9.6610   31.6630 O.2    38  MET38      -0.2718
      5  CB         2.1880    7.2650   33.1430 C.3    38  MET38       0.0401
      6  CG         2.6890    6.5060   31.9230 C.3    38  MET38       0.0596
      7  SD         3.6430    5.0240   32.3230 S.3    38  MET38      -0.1393
      8  CE         2.3670    4.0100   33.0480 C.3    38  MET38       0.0692
      9  N          1.9990   10.3860   32.5860 N.am   39  LEU39      -0.1980
     10  CA         1.6910   11.3660   31.5400 C.3    39  LEU39       0.1596
     11  C          1.2210   12.7320   32.0410 C.2    39  LEU39       0.2287
     12  O          0.0240   12.9630   32.1640 O.2    39  LEU39      -0.2864
     13  CB         0.6020   10.8060   30.6300 C.3    39  LEU39       0.0297
     14  CG         0.9600    9.5720   29.8190 C.3    39  LEU39       0.0022
     15  CD1       -0.2830    8.8870   29.2770 C.3    39  LEU39       0.0001
     16  CD2        1.8870    9.9750   28.6880 C.3    39  LEU39       0.0001
     17  N         15.3790    7.5630   28.9270 N.3   106  CYS106     -0.1235
     18  CA        16.0710    6.5410   28.1230 C.3   106  CYS106      0.1677
     19  C         17.4280    6.1780   28.7200 C.2   106  CYS106      0.2270
     20  O         18.3210    7.0280   28.8070 O.2   106  CYS106     -0.2867
     21  CB        16.2810    7.0320   26.6770 C.3   106  CYS106      0.0956
     22  SG        17.2000    5.8360   25.6590 S.3   106  CYS106     -0.0801
     23  N          1.8060    1.4690   17.8230 N.3   168  SER168     -0.1202
     24  CA         2.6770    2.0160   18.8680 C.3   168  SER168      0.2020
     25  C          4.1430    1.6440   18.6240 C.2   168  SER168      0.2618
     26  O          5.0520    2.3930   18.9680 O.2   168  SER168     -0.2717
     27  CB         2.2350    1.5180   20.2380 C.3   168  SER168      0.2103
     28  OG         2.0420    0.1160   20.2040 O.3   168  SER168     -0.2182
     29  N          4.3640    0.4820   18.0180 N.am  169  GLN169     -0.1979
     30  CA         5.6930    0.0890   17.5550 C.3   169  GLN169      0.1601
     31  C          5.5110   -0.5500   16.1950 C.2   169  GLN169      0.2287
     32  O          4.4650   -1.1340   15.9290 O.2   169  GLN169     -0.2864
     33  CB         6.3500   -0.9180   18.5110 C.3   169  GLN169      0.0394
     34  CG         6.6020   -0.4380   19.9450 C.3   169  GLN169      0.0908
     35  CD         7.1630   -1.5570   20.8300 C.2   169  GLN169      0.2608
     36  OE1        8.0380   -2.3190   20.4040 O.2   169  GLN169     -0.2717
     37  NE2        6.6400   -1.6760   22.0520 N.am  169  GLN169     -0.0878
     38  N          4.7260   -5.4330   16.5190 N.3   172  ARG172     -0.1245
     39  CA         4.0660   -5.9180   17.7370 C.3   172  ARG172      0.1563
     40  C          3.0970   -7.0920   17.4860 C.2   172  ARG172      0.2260
     41  O          2.5680   -7.2610   16.3820 O.2   172  ARG172     -0.2867
     42  CB         3.3290   -4.7820   18.4480 C.3   172  ARG172      0.0307
     43  CG         4.2000   -3.9000   19.2980 C.3   172  ARG172      0.0489
     44  CD         3.3750   -2.9840   20.1760 C.3   172  ARG172      0.2205
     45  NE         3.3090   -3.4680   21.5530 N.pl3 172  ARG172     -0.0865
     46  CZ         2.7910   -2.7760   22.5670 C.cat 172  ARG172      0.5346
     47  NH1        2.3010   -1.5590   22.3670 N.pl3 172  ARG172      0.1354
     48  NH2        2.7690   -3.2960   23.7880 N.pl3 172  ARG172      0.1354
     49  N         13.0060   -3.1980   18.5500 N.3   256  PRO256     -0.2116
     50  CA        12.0390   -2.3490   19.2340 C.3   256  PRO256      0.1372
     51  C         12.0080   -0.9960   18.5380 C.2   256  PRO256      0.2244
     52  O         13.0130   -0.2830   18.4390 O.2   256  PRO256     -0.2868
     53  CB        12.6200   -2.2380   20.6440 C.3   256  PRO256      0.0268
     54  CG        14.1190   -2.3060   20.4230 C.3   256  PRO256      0.0207
     55  CD        14.3230   -3.1890   19.2040 C.3   256  PRO256      0.0892
     56  N          9.7450    2.2570   18.3270 N.3   258  VAL258     -0.1245
     57  CA         8.6240    3.0430   18.8220 C.3   258  VAL258      0.1561
     58  C          8.1470    3.9700   17.7240 C.2   258  VAL258      0.2260
     59  O          8.9390    4.7360   17.1760 O.2   258  VAL258     -0.2867
     60  CB         9.0200    3.8440   20.0700 C.3   258  VAL258      0.0252
     61  CG1        7.9070    4.8170   20.4510 C.3   258  VAL258      0.0019
     62  CG2        9.2650    2.8810   21.2240 C.3   258  VAL258      0.0019
     63  N          4.9010    5.8610   17.7160 N.3   260  ASN260     -0.1225
     64  CA         3.7610    6.7340   17.9550 C.3   260  ASN260      0.1785
     65  C          4.0970    8.0450   18.6440 C.2   260  ASN260      0.2597
     66  O          3.1870    8.7450   19.0980 O.2   260  ASN260     -0.2718
     67  CB         2.6760    6.0060   18.7470 C.3   260  ASN260      0.1169
     68  CG         3.1600    5.5600   20.1070 C.2   260  ASN260      0.2627
     69  OD1        4.3110    5.8150   20.4910 O.2   260  ASN260     -0.2716
     70  ND2        2.2850    4.8980   20.8550 N.am  260  ASN260     -0.0877
     71  N          5.3830    8.3870   18.7210 N.am  261  MET261     -0.1979
     72  CA         5.7700    9.6200   19.4080 C.3   261  MET261      0.1605
     73  C          5.9180   10.8040   18.4640 C.2   261  MET261      0.2287
     74  O          5.9370   10.6410   17.2400 O.2   261  MET261     -0.2864
     75  CB         7.0390    9.4240   20.2380 C.3   261  MET261      0.0413
     76  CG         6.9080    8.3390   21.3080 C.3   261  MET261      0.0598
     77  SD         8.2430    8.4230   22.5170 S.3   261  MET261     -0.1393
     78  CE         7.6950    9.8420   23.4720 C.3   261  MET261      0.0692
     79  N         11.2610    5.4100   15.3590 N.3   275  PHE275     -0.1227
     80  CA        12.6640    5.1980   15.6810 C.3   275  PHE275      0.1736
     81  C         12.8960    3.8580   16.3770 C.2   275  PHE275      0.2596
     82  O         11.9800    3.2650   16.9560 O.2   275  PHE275     -0.2718
     83  CB        13.1950    6.3300   16.5560 C.3   275  PHE275      0.0547
     84  CG        12.4710    6.4970   17.8730 C.ar  275  PHE275     -0.0202
     85  CD1       12.7840    5.7080   18.9720 C.ar  275  PHE275     -0.0042
     86  CD2       11.5230    7.4860   18.0250 C.ar  275  PHE275     -0.0042
     87  CE1       12.1470    5.8900   20.1960 C.ar  275  PHE275     -0.0003
     88  CE2       10.8700    7.6710   19.2460 C.ar  275  PHE275     -0.0003
     89  CZ        11.1840    6.8800   20.3330 C.ar  275  PHE275     -0.0000
     90  N         14.1410    3.3880   16.3310 N.am  276  SER276     -0.1938
     91  CA        14.4550    2.0800   16.8730 C.3   276  SER276      0.2055
     92  C         15.8790    2.0160   17.3680 C.2   276  SER276      0.2644
     93  O         16.7330    2.7380   16.8790 O.2   276  SER276     -0.2714
     94  CB        14.2240    1.0040   15.8160 C.3   276  SER276      0.2130
     95  OG        15.1120    1.1800   14.7240 O.3   276  SER276     -0.2179
     96  N         16.1240    1.1360   18.3370 N.am  277  GLY277     -0.1939
     97  CA        17.4630    0.8810   18.8370 C.3   277  GLY277      0.2014
     98  C         17.5740   -0.6160   18.9960 C.2   277  GLY277      0.2639
     99  O         17.4160   -1.3490   18.0320 O.2   277  GLY277     -0.2714
    100  N         17.8390   -1.0800   20.2110 N.am  278  TRP278     -0.1959
    101  CA        17.8160   -2.5200   20.5080 C.3   278  TRP278      0.1771
    102  C         17.3340   -2.6980   21.9470 C.2   278  TRP278      0.2620
    103  O         17.2530   -1.7330   22.7110 O.2   278  TRP278     -0.2715
    104  CB        19.1940   -3.1840   20.3010 C.3   278  TRP278      0.0590
    105  CG        20.3080   -2.4700   21.0200 C.ar  278  TRP278      0.0006
    106  CD1       20.6570   -2.5930   22.3430 C.ar  278  TRP278      0.0946
    107  CD2       21.2090   -1.5140   20.4520 C.ar  278  TRP278      0.0152
    108  NE1       21.7240   -1.7700   22.6220 N.ar  278  TRP278     -0.2442
    109  CE2       22.0840   -1.1010   21.4800 C.ar  278  TRP278      0.0810
    110  CE3       21.3740   -0.9790   19.1680 C.ar  278  TRP278      0.0012
    111  CZ2       23.1000   -0.1670   21.2620 C.ar  278  TRP278      0.0191
    112  CZ3       22.3800   -0.0580   18.9500 C.ar  278  TRP278      0.0001
    113  CH2       23.2340    0.3400   19.9920 C.ar  278  TRP278      0.0015
    114  N         17.0040   -3.9260   22.3080 N.am  279  TYR279     -0.1960
    115  CA        16.3000   -4.1740   23.5570 C.3   279  TYR279      0.1771
    116  C         17.2610   -4.2440   24.7350 C.2   279  TYR279      0.2619
    117  O         18.3770   -4.7650   24.6140 O.2   279  TYR279     -0.2715
    118  CB        15.5460   -5.5100   23.4640 C.3   279  TYR279      0.0574
    119  CG        14.0900   -5.4040   23.0770 C.ar  279  TYR279     -0.0198
    120  CD1       13.6070   -6.0520   21.9400 C.ar  279  TYR279     -0.0009
    121  CD2       13.1900   -4.6810   23.8590 C.ar  279  TYR279     -0.0009
    122  CE1       12.2660   -5.9780   21.5830 C.ar  279  TYR279      0.0417
    123  CE2       11.8440   -4.6000   23.5140 C.ar  279  TYR279      0.0417
    124  CZ        11.3950   -5.2490   22.3740 C.ar  279  TYR279      0.1957
    125  OH        10.0630   -5.1780   22.0260 O.3   279  TYR279     -0.2866
    126  N         16.8220   -3.7290   25.8780 N.am  280  MET280     -0.1977
    127  CA        17.3930   -4.1550   27.1480 C.3   280  MET280      0.1605
    128  C         16.6110   -5.4140   27.5300 C.2   280  MET280      0.2287
    129  O         15.3880   -5.4700   27.3460 O.2   280  MET280     -0.2864
    130  CB        17.2520   -3.0520   28.2000 C.3   280  MET280      0.0413
    131  CG        17.7920   -3.4720   29.5500 C.3   280  MET280      0.0598
    132  SD        18.1850   -2.0200   30.5290 S.3   280  MET280     -0.1393
    133  CE        16.5370   -1.6700   31.1910 C.3   280  MET280      0.0692
    134  N         13.0380   -5.4700   29.3420 N.3   283  GLU283     -0.1245
    135  CA        11.8580   -4.9980   28.6230 C.3   283  GLU283      0.1567
    136  C         10.9740   -6.1490   28.1540 C.2   283  GLU283      0.2260
    137  O          9.7430   -6.1070   28.2760 O.2   283  GLU283     -0.2867
    138  CB        12.2720   -4.1840   27.4100 C.3   283  GLU283      0.0388
    139  CG        12.8390   -2.8120   27.7220 C.3   283  GLU283      0.1160
    140  CD        13.2270   -2.0780   26.4470 C.2   283  GLU283      0.3649
    141  OE1       12.3480   -1.3630   25.9050 O.co2 283  GLU283     -0.2457
    142  OE2       14.3900   -2.2430   25.9740 O.co2 283  GLU283     -0.2457
    143  N         12.1380    5.7570   35.6220 N.3   369  TRP369     -0.1241
    144  CA        12.2690    4.9870   34.3860 C.3   369  TRP369      0.1605
    145  C         13.6670    4.4400   34.1300 C.2   369  TRP369      0.2264
    146  O         13.8140    3.3820   33.5240 O.2   369  TRP369     -0.2867
    147  CB        11.8320    5.8540   33.2030 C.3   369  TRP369      0.0550
    148  CG        10.3590    6.0590   33.2130 C.ar  369  TRP369      0.0003
    149  CD1        9.6080    6.7020   34.1770 C.ar  369  TRP369      0.0946
    150  CD2        9.4380    5.5970   32.2270 C.ar  369  TRP369      0.0152
    151  NE1        8.2780    6.6660   33.8300 N.ar  369  TRP369     -0.2442
    152  CE2        8.1490    5.9930   32.6380 C.ar  369  TRP369      0.0810
    153  CE3        9.5810    4.8940   31.0270 C.ar  369  TRP369      0.0012
    154  CZ2        7.0100    5.7050   31.8860 C.ar  369  TRP369      0.0191
    155  CZ3        8.4580    4.6110   30.2870 C.ar  369  TRP369      0.0001
    156  CH2        7.1870    5.0140   30.7170 C.ar  369  TRP369      0.0015
    157  N          4.8710   12.5510   23.8660 N.3   397  TYR397     -0.1241
    158  CA         3.7610   11.6510   23.6290 C.3   397  TYR397      0.1605
    159  C          2.6890   12.4320   22.8870 C.2   397  TYR397      0.2264
    160  O          2.7170   13.6690   22.8570 O.2   397  TYR397     -0.2867
    161  CB         3.2390   11.0750   24.9510 C.3   397  TYR397      0.0534
    162  CG         4.1130    9.9640   25.5070 C.ar  397  TYR397     -0.0201
    163  CD1        4.7850   10.1150   26.7190 C.ar  397  TYR397     -0.0009
    164  CD2        4.2790    8.7640   24.8070 C.ar  397  TYR397     -0.0009
    165  CE1        5.5830    9.0980   27.2280 C.ar  397  TYR397      0.0417
    166  CE2        5.0750    7.7470   25.3070 C.ar  397  TYR397      0.0417
    167  CZ         5.7240    7.9220   26.5170 C.ar  397  TYR397      0.1957
    168  OH         6.5190    6.9130   27.0160 O.3   397  TYR397     -0.2866
@<TRIPOS>BOND
     1    95    94    1
     2    79    80    1
     3    80    81    1
     4    80    83    1
     5    94    91    1
     6    32    31    2
     7    31    30    1
     8    90    81   am
     9    90    91    1
    10    81    82    2
    11    41    40    2
    12    38    39    1
    13    83    84    1
    14    91    92    1
    15    93    92    2
    16    59    58    2
    17    74    73    2
    18    92    96   am
    19    40    39    1
    20    30    29    1
    21    30    33    1
    22    63    64    1
    23    58    57    1
    24    39    42    1
    25    23    24    1
    26    84    86   ar
    27    84    85   ar
    28    64    65    1
    29    64    67    1
    30    29    25   am
    31    86    88   ar
    32    99    98    2
    33    56    57    1
    34    96    97    1
    35    52    51    2
    36    42    43    1
    37    73    72    1
    38    33    34    1
    39    51    50    1
    40    49    55    1
    41    49    50    1
    42    25    24    1
    43    25    26    2
    44    65    71   am
    45    65    66    2
    46    71    72    1
    47    67    68    1
    48    57    60    1
    49    97    98    1
    50    24    27    1
    51   112   110   ar
    52   112   113   ar
    53    85    87   ar
    54    98   100   am
    55   110   107   ar
    56    55    54    1
    57    50    53    1
    58    88    89   ar
    59    43    44    1
    60    72    75    1
    61    34    35    1
    62   113   111   ar
    63    60    61    1
    64    60    62    1
    65    68    69    2
    66    68    70   am
    67    44    45    1
    68    87    89   ar
    69    28    27    1
    70   100   101    1
    71    75    76    1
    72   104   101    1
    73   104   105    1
    74    36    35    2
    75    54    53    1
    76   107   105   ar
    77   107   109   ar
    78   101   102    1
    79    35    37   am
    80   105   106   ar
    81   111   109   ar
    82    76    77    1
    83   109   108   ar
    84    45    46    2
    85   122   120   ar
    86   122   124   ar
    87   120   119   ar
    88   102   114   am
    89   102   103    2
    90   125   124    1
    91   114   115    1
    92   106   108   ar
    93    47    46    1
    94   124   123   ar
    95    77    78    1
    96    46    48    1
    97   160   159    2
    98   159   158    1
    99   119   118    1
   100   119   121   ar
   101   118   115    1
   102   123   121   ar
   103   115   116    1
   104   158   157    1
   105   158   161    1
   106   117   116    2
   107   116   126   am
   108   164   166   ar
   109   164   162   ar
   110   161   162    1
   111   166   167   ar
   112   162   163   ar
   113    22    21    1
   114   126   127    1
   115   141   140   ar
   116   142   140   ar
   117   140   139    1
   118   167   168    1
   119   167   165   ar
   120    21    18    1
   121   163   165   ar
   122   127   128    1
   123   127   130    1
   124   129   128    2
   125   138   139    1
   126   138   135    1
   127    18    19    1
   128    18    17    1
   129   136   137    2
   130   136   135    1
   131   130   131    1
   132   135   134    1
   133    16    14    1
   134    19    20    2
   135    15    14    1
   136   131   132    1
   137    14    13    1
   138   155   156   ar
   139   155   153   ar
   140   132   133    1
   141    13    10    1
   142   156   154   ar
   143   153   150   ar
   144    10    11    1
   145    10     9    1
   146     4     3    2
   147   154   152   ar
   148     6     7    1
   149     6     5    1
   150    11    12    2
   151   150   152   ar
   152   150   148   ar
   153     7     8    1
   154     3     9   am
   155     3     2    1
   156   152   151   ar
   157     5     2    1
   158   147   148    1
   159   147   144    1
   160   148   149   ar
   161   146   145    2
   162     2     1    1
   163   151   149   ar
   164   145   144    1
   165   144   143    1
