@<TRIPOS>MOLECULE
tmp/5vunB04.pdb
 94 91 0 0 0
SMALL
GASTEIGER

@<TRIPOS>ATOM
      1  N         22.6380    9.3830   69.6650 N.3   168  TRP168     -0.1241
      2  CA        23.6470    9.5510   68.6080 C.3   168  TRP168      0.1605
      3  C         23.6630    8.3790   67.6190 C.2   168  TRP168      0.2264
      4  O         24.1040    8.5280   66.4730 O.2   168  TRP168     -0.2867
      5  CB        25.0480    9.8070   69.1850 C.3   168  TRP168      0.0550
      6  CG        25.2310   11.1990   69.7680 C.ar  168  TRP168      0.0003
      7  CD1       24.2980   11.9350   70.4530 C.ar  168  TRP168      0.0946
      8  CD2       26.4170   12.0120   69.7150 C.ar  168  TRP168      0.0152
      9  NE1       24.8350   13.1470   70.8320 N.ar  168  TRP168     -0.2442
     10  CE2       26.1330   13.2180   70.3950 C.ar  168  TRP168      0.0810
     11  CE3       27.6930   11.8340   69.1700 C.ar  168  TRP168      0.0012
     12  CZ2       27.0720   14.2410   70.5260 C.ar  168  TRP168      0.0191
     13  CZ3       28.6290   12.8550   69.3070 C.ar  168  TRP168      0.0001
     14  CH2       28.3130   14.0400   69.9760 C.ar  168  TRP168      0.0015
     15  N         22.1820    5.8090   64.9010 N.3   170  SER170     -0.1217
     16  CA        21.2080    5.9530   63.8240 C.3   170  SER170      0.1889
     17  C         20.0380    5.0040   64.0410 C.2   170  SER170      0.2288
     18  O         18.9010    5.3080   63.6600 O.2   170  SER170     -0.2866
     19  CB        21.8500    5.6840   62.4570 C.3   170  SER170      0.2089
     20  OG        22.4800    4.4190   62.4420 O.3   170  SER170     -0.2183
     21  N         22.4040   -1.8530   66.1030 N.3   174  ARG174     -0.1245
     22  CA        23.1350   -1.7870   64.8400 C.3   174  ARG174      0.1563
     23  C         24.5360   -2.3400   65.0430 C.2   174  ARG174      0.2260
     24  O         25.0860   -2.2490   66.1500 O.2   174  ARG174     -0.2867
     25  CB        23.1850   -0.3430   64.3350 C.3   174  ARG174      0.0307
     26  CG        22.6000   -0.2340   62.9210 C.3   174  ARG174      0.0489
     27  CD        22.9160    1.0540   62.2020 C.3   174  ARG174      0.2205
     28  NE        22.5810    0.8980   60.7900 N.pl3 174  ARG174     -0.0865
     29  CZ        22.7200    1.8380   59.8600 C.cat 174  ARG174      0.5346
     30  NH1       23.1830    3.0410   60.1770 N.pl3 174  ARG174      0.1354
     31  NH2       22.3780    1.5710   58.6060 N.pl3 174  ARG174      0.1354
     32  N         28.5830    0.8580   56.9340 N.3   190  ALA190     -0.1231
     33  CA        27.7020    2.0040   57.1500 C.3   190  ALA190      0.1694
     34  C         27.9530    2.6810   58.4870 C.2   190  ALA190      0.2592
     35  O         27.5830    3.8380   58.6660 O.2   190  ALA190     -0.2718
     36  CB        26.2490    1.5740   57.0780 C.3   190  ALA190      0.0304
     37  N         28.5520    1.9530   59.4310 N.am  191  ASN191     -0.1974
     38  CA        28.6520    2.4420   60.8040 C.3   191  ASN191      0.1688
     39  C         30.0780    2.7250   61.2690 C.2   191  ASN191      0.2292
     40  O         30.3250    2.9010   62.4650 O.2   191  ASN191     -0.2864
     41  CB        27.9600    1.4560   61.7530 C.3   191  ASN191      0.1181
     42  CG        26.5160    1.2080   61.3670 C.2   191  ASN191      0.2629
     43  OD1       25.7830    2.1470   61.0550 O.2   191  ASN191     -0.2716
     44  ND2       26.1010   -0.0580   61.3690 N.am  191  ASN191     -0.0877
     45  N         32.0470    5.4290   60.9270 N.3   193  GLN193     -0.1231
     46  CA        32.2550    6.7060   61.6050 C.3   193  GLN193      0.1698
     47  C         31.7250    6.6700   63.0370 C.2   193  GLN193      0.2592
     48  O         32.4240    7.0640   63.9730 O.2   193  GLN193     -0.2718
     49  CB        31.6210    7.8740   60.8420 C.3   193  GLN193      0.0381
     50  CG        32.0380    9.2310   61.4230 C.3   193  GLN193      0.0905
     51  CD        31.3730   10.4220   60.7480 C.2   193  GLN193      0.2608
     52  OE1       30.3830   10.2780   60.0280 O.2   193  GLN193     -0.2717
     53  NE2       31.9190   11.6100   60.9840 N.am  193  GLN193     -0.0878
     54  N         30.4990    6.1870   63.2010 N.am  194  PHE194     -0.1976
     55  CA        29.8910    6.1370   64.5250 C.3   194  PHE194      0.1639
     56  C         30.6700    5.1870   65.4350 C.2   194  PHE194      0.2290
     57  O         30.8440    5.4490   66.6360 O.2   194  PHE194     -0.2864
     58  CB        28.4250    5.7200   64.4350 C.3   194  PHE194      0.0560
     59  CG        27.7600    5.6200   65.7780 C.ar  194  PHE194     -0.0200
     60  CD1       27.3310    6.7650   66.4370 C.ar  194  PHE194     -0.0042
     61  CD2       27.5950    4.3870   66.3930 C.ar  194  PHE194     -0.0042
     62  CE1       26.7320    6.6820   67.6980 C.ar  194  PHE194     -0.0003
     63  CE2       26.9930    4.2930   67.6520 C.ar  194  PHE194     -0.0003
     64  CZ        26.5650    5.4470   68.3010 C.ar  194  PHE194     -0.0000
     65  N         17.5060    8.5050   64.9290 N.3   262  ASN262     -0.1240
     66  CA        18.1230    9.7800   64.5900 C.3   262  ASN262      0.1653
     67  C         17.1910   10.7940   63.9150 C.2   262  ASN262      0.2266
     68  O         17.6520   11.8250   63.4240 O.2   262  ASN262     -0.2867
     69  CB        19.3730    9.5630   63.7300 C.3   262  ASN262      0.1155
     70  CG        19.0660    8.8860   62.4090 C.2   262  ASN262      0.2627
     71  OD1       17.9490    8.4090   62.1780 O.2   262  ASN262     -0.2716
     72  ND2       20.0660    8.8190   61.5390 N.am  262  ASN262     -0.0877
     73  N         23.6930   15.0360   61.8460 N.3   402  ASP402     -0.1239
     74  CA        24.2820   14.1360   62.8220 C.3   402  ASP402      0.1674
     75  C         24.8630   14.9680   63.9680 C.2   402  ASP402      0.2266
     76  O         25.4940   15.9960   63.7350 O.2   402  ASP402     -0.2867
     77  CB        25.3440   13.2380   62.1800 C.3   402  ASP402      0.1410
     78  CG        24.7370   12.1110   61.3480 C.2   402  ASP402      0.3668
     79  OD1       23.7710   11.4630   61.8170 O.co2 402  ASP402     -0.2456
     80  OD2       25.2330   11.8750   60.2240 O.co2 402  ASP402     -0.2456
     81  N         27.3210   14.7500   66.1120 N.3   404  TRP404     -0.1241
     82  CA        28.7560   15.0200   66.2070 C.3   404  TRP404      0.1605
     83  C         29.1890   16.2060   65.3470 C.2   404  TRP404      0.2264
     84  O         30.2170   16.8250   65.6100 O.2   404  TRP404     -0.2867
     85  CB        29.6040   13.7850   65.8810 C.3   404  TRP404      0.0550
     86  CG        29.2800   13.0940   64.5910 C.ar  404  TRP404      0.0003
     87  CD1       29.8200   13.3500   63.3630 C.ar  404  TRP404      0.0946
     88  CD2       28.3740   12.0000   64.4120 C.ar  404  TRP404      0.0152
     89  NE1       29.2940   12.4870   62.4260 N.ar  404  TRP404     -0.2442
     90  CE2       28.4020   11.6500   63.0450 C.ar  404  TRP404      0.0810
     91  CE3       27.5330   11.2870   65.2740 C.ar  404  TRP404      0.0012
     92  CZ2       27.6210   10.6180   62.5220 C.ar  404  TRP404      0.0191
     93  CZ3       26.7560   10.2670   64.7550 C.ar  404  TRP404      0.0001
     94  CH2       26.8080    9.9390   63.3920 C.ar  404  TRP404      0.0015
@<TRIPOS>BOND
     1    32    33    1
     2    36    33    1
     3    33    34    1
     4    34    35    2
     5    34    37   am
     6    31    29    1
     7    37    38    1
     8    29    30    1
     9    29    28    2
    10    52    51    2
    11    80    78   ar
    12    51    53   am
    13    51    50    1
    14    28    27    1
    15    38    39    1
    16    38    41    1
    17    49    50    1
    18    49    46    1
    19    45    46    1
    20    43    42    2
    21    39    40    2
    22    78    79   ar
    23    78    77    1
    24    42    44   am
    25    42    41    1
    26    72    70   am
    27    46    47    1
    28    73    74    1
    29    71    70    2
    30    77    74    1
    31    27    26    1
    32    70    69    1
    33    89    90   ar
    34    89    87   ar
    35    20    19    1
    36    19    16    1
    37    92    90   ar
    38    92    94   ar
    39    74    75    1
    40    26    25    1
    41    47    54   am
    42    47    48    2
    43    90    88   ar
    44    54    55    1
    45    87    86   ar
    46    94    93   ar
    47    68    67    2
    48    18    17    2
    49    69    66    1
    50    76    75    2
    51    16    17    1
    52    16    15    1
    53    67    66    1
    54    25    22    1
    55    88    86   ar
    56    88    91   ar
    57    58    55    1
    58    58    59    1
    59    55    56    1
    60    66    65    1
    61    86    85    1
    62    93    91   ar
    63    22    23    1
    64    22    21    1
    65    23    24    2
    66    83    84    2
    67    83    82    1
    68    56    57    2
    69    59    61   ar
    70    59    60   ar
    71    85    82    1
    72    81    82    1
    73    61    63   ar
    74    60    62   ar
    75     4     3    2
    76     3     2    1
    77    63    64   ar
    78    62    64   ar
    79     2     5    1
    80     2     1    1
    81    11    13   ar
    82    11     8   ar
    83     5     6    1
    84    13    14   ar
    85     8     6   ar
    86     8    10   ar
    87     6     7   ar
    88    14    12   ar
    89    10    12   ar
    90    10     9   ar
    91     7     9   ar
