@<TRIPOS>MOLECULE
tmp/5vunB03.pdb
 162 159 0 0 0
SMALL
GASTEIGER

@<TRIPOS>ATOM
      1  N         17.9720   12.4040   47.9030 N.3    38  MET38      -0.1230
      2  CA        17.7590   11.8090   49.2270 C.3    38  MET38       0.1702
      3  C         17.4230   12.8540   50.2940 C.2    38  MET38       0.2592
      4  O         16.4630   12.6930   51.0500 O.2    38  MET38      -0.2718
      5  CB        18.9820   10.9900   49.6510 C.3    38  MET38       0.0401
      6  CG        18.7690   10.1690   50.9190 C.3    38  MET38       0.0596
      7  SD        18.6450    8.3940   50.5670 S.3    38  MET38      -0.1393
      8  CE        20.1230    8.1380   49.5890 C.3    38  MET38       0.0692
      9  N         18.2100   13.9270   50.3420 N.am   39  LEU39      -0.1980
     10  CA        18.0060   14.9960   51.3210 C.3    39  LEU39       0.1596
     11  C         17.9100   16.3440   50.6100 C.2    39  LEU39       0.2287
     12  O         18.8800   17.1010   50.5790 O.2    39  LEU39      -0.2864
     13  CB        19.1680   15.0400   52.3200 C.3    39  LEU39       0.0297
     14  CG        19.8280   13.7330   52.7770 C.3    39  LEU39       0.0022
     15  CD1       21.2680   13.9860   53.1790 C.3    39  LEU39       0.0001
     16  CD2       19.0780   13.0850   53.9320 C.3    39  LEU39       0.0001
     17  N          7.2090    5.6940   53.8310 N.3   108  CYS108     -0.1235
     18  CA         6.9710    4.4650   54.6060 C.3   108  CYS108      0.1677
     19  C          5.9060    3.5710   53.9860 C.2   108  CYS108      0.2270
     20  O          4.7400    3.9690   53.8400 O.2   108  CYS108     -0.2867
     21  CB         6.5830    4.7850   56.0630 C.3   108  CYS108      0.0956
     22  SG         6.2080    3.2910   57.0000 S.3   108  CYS108     -0.0801
     23  N         20.3240    3.8470   64.6350 N.3   171  GLN171     -0.1245
     24  CA        19.2880    2.9130   65.0690 C.3   171  GLN171      0.1566
     25  C         19.6970    2.4280   66.4520 C.2   171  GLN171      0.2260
     26  O         20.8940    2.3830   66.7500 O.2   171  GLN171     -0.2867
     27  CB        19.1900    1.7000   64.1340 C.3   171  GLN171      0.0367
     28  CG        18.6710    2.0180   62.7370 C.3   171  GLN171      0.0905
     29  CD        18.6130    0.7930   61.8310 C.2   171  GLN171      0.2608
     30  OE1       18.3700   -0.3260   62.2850 O.2   171  GLN171     -0.2717
     31  NE2       18.8380    1.0060   60.5410 N.am  171  GLN171     -0.0878
     32  N         22.4040   -1.8530   66.1030 N.3   174  ARG174     -0.1245
     33  CA        23.1350   -1.7870   64.8400 C.3   174  ARG174      0.1563
     34  C         24.5360   -2.3400   65.0430 C.2   174  ARG174      0.2260
     35  O         25.0860   -2.2490   66.1500 O.2   174  ARG174     -0.2867
     36  CB        23.1850   -0.3430   64.3350 C.3   174  ARG174      0.0307
     37  CG        22.6000   -0.2340   62.9210 C.3   174  ARG174      0.0489
     38  CD        22.9160    1.0540   62.2020 C.3   174  ARG174      0.2205
     39  NE        22.5810    0.8980   60.7900 N.pl3 174  ARG174     -0.0865
     40  CZ        22.7200    1.8380   59.8600 C.cat 174  ARG174      0.5346
     41  NH1       23.1830    3.0410   60.1770 N.pl3 174  ARG174      0.1354
     42  NH2       22.3780    1.5710   58.6060 N.pl3 174  ARG174      0.1354
     43  N         14.1060   -3.3000   64.0500 N.3   258  PRO258     -0.2116
     44  CA        14.5580   -2.0820   63.3840 C.3   258  PRO258      0.1372
     45  C         14.0310   -0.8810   64.1580 C.2   258  PRO258      0.2244
     46  O         12.8140   -0.6820   64.2570 O.2   258  PRO258     -0.2868
     47  CB        13.8980   -2.1820   62.0000 C.3   258  PRO258      0.0268
     48  CG        12.6070   -2.9480   62.2470 C.3   258  PRO258      0.0207
     49  CD        12.8410   -3.8130   63.4860 C.3   258  PRO258      0.0892
     50  N         14.6810    3.0860   64.4930 N.3   260  VAL260     -0.1245
     51  CA        15.3640    4.2910   64.0140 C.3   260  VAL260      0.1561
     52  C         15.4050    5.3790   65.0740 C.2   260  VAL260      0.2260
     53  O         14.3790    5.7240   65.6380 O.2   260  VAL260     -0.2867
     54  CB        14.6700    4.8140   62.7750 C.3   260  VAL260      0.0252
     55  CG1       15.2360    6.1560   62.3660 C.3   260  VAL260      0.0019
     56  CG2       14.8660    3.7990   61.6970 C.3   260  VAL260      0.0019
     57  N         17.5060    8.5050   64.9290 N.3   262  ASN262     -0.1225
     58  CA        18.1230    9.7800   64.5900 C.3   262  ASN262      0.1785
     59  C         17.1910   10.7940   63.9150 C.2   262  ASN262      0.2597
     60  O         17.6520   11.8250   63.4240 O.2   262  ASN262     -0.2718
     61  CB        19.3730    9.5630   63.7300 C.3   262  ASN262      0.1169
     62  CG        19.0660    8.8860   62.4090 C.2   262  ASN262      0.2627
     63  OD1       17.9490    8.4090   62.1780 O.2   262  ASN262     -0.2716
     64  ND2       20.0660    8.8190   61.5390 N.am  262  ASN262     -0.0877
     65  N         15.8910   10.5190   63.8880 N.am  263  MET263     -0.1979
     66  CA        14.9710   11.4590   63.2590 C.3   263  MET263      0.1605
     67  C         14.4220   12.4840   64.2470 C.2   263  MET263      0.2287
     68  O         14.5260   12.3090   65.4630 O.2   263  MET263     -0.2864
     69  CB        13.8500   10.7220   62.5270 C.3   263  MET263      0.0413
     70  CG        14.4010    9.8330   61.4120 C.3   263  MET263      0.0598
     71  SD        13.1740    9.2370   60.2470 S.3   263  MET263     -0.1393
     72  CE        13.0090   10.6980   59.2090 C.3   263  MET263      0.0692
     73  N         11.8910    5.2340   67.3300 N.3   277  PHE277     -0.1227
     74  CA        10.6930    4.4600   67.0400 C.3   277  PHE277      0.1736
     75  C         11.0380    3.1210   66.3750 C.2   277  PHE277      0.2596
     76  O         12.1220    2.9480   65.8170 O.2   277  PHE277     -0.2718
     77  CB         9.7030    5.2730   66.1930 C.3   277  PHE277      0.0547
     78  CG        10.2670    5.7270   64.8740 C.ar  277  PHE277     -0.0202
     79  CD1       10.2670    4.8720   63.7720 C.ar  277  PHE277     -0.0042
     80  CD2       10.7840    7.0060   64.7350 C.ar  277  PHE277     -0.0042
     81  CE1       10.7900    5.2820   62.5520 C.ar  277  PHE277     -0.0003
     82  CE2       11.3080    7.4350   63.5180 C.ar  277  PHE277     -0.0003
     83  CZ        11.3080    6.5650   62.4150 C.ar  277  PHE277     -0.0000
     84  N         10.1220    2.1660   66.4380 N.am  278  SER278     -0.1938
     85  CA        10.4200    0.8450   65.8840 C.3   278  SER278      0.2055
     86  C          9.1610    0.1850   65.3690 C.2   278  SER278      0.2644
     87  O          8.0780    0.3960   65.9120 O.2   278  SER278     -0.2714
     88  CB        11.0970   -0.0570   66.9340 C.3   278  SER278      0.2130
     89  OG        10.2360   -0.2910   68.0350 O.3   278  SER278     -0.2179
     90  N          9.3070   -0.5950   64.3020 N.am  279  GLY279     -0.1939
     91  CA         8.2280   -1.4310   63.8050 C.3   279  GLY279      0.2014
     92  C          8.7410   -2.8570   63.6810 C.2   279  GLY279      0.2639
     93  O          9.1940   -3.4550   64.6660 O.2   279  GLY279     -0.2714
     94  N          8.6570   -3.4050   62.4740 N.am  280  TRP280     -0.1959
     95  CA         9.3260   -4.6540   62.1400 C.3   280  TRP280      0.1771
     96  C          9.8690   -4.5640   60.7100 C.2   280  TRP280      0.2620
     97  O          9.5740   -3.6180   59.9860 O.2   280  TRP280     -0.2715
     98  CB         8.3920   -5.8580   62.2800 C.3   280  TRP280      0.0590
     99  CG         7.0730   -5.7280   61.5940 C.ar  280  TRP280      0.0006
    100  CD1        6.8020   -5.9530   60.2580 C.ar  280  TRP280      0.0946
    101  CD2        5.8280   -5.3750   62.2010 C.ar  280  TRP280      0.0152
    102  NE1        5.4610   -5.7420   60.0130 N.ar  280  TRP280     -0.2442
    103  CE2        4.8430   -5.3910   61.1900 C.ar  280  TRP280      0.0810
    104  CE3        5.4520   -5.0380   63.5080 C.ar  280  TRP280      0.0012
    105  CZ2        3.5040   -5.0900   61.4490 C.ar  280  TRP280      0.0191
    106  CZ3        4.1290   -4.7350   63.7630 C.ar  280  TRP280      0.0001
    107  CH2        3.1690   -4.7630   62.7420 C.ar  280  TRP280      0.0015
    108  N         10.6760   -5.5410   60.3210 N.am  281  TYR281     -0.1960
    109  CA        11.4050   -5.4450   59.0670 C.3   281  TYR281      0.1771
    110  C         10.5650   -5.8960   57.8800 C.2   281  TYR281      0.2619
    111  O          9.7350   -6.8010   58.0020 O.2   281  TYR281     -0.2715
    112  CB        12.6390   -6.3390   59.1490 C.3   281  TYR281      0.0574
    113  CG        13.9070   -5.6370   59.5550 C.ar  281  TYR281     -0.0198
    114  CD1       14.5670   -5.9670   60.7340 C.ar  281  TYR281     -0.0009
    115  CD2       14.4470   -4.6430   58.7610 C.ar  281  TYR281     -0.0009
    116  CE1       15.7410   -5.3330   61.0850 C.ar  281  TYR281      0.0417
    117  CE2       15.6170   -4.0070   59.1050 C.ar  281  TYR281      0.0417
    118  CZ        16.2600   -4.3620   60.2670 C.ar  281  TYR281      0.1957
    119  OH        17.4260   -3.7200   60.6050 O.3   281  TYR281     -0.2866
    120  N         10.7790   -5.2550   56.7330 N.am  282  MET282     -0.1977
    121  CA        10.4300   -5.8690   55.4530 C.3   282  MET282      0.1605
    122  C         11.7060   -6.5750   55.0140 C.2   282  MET282      0.2287
    123  O         12.8000   -6.0000   55.1290 O.2   282  MET282     -0.2864
    124  CB         9.9840   -4.8070   54.4440 C.3   282  MET282      0.0413
    125  CG         9.6580   -5.3770   53.0440 C.3   282  MET282      0.0598
    126  SD         8.7570   -4.1910   52.0090 S.3   282  MET282     -0.1393
    127  CE        10.1050   -3.1770   51.3980 C.3   282  MET282      0.0692
    128  N         14.8990   -5.1330   53.2710 N.3   285  GLU285     -0.1245
    129  CA        15.7760   -4.1860   53.9590 C.3   285  GLU285      0.1567
    130  C         17.0860   -4.8660   54.3530 C.2   285  GLU285      0.2260
    131  O         18.1630   -4.2890   54.2280 O.2   285  GLU285     -0.2867
    132  CB        15.1040   -3.6340   55.2270 C.3   285  GLU285      0.0388
    133  CG        13.9130   -2.7270   54.9650 C.3   285  GLU285      0.1160
    134  CD        13.3080   -2.2100   56.2620 C.2   285  GLU285      0.3649
    135  OE1       13.9020   -1.2690   56.8470 O.co2 285  GLU285     -0.2457
    136  OE2       12.2550   -2.7460   56.6960 O.co2 285  GLU285     -0.2457
    137  N         10.8820    5.5830   47.0880 N.3   371  TRP371     -0.1241
    138  CA        11.1480    4.8370   48.3060 C.3   371  TRP371      0.1605
    139  C         10.1730    3.6910   48.5550 C.2   371  TRP371      0.2264
    140  O         10.5480    2.6790   49.1640 O.2   371  TRP371     -0.2867
    141  CB        11.1280    5.7960   49.5180 C.3   371  TRP371      0.0550
    142  CG        12.4470    6.4560   49.7570 C.ar  371  TRP371      0.0003
    143  CD1       13.1020    7.3150   48.9210 C.ar  371  TRP371      0.0946
    144  CD2       13.2760    6.3170   50.9200 C.ar  371  TRP371      0.0152
    145  NE1       14.2890    7.7150   49.4930 N.ar  371  TRP371     -0.2442
    146  CE2       14.4150    7.1160   50.7220 C.ar  371  TRP371      0.0810
    147  CE3       13.1540    5.6030   52.1160 C.ar  371  TRP371      0.0012
    148  CZ2       15.4360    7.2110   51.6750 C.ar  371  TRP371      0.0191
    149  CZ3       14.1640    5.7040   53.0600 C.ar  371  TRP371      0.0001
    150  CH2       15.2840    6.5010   52.8350 C.ar  371  TRP371      0.0015
    151  N         14.5820   14.6790   58.8190 N.3   399  TYR399     -0.1241
    152  CA        15.9980   14.4220   59.0430 C.3   399  TYR399      0.1605
    153  C         16.5660   15.5650   59.8660 C.2   399  TYR399      0.2264
    154  O         16.0190   16.6730   59.8700 O.2   399  TYR399     -0.2867
    155  CB        16.7490   14.3090   57.7170 C.3   399  TYR399      0.0534
    156  CG        16.3240   13.1150   56.9030 C.ar  399  TYR399     -0.0201
    157  CD1       15.9190   13.2660   55.5860 C.ar  399  TYR399     -0.0009
    158  CD2       16.3300   11.8330   57.4500 C.ar  399  TYR399     -0.0009
    159  CE1       15.5300   12.1870   54.8360 C.ar  399  TYR399      0.0417
    160  CE2       15.9380   10.7430   56.7050 C.ar  399  TYR399      0.0417
    161  CZ        15.5430   10.9280   55.3970 C.ar  399  TYR399      0.1957
    162  OH        15.1540    9.8590   54.6300 O.3   399  TYR399     -0.2866
@<TRIPOS>BOND
     1   137   138    1
     2     1     2    1
     3   138   139    1
     4   138   141    1
     5   139   140    2
     6   143   145   ar
     7   143   142   ar
     8     2     5    1
     9     2     3    1
    10   145   146   ar
    11   141   142    1
    12     8     7    1
    13     5     6    1
    14   142   144   ar
    15     3     9   am
    16     3     4    2
    17     9    10    1
    18     7     6    1
    19    12    11    2
    20    11    10    1
    21   146   144   ar
    22   146   148   ar
    23   144   147   ar
    24    10    13    1
    25   127   126    1
    26   148   150   ar
    27   126   125    1
    28   147   149   ar
    29    13    14    1
    30    14    15    1
    31    14    16    1
    32   150   149   ar
    33   125   124    1
    34   128   129    1
    35    17    18    1
    36    20    19    2
    37   129   130    1
    38   129   132    1
    39    19    18    1
    40   131   130    2
    41   124   121    1
    42    18    21    1
    43   162   161    1
    44   159   161   ar
    45   159   157   ar
    46   133   132    1
    47   133   134    1
    48   122   123    2
    49   122   121    1
    50   161   160   ar
    51   121   120    1
    52   157   156   ar
    53    21    22    1
    54   134   136   ar
    55   134   135   ar
    56   160   158   ar
    57   120   110   am
    58   156   158   ar
    59   156   155    1
    60   155   152    1
    61   110   111    2
    62   110   109    1
    63    42    40    1
    64   115   117   ar
    65   115   113   ar
    66   151   152    1
    67   152   153    1
    68   109   112    1
    69   109   108    1
    70   117   118   ar
    71   112   113    1
    72    72    71    1
    73   113   114   ar
    74    40    41    1
    75    40    39    2
    76   153   154    2
    77    97    96    2
    78   102   100   ar
    79   102   103   ar
    80    71    70    1
    81   100    99   ar
    82   118   119    1
    83   118   116   ar
    84   108    96   am
    85    31    29   am
    86    96    95    1
    87   114   116   ar
    88    39    38    1
    89   103   105   ar
    90   103   101   ar
    91    70    69    1
    92   105   107   ar
    93    64    62   am
    94    99   101   ar
    95    99    98    1
    96    56    54    1
    97    29    30    2
    98    29    28    1
    99    47    48    1
   100    47    44    1
   101    95    98    1
   102    95    94    1
   103    63    62    2
   104   101   104   ar
   105    38    37    1
   106    48    49    1
   107    55    54    1
   108    62    61    1
   109    83    81   ar
   110    83    82   ar
   111    94    92   am
   112    69    66    1
   113    81    79   ar
   114    28    27    1
   115   107   106   ar
   116    54    51    1
   117    37    36    1
   118    66    65    1
   119    66    67    1
   120    44    43    1
   121    44    45    1
   122    60    59    2
   123    49    43    1
   124   104   106   ar
   125    82    80   ar
   126    92    91    1
   127    92    93    2
   128    61    58    1
   129    79    78   ar
   130    91    90    1
   131    65    59   am
   132    59    58    1
   133    51    50    1
   134    51    52    1
   135    27    24    1
   136    45    46    2
   137    67    68    2
   138    90    86   am
   139    36    33    1
   140    58    57    1
   141    23    24    1
   142    80    78   ar
   143    33    34    1
   144    33    32    1
   145    78    77    1
   146    34    35    2
   147    24    25    1
   148    52    53    2
   149    86    85    1
   150    86    87    2
   151    76    75    2
   152    85    84    1
   153    85    88    1
   154    77    74    1
   155    75    84   am
   156    75    74    1
   157    25    26    2
   158    88    89    1
   159    74    73    1
