@<TRIPOS>MOLECULE
tmp/5vuuA02.pdb
 143 141 0 0 0
SMALL
GASTEIGER

@<TRIPOS>ATOM
      1  N          2.7100    8.6500   34.8240 N.3    38  MET38      -0.1230
      2  CA         3.1360    8.1380   33.5220 C.3    38  MET38       0.1702
      3  C          3.0670    9.2090   32.4190 C.2    38  MET38       0.2592
      4  O          3.9530    9.2840   31.5620 O.2    38  MET38      -0.2718
      5  CB         2.2940    6.9240   33.1180 C.3    38  MET38       0.0401
      6  CG         2.9550    6.0470   32.0480 C.3    38  MET38       0.0596
      7  SD         2.9230    4.3000   32.5080 S.3    38  MET38      -0.1393
      8  CE         4.0970    3.6150   31.3460 C.3    38  MET38       0.0692
      9  N          2.0220   10.0330   32.4440 N.am   39  LEU39      -0.1980
     10  CA         1.8180   11.0440   31.4040 C.3    39  LEU39       0.1596
     11  C          1.4040   12.4120   31.9340 C.2    39  LEU39       0.2287
     12  O          0.2110   12.7000   32.0120 O.2    39  LEU39      -0.2864
     13  CB         0.7450   10.5840   30.4160 C.3    39  LEU39       0.0297
     14  CG         0.8160    9.1760   29.8270 C.3    39  LEU39       0.0022
     15  CD1       -0.5580    8.7260   29.3470 C.3    39  LEU39       0.0001
     16  CD2        1.8190    9.1280   28.6960 C.3    39  LEU39       0.0001
     17  N         15.3860    7.5340   28.8490 N.3   110  CYS110     -0.1235
     18  CA        16.0890    6.5280   28.0440 C.3   110  CYS110      0.1677
     19  C         17.4350    6.1450   28.6390 C.2   110  CYS110      0.2270
     20  O         18.3090    6.9870   28.8410 O.2   110  CYS110     -0.2867
     21  CB        16.2920    7.0170   26.5900 C.3   110  CYS110      0.0956
     22  SG        17.1870    5.7870   25.5810 S.3   110  CYS110     -0.0801
     23  N          4.3660    0.4450   18.0260 N.3   173  GLN173     -0.1245
     24  CA         5.6760    0.0600   17.5370 C.3   173  GLN173      0.1566
     25  C          5.5290   -0.4970   16.1270 C.2   173  GLN173      0.2260
     26  O          4.4640   -0.9980   15.7750 O.2   173  GLN173     -0.2867
     27  CB         6.3290   -0.9820   18.4270 C.3   173  GLN173      0.0367
     28  CG         6.5360   -0.5610   19.8730 C.3   173  GLN173      0.0905
     29  CD         7.1520   -1.6750   20.6840 C.2   173  GLN173      0.2608
     30  OE1        8.0200   -2.4040   20.1870 O.2   173  GLN173     -0.2717
     31  NE2        6.7020   -1.8300   21.9320 N.am  173  GLN173     -0.0878
     32  N         13.0730   -3.2670   18.5180 N.3   260  PRO260     -0.2116
     33  CA        12.1310   -2.3720   19.1890 C.3   260  PRO260      0.1372
     34  C         12.0860   -1.0370   18.4510 C.2   260  PRO260      0.2244
     35  O         13.0850   -0.3320   18.3710 O.2   260  PRO260     -0.2868
     36  CB        12.7110   -2.2330   20.6140 C.3   260  PRO260      0.0268
     37  CG        14.1850   -2.4370   20.4530 C.3   260  PRO260      0.0207
     38  CD        14.3650   -3.3640   19.2290 C.3   260  PRO260      0.0892
     39  N          9.7460    2.3460   18.1620 N.3   262  VAL262     -0.1245
     40  CA         8.5870    3.0810   18.6490 C.3   262  VAL262      0.1561
     41  C          8.0930    4.0160   17.5820 C.2   262  VAL262      0.2260
     42  O          8.8850    4.7540   17.0080 O.2   262  VAL262     -0.2867
     43  CB         8.9200    3.8670   19.9370 C.3   262  VAL262      0.0252
     44  CG1        8.0650    5.1190   20.0410 C.3   262  VAL262      0.0019
     45  CG2        8.6500    2.9610   21.1080 C.3   262  VAL262      0.0019
     46  N          5.3070    8.3750   18.6860 N.3   265  MET265     -0.1245
     47  CA         5.7100    9.6140   19.3390 C.3   265  MET265      0.1570
     48  C          5.8600   10.7800   18.3670 C.2   265  MET265      0.2261
     49  O          5.9060   10.5990   17.1470 O.2   265  MET265     -0.2867
     50  CB         7.0050    9.4010   20.1110 C.3   265  MET265      0.0387
     51  CG         6.8100    8.4040   21.2390 C.3   265  MET265      0.0595
     52  SD         8.1030    8.4280   22.4840 S.3   265  MET265     -0.1393
     53  CE         7.6260    9.9000   23.3900 C.3   265  MET265      0.0692
     54  N         11.3640    5.4130   15.4130 N.3   279  PHE279     -0.1227
     55  CA        12.7860    5.2310   15.6890 C.3   279  PHE279      0.1736
     56  C         13.0400    3.9030   16.3950 C.2   279  PHE279      0.2596
     57  O         12.1580    3.3440   17.0510 O.2   279  PHE279     -0.2718
     58  CB        13.3350    6.4020   16.5050 C.3   279  PHE279      0.0547
     59  CG        12.5280    6.7220   17.7440 C.ar  279  PHE279     -0.0202
     60  CD1       12.7680    6.0470   18.9380 C.ar  279  PHE279     -0.0042
     61  CD2       11.5450    7.7030   17.7180 C.ar  279  PHE279     -0.0042
     62  CE1       12.0500    6.3540   20.0990 C.ar  279  PHE279     -0.0003
     63  CE2       10.8120    8.0100   18.8740 C.ar  279  PHE279     -0.0003
     64  CZ        11.0740    7.3260   20.0680 C.ar  279  PHE279     -0.0000
     65  N         14.2480    3.3780   16.2380 N.am  280  SER280     -0.1938
     66  CA        14.5380    2.0480   16.7350 C.3   280  SER280      0.2055
     67  C         15.9510    1.9850   17.2790 C.2   280  SER280      0.2644
     68  O         16.8010    2.7780   16.9030 O.2   280  SER280     -0.2714
     69  CB        14.3290    0.9880   15.6260 C.3   280  SER280      0.2130
     70  OG        15.2300    1.1540   14.5150 O.3   280  SER280     -0.2179
     71  N         16.1820    1.0680   18.2120 N.am  281  GLY281     -0.1939
     72  CA        17.5280    0.7720   18.6570 C.3   281  GLY281      0.2014
     73  C         17.6050   -0.7290   18.8160 C.2   281  GLY281      0.2639
     74  O         17.3520   -1.4690   17.8630 O.2   281  GLY281     -0.2714
     75  N         17.9310   -1.1820   20.0270 N.am  282  TRP282     -0.1959
     76  CA        17.9390   -2.6080   20.3460 C.3   282  TRP282      0.1771
     77  C         17.4920   -2.8090   21.8000 C.2   282  TRP282      0.2620
     78  O         17.5810   -1.8860   22.6040 O.2   282  TRP282     -0.2715
     79  CB        19.3240   -3.2210   20.1280 C.3   282  TRP282      0.0590
     80  CG        20.4220   -2.5300   20.8660 C.ar  282  TRP282      0.0006
     81  CD1       20.7180   -2.6400   22.2050 C.ar  282  TRP282      0.0946
     82  CD2       21.3830   -1.6300   20.3150 C.ar  282  TRP282      0.0152
     83  NE1       21.8020   -1.8540   22.5110 N.ar  282  TRP282     -0.2442
     84  CE2       22.2280   -1.2240   21.3690 C.ar  282  TRP282      0.0810
     85  CE3       21.6090   -1.1180   19.0280 C.ar  282  TRP282      0.0012
     86  CZ2       23.2860   -0.3320   21.1740 C.ar  282  TRP282      0.0191
     87  CZ3       22.6610   -0.2370   18.8390 C.ar  282  TRP282      0.0001
     88  CH2       23.4890    0.1420   19.9040 C.ar  282  TRP282      0.0015
     89  N         17.0310   -4.0130   22.1340 N.am  283  TYR283     -0.1960
     90  CA        16.4220   -4.2590   23.4530 C.3   283  TYR283      0.1771
     91  C         17.3990   -4.3210   24.6260 C.2   283  TYR283      0.2619
     92  O         18.5090   -4.8480   24.5180 O.2   283  TYR283     -0.2715
     93  CB        15.6400   -5.5740   23.4500 C.3   283  TYR283      0.0574
     94  CG        14.1940   -5.4690   23.0350 C.ar  283  TYR283     -0.0198
     95  CD1       13.7530   -6.0380   21.8360 C.ar  283  TYR283     -0.0009
     96  CD2       13.2630   -4.8130   23.8310 C.ar  283  TYR283     -0.0009
     97  CE1       12.4280   -5.9610   21.4550 C.ar  283  TYR283      0.0417
     98  CE2       11.9280   -4.7290   23.4500 C.ar  283  TYR283      0.0417
     99  CZ        11.5220   -5.3030   22.2560 C.ar  283  TYR283      0.1957
    100  OH        10.2050   -5.2370   21.8740 O.3   283  TYR283     -0.2866
    101  N         16.9500   -3.8160   25.7660 N.am  284  MET284     -0.1977
    102  CA        17.5090   -4.2620   27.0410 C.3   284  MET284      0.1605
    103  C         16.7070   -5.4840   27.4490 C.2   284  MET284      0.2287
    104  O         15.4880   -5.4870   27.3070 O.2   284  MET284     -0.2864
    105  CB        17.4340   -3.1600   28.0990 C.3   284  MET284      0.0413
    106  CG        17.9720   -3.5840   29.4520 C.3   284  MET284      0.0598
    107  SD        18.2860   -2.1560   30.5050 S.3   284  MET284     -0.1393
    108  CE        16.6230   -1.5950   30.8610 C.3   284  MET284      0.0692
    109  N         13.0450   -5.5250   29.3030 N.3   287  GLU287     -0.1245
    110  CA        11.8570   -5.0800   28.5810 C.3   287  GLU287      0.1567
    111  C         11.0030   -6.2630   28.1290 C.2   287  GLU287      0.2260
    112  O          9.7900   -6.2840   28.3530 O.2   287  GLU287     -0.2867
    113  CB        12.2550   -4.2380   27.3720 C.3   287  GLU287      0.0388
    114  CG        13.0440   -2.9850   27.7190 C.3   287  GLU287      0.1160
    115  CD        13.3750   -2.1470   26.4800 C.2   287  GLU287      0.3649
    116  OE1       12.4850   -1.3960   26.0400 O.co2 287  GLU287     -0.2457
    117  OE2       14.5070   -2.2480   25.9540 O.co2 287  GLU287     -0.2457
    118  N         12.2220    5.7130   35.5060 N.3   373  TRP373     -0.1241
    119  CA        12.2720    4.9700   34.2390 C.3   373  TRP373      0.1605
    120  C         13.6380    4.3600   33.9280 C.2   373  TRP373      0.2264
    121  O         13.7170    3.3390   33.2410 O.2   373  TRP373     -0.2867
    122  CB        11.8370    5.8820   33.0900 C.3   373  TRP373      0.0550
    123  CG        10.3570    6.0110   33.0070 C.ar  373  TRP373      0.0003
    124  CD1        9.5210    6.5810   33.9300 C.ar  373  TRP373      0.0946
    125  CD2        9.5230    5.5410   31.9460 C.ar  373  TRP373      0.0152
    126  NE1        8.2170    6.4950   33.5020 N.ar  373  TRP373     -0.2442
    127  CE2        8.1920    5.8650   32.2840 C.ar  373  TRP373      0.0810
    128  CE3        9.7720    4.8940   30.7320 C.ar  373  TRP373      0.0012
    129  CZ2        7.1180    5.5630   31.4490 C.ar  373  TRP373      0.0191
    130  CZ3        8.7030    4.5920   29.9080 C.ar  373  TRP373      0.0001
    131  CH2        7.3940    4.9230   30.2710 C.ar  373  TRP373      0.0015
    132  N          4.7750   12.6420   23.6670 N.3   401  TYR401     -0.1241
    133  CA         3.6320   11.8120   23.3110 C.3   401  TYR401      0.1605
    134  C          2.5890   12.6460   22.5790 C.2   401  TYR401      0.2264
    135  O          2.6460   13.8770   22.5730 O.2   401  TYR401     -0.2867
    136  CB         2.9840   11.1640   24.5320 C.3   401  TYR401      0.0534
    137  CG         3.8980   10.3430   25.4060 C.ar  401  TYR401     -0.0201
    138  CD1        4.4230   10.8800   26.5690 C.ar  401  TYR401     -0.0009
    139  CD2        4.2170    9.0260   25.0840 C.ar  401  TYR401     -0.0009
    140  CE1        5.2410   10.1440   27.3880 C.ar  401  TYR401      0.0417
    141  CE2        5.0440    8.2780   25.9000 C.ar  401  TYR401      0.0417
    142  CZ         5.5490    8.8490   27.0550 C.ar  401  TYR401      0.1957
    143  OH         6.3660    8.1450   27.9000 O.3   401  TYR401     -0.2866
@<TRIPOS>BOND
     1    70    69    1
     2    54    55    1
     3    69    66    1
     4    55    56    1
     5    55    58    1
     6    26    25    2
     7    25    24    1
     8    65    56   am
     9    65    66    1
    10    56    57    2
    11    58    59    1
    12    66    67    1
    13    68    67    2
    14    42    41    2
    15    49    48    2
    16    67    71   am
    17    24    23    1
    18    24    27    1
    19    41    40    1
    20    61    59   ar
    21    61    63   ar
    22    59    60   ar
    23    74    73    2
    24    39    40    1
    25    71    72    1
    26    48    47    1
    27    35    34    2
    28    27    28    1
    29    34    33    1
    30    32    33    1
    31    32    38    1
    32    40    43    1
    33    72    73    1
    34    46    47    1
    35    73    75   am
    36    87    85   ar
    37    87    88   ar
    38    63    64   ar
    39    60    62   ar
    40    85    82   ar
    41    33    36    1
    42    38    37    1
    43    47    50    1
    44    28    29    1
    45    88    86   ar
    46    43    44    1
    47    43    45    1
    48    75    76    1
    49    64    62   ar
    50    50    51    1
    51    79    76    1
    52    79    80    1
    53    30    29    2
    54    82    80   ar
    55    82    84   ar
    56    76    77    1
    57    37    36    1
    58    29    31   am
    59    80    81   ar
    60    86    84   ar
    61    51    52    1
    62    84    83   ar
    63    97    95   ar
    64    97    99   ar
    65    77    89   am
    66    77    78    2
    67    95    94   ar
    68   100    99    1
    69    89    90    1
    70    81    83   ar
    71    99    98   ar
    72    52    53    1
    73   135   134    2
    74   134   133    1
    75    94    93    1
    76    94    96   ar
    77   133   132    1
    78   133   136    1
    79    98    96   ar
    80    93    90    1
    81    90    91    1
    82    92    91    2
    83   136   137    1
    84    91   101   am
    85   139   137   ar
    86   139   141   ar
    87   137   138   ar
    88    22    21    1
    89   101   102    1
    90   141   142   ar
    91   117   115   ar
    92   116   115   ar
    93   115   114    1
    94   138   140   ar
    95    21    18    1
    96   102   103    1
    97   102   105    1
    98   142   140   ar
    99   142   143    1
   100   104   103    2
   101   113   114    1
   102   113   110    1
   103    18    19    1
   104    18    17    1
   105   105   106    1
   106   111   112    2
   107   111   110    1
   108   110   109    1
   109    19    20    2
   110    16    14    1
   111    15    14    1
   112   106   107    1
   113    14    13    1
   114   130   131   ar
   115   130   128   ar
   116   131   129   ar
   117    13    10    1
   118   107   108    1
   119   128   125   ar
   120     8     7    1
   121    10    11    1
   122    10     9    1
   123   129   127   ar
   124     4     3    2
   125    11    12    2
   126   125   127   ar
   127   125   123   ar
   128     6     7    1
   129     6     5    1
   130   127   126   ar
   131     3     9   am
   132     3     2    1
   133   123   122    1
   134   123   124   ar
   135   122   119    1
   136     5     2    1
   137   121   120    2
   138   126   124   ar
   139     2     1    1
   140   120   119    1
   141   119   118    1
