@<TRIPOS>MOLECULE
tmp/5vuvA02.pdb
 146 143 0 0 0
SMALL
GASTEIGER

@<TRIPOS>ATOM
      1  N        112.7620  252.0660  355.0560 N.3   111  CYS111     -0.1235
      2  CA       112.5390  250.8680  355.8650 C.3   111  CYS111      0.1677
      3  C        111.4580  249.9390  355.3170 C.2   111  CYS111      0.2270
      4  O        110.2780  250.3080  355.2430 O.2   111  CYS111     -0.2867
      5  CB       112.2400  251.2110  357.3350 C.3   111  CYS111      0.0956
      6  SG       111.9370  249.7390  358.3220 S.3   111  CYS111     -0.0801
      7  N        127.9720  252.5760  366.0620 N.3   173  SER173     -0.1202
      8  CA       126.9890  252.7010  364.9790 C.3   173  SER173      0.2020
      9  C        125.8200  251.7540  365.1990 C.2   173  SER173      0.2618
     10  O        124.6750  252.1030  364.8990 O.2   173  SER173     -0.2717
     11  CB       127.6180  252.4960  363.5960 C.3   173  SER173      0.2103
     12  OG       128.3800  251.3120  363.5610 O.3   173  SER173     -0.2182
     13  N        126.1030  250.5590  365.7250 N.am  174  GLN174     -0.1979
     14  CA       125.0530  249.7060  366.3230 C.3   174  GLN174      0.1601
     15  C        125.4820  249.2700  367.7200 C.2   174  GLN174      0.2287
     16  O        126.6840  249.2060  368.0000 O.2   174  GLN174     -0.2864
     17  CB       124.7960  248.4530  365.4830 C.3   174  GLN174      0.0394
     18  CG       124.3920  248.7080  364.0140 C.3   174  GLN174      0.0908
     19  CD       124.1530  247.4120  363.2440 C.2   174  GLN174      0.2608
     20  OE1      123.7840  246.3860  363.8220 O.2   174  GLN174     -0.2717
     21  NE2      124.3650  247.4570  361.9320 N.am  174  GLN174     -0.0878
     22  N        128.1530  245.2250  367.4110 N.3   177  ARG177     -0.1245
     23  CA       128.9070  245.0630  366.1500 C.3   177  ARG177      0.1563
     24  C        130.2530  244.3810  366.3970 C.2   177  ARG177      0.2260
     25  O        130.7500  244.3550  367.5300 O.2   177  ARG177     -0.2867
     26  CB       129.1890  246.4050  365.4790 C.3   177  ARG177      0.0307
     27  CG       128.0090  247.0750  364.8500 C.3   177  ARG177      0.0489
     28  CD       128.4440  247.9750  363.7110 C.3   177  ARG177      0.2205
     29  NE       128.2940  247.3120  362.4190 N.pl3 177  ARG177     -0.0865
     30  CZ       128.4850  247.9100  361.2490 C.cat 177  ARG177      0.5346
     31  NH1      128.8340  249.1920  361.2050 N.pl3 177  ARG177      0.1354
     32  NH2      128.3190  247.2260  360.1250 N.pl3 177  ARG177      0.1354
     33  N        119.8650  243.4400  365.4410 N.3   261  PRO261     -0.2116
     34  CA       120.3130  244.6250  364.7050 C.3   261  PRO261      0.1372
     35  C        119.8010  245.8520  365.4440 C.2   261  PRO261      0.2244
     36  O        118.5930  246.0770  365.4860 O.2   261  PRO261     -0.2868
     37  CB       119.6260  244.4750  363.3360 C.3   261  PRO261      0.0268
     38  CG       118.3650  243.7020  363.6190 C.3   261  PRO261      0.0207
     39  CD       118.5910  242.9110  364.9190 C.3   261  PRO261      0.0892
     40  N        120.4750  249.7930  365.5810 N.3   263  VAL263     -0.1245
     41  CA       121.0980  251.0270  365.1050 C.3   263  VAL263      0.1561
     42  C        121.1210  252.1390  366.1580 C.2   263  VAL263      0.2260
     43  O        120.0780  252.4880  366.7230 O.2   263  VAL263     -0.2867
     44  CB       120.4250  251.5260  363.8190 C.3   263  VAL263      0.0252
     45  CG1      121.1020  252.8070  363.3210 C.3   263  VAL263      0.0019
     46  CG2      120.5270  250.4560  362.7430 C.3   263  VAL263      0.0019
     47  N        123.3540  255.2880  365.9530 N.3   265  ASN265     -0.1225
     48  CA       123.9690  256.5700  365.6060 C.3   265  ASN265      0.1785
     49  C        123.0600  257.5790  364.9110 C.2   265  ASN265      0.2597
     50  O        123.5290  258.6170  364.4380 O.2   265  ASN265     -0.2718
     51  CB       125.2180  256.3610  364.7410 C.3   265  ASN265      0.1169
     52  CG       124.9180  255.6010  363.4570 C.2   265  ASN265      0.2627
     53  OD1      123.7640  255.2640  363.1620 O.2   265  ASN265     -0.2716
     54  ND2      125.9620  255.3270  362.6840 N.am  265  ASN265     -0.0877
     55  N        121.7740  257.2740  364.8100 N.am  266  MET266     -0.1979
     56  CA       120.8510  258.1930  364.1390 C.3   266  MET266      0.1605
     57  C        120.2670  259.2020  365.1230 C.2   266  MET266      0.2287
     58  O        120.3280  258.9970  366.3470 O.2   266  MET266     -0.2864
     59  CB       119.7430  257.4210  363.4020 C.3   266  MET266      0.0413
     60  CG       120.2830  256.5320  362.2570 C.3   266  MET266      0.0598
     61  SD       118.9730  255.9310  361.1600 S.3   266  MET266     -0.1393
     62  CE       118.7440  257.3980  360.1490 C.3   266  MET266      0.0692
     63  N        117.6220  252.1340  368.4880 N.3   280  PHE280     -0.1241
     64  CA       116.4400  251.3260  368.2480 C.3   280  PHE280      0.1605
     65  C        116.8300  249.9840  367.6340 C.2   280  PHE280      0.2264
     66  O        117.9470  249.8140  367.1360 O.2   280  PHE280     -0.2867
     67  CB       115.4530  252.0630  367.3390 C.3   280  PHE280      0.0534
     68  CG       116.0300  252.4600  366.0040 C.ar  280  PHE280     -0.0203
     69  CD1      116.0640  251.5570  364.9430 C.ar  280  PHE280     -0.0042
     70  CD2      116.5280  253.7430  365.8090 C.ar  280  PHE280     -0.0042
     71  CE1      116.5920  251.9330  363.6970 C.ar  280  PHE280     -0.0003
     72  CE2      117.0520  254.1300  364.5700 C.ar  280  PHE280     -0.0003
     73  CZ       117.0850  253.2210  363.5170 C.ar  280  PHE280     -0.0000
     74  N        115.1450  246.1170  365.6690 N.3   282  GLY282     -0.1210
     75  CA       114.0610  245.2590  365.2230 C.3   282  GLY282      0.1956
     76  C        114.5990  243.8470  365.1340 C.2   282  GLY282      0.2612
     77  O        115.0790  243.2960  366.1280 O.2   282  GLY282     -0.2717
     78  N        114.5250  243.2680  363.9400 N.am  283  TRP283     -0.1962
     79  CA       115.1480  241.9810  363.6520 C.3   283  TRP283      0.1771
     80  C        115.5990  241.9750  362.1880 C.2   283  TRP283      0.2620
     81  O        115.2070  242.8430  361.4130 O.2   283  TRP283     -0.2715
     82  CB       114.2030  240.8210  363.9420 C.3   283  TRP283      0.0590
     83  CG       112.8860  240.9080  363.2530 C.ar  283  TRP283      0.0006
     84  CD1      112.6100  240.5920  361.9370 C.ar  283  TRP283      0.0946
     85  CD2      111.6460  241.3140  363.8380 C.ar  283  TRP283      0.0152
     86  NE1      111.2680  240.7850  361.6810 N.ar  283  TRP283     -0.2442
     87  CE2      110.6560  241.2310  362.8300 C.ar  283  TRP283      0.0810
     88  CE3      111.2740  241.7530  365.1160 C.ar  283  TRP283      0.0012
     89  CZ2      109.3140  241.5650  363.0700 C.ar  283  TRP283      0.0191
     90  CZ3      109.9480  242.0880  365.3470 C.ar  283  TRP283      0.0001
     91  CH2      108.9840  241.9910  364.3300 C.ar  283  TRP283      0.0015
     92  N        116.4180  241.0010  361.8100 N.am  284  TYR284     -0.1960
     93  CA       117.0690  241.0390  360.4980 C.3   284  TYR284      0.1771
     94  C        116.2090  240.5530  359.3170 C.2   284  TYR284      0.2619
     95  O        115.3290  239.7100  359.4640 O.2   284  TYR284     -0.2715
     96  CB       118.3430  240.2100  360.5420 C.3   284  TYR284      0.0574
     97  CG       119.5920  240.9610  360.9270 C.ar  284  TYR284     -0.0198
     98  CD1      120.2940  240.6400  362.0880 C.ar  284  TYR284     -0.0009
     99  CD2      120.0900  241.9700  360.1180 C.ar  284  TYR284     -0.0009
    100  CE1      121.4560  241.3160  362.4270 C.ar  284  TYR284      0.0417
    101  CE2      121.2480  242.6470  360.4460 C.ar  284  TYR284      0.0417
    102  CZ       121.9270  242.3090  361.6100 C.ar  284  TYR284      0.1957
    103  OH       123.0860  242.9730  361.9490 O.3   284  TYR284     -0.2866
    104  N        116.4570  241.1300  358.1470 N.am  285  MET285     -0.1977
    105  CA       116.0990  240.4900  356.8920 C.3   285  MET285      0.1605
    106  C        117.3730  239.7570  356.4720 C.2   285  MET285      0.2287
    107  O        118.4610  240.3360  356.5270 O.2   285  MET285     -0.2864
    108  CB       115.7060  241.5420  355.8450 C.3   285  MET285      0.0413
    109  CG       115.2530  240.9450  354.4970 C.3   285  MET285      0.0598
    110  SD       114.3740  242.1730  353.5090 S.3   285  MET285     -0.1393
    111  CE       115.7570  243.1320  352.9260 C.3   285  MET285      0.0692
    112  N        120.5810  241.2140  354.6830 N.3   288  GLU288     -0.1245
    113  CA       121.4230  242.2170  355.3200 C.3   288  GLU288      0.1567
    114  C        122.7240  241.5570  355.7600 C.2   288  GLU288      0.2260
    115  O        123.8080  242.1420  355.6590 O.2   288  GLU288     -0.2867
    116  CB       120.7250  242.8460  356.5230 C.3   288  GLU288      0.0388
    117  CG       119.4790  243.6470  356.2170 C.3   288  GLU288      0.1160
    118  CD       118.9290  244.3050  357.4870 C.2   288  GLU288      0.3649
    119  OE1      119.5170  245.3260  357.8990 O.co2 288  GLU288     -0.2457
    120  OE2      117.9310  243.7980  358.0680 O.co2 288  GLU288     -0.2457
    121  N        116.4630  251.6800  348.3410 N.3   374  TRP374     -0.1241
    122  CA       116.7290  250.9780  349.5970 C.3   374  TRP374      0.1605
    123  C        115.7590  249.8270  349.8630 C.2   374  TRP374      0.2264
    124  O        116.1560  248.8200  350.4460 O.2   374  TRP374     -0.2867
    125  CB       116.6920  251.9670  350.7730 C.3   374  TRP374      0.0550
    126  CG       117.9900  252.6720  350.9600 C.ar  374  TRP374      0.0003
    127  CD1      118.5800  253.5630  350.1000 C.ar  374  TRP374      0.0946
    128  CD2      118.8820  252.5330  352.0730 C.ar  374  TRP374      0.0152
    129  NE1      119.7810  253.9840  350.6160 N.ar  374  TRP374     -0.2442
    130  CE2      119.9890  253.3680  351.8260 C.ar  374  TRP374      0.0810
    131  CE3      118.8420  251.7930  353.2620 C.ar  374  TRP374      0.0012
    132  CZ2      121.0550  253.4790  352.7230 C.ar  374  TRP374      0.0191
    133  CZ3      119.8970  251.9030  354.1510 C.ar  374  TRP374      0.0001
    134  CH2      120.9910  252.7390  353.8760 C.ar  374  TRP374      0.0015
    135  N        120.2940  261.3120  359.7370 N.3   402  TYR402     -0.1241
    136  CA       121.7270  261.1050  359.9170 C.3   402  TYR402      0.1605
    137  C        122.2780  262.2620  360.7250 C.2   402  TYR402      0.2264
    138  O        121.7170  263.3610  360.7150 O.2   402  TYR402     -0.2867
    139  CB       122.4530  261.0470  358.5690 C.3   402  TYR402      0.0534
    140  CG       122.1920  259.7710  357.8010 C.ar  402  TYR402     -0.0201
    141  CD1      122.0620  259.7880  356.4160 C.ar  402  TYR402     -0.0009
    142  CD2      122.0900  258.5450  358.4570 C.ar  402  TYR402     -0.0009
    143  CE1      121.8360  258.6320  355.7050 C.ar  402  TYR402      0.0417
    144  CE2      121.8630  257.3760  357.7470 C.ar  402  TYR402      0.0417
    145  CZ       121.7420  257.4330  356.3680 C.ar  402  TYR402      0.1957
    146  OH       121.5180  256.2900  355.6390 O.3   402  TYR402     -0.2866
@<TRIPOS>BOND
     1   121   122    1
     2   122   123    1
     3   122   125    1
     4   123   124    2
     5   127   129   ar
     6   127   126   ar
     7   129   130   ar
     8   125   126    1
     9   126   128   ar
    10   130   128   ar
    11   130   132   ar
    12   128   131   ar
    13   132   134   ar
    14   111   110    1
    15   131   133   ar
    16   110   109    1
    17   134   133   ar
    18   109   108    1
    19   112   113    1
    20     1     2    1
    21     4     3    2
    22     3     2    1
    23   113   114    1
    24   113   116    1
    25   146   145    1
    26   115   114    2
    27   143   145   ar
    28   143   141   ar
    29   108   105    1
    30     2     5    1
    31   117   116    1
    32   117   118    1
    33   145   144   ar
    34   141   140   ar
    35   106   107    2
    36   106   105    1
    37   105   104    1
    38     5     6    1
    39   118   119   ar
    40   118   120   ar
    41   144   142   ar
    42   140   142   ar
    43   140   139    1
    44   104    94   am
    45   139   136    1
    46    94    95    2
    47    94    93    1
    48   135   136    1
    49   136   137    1
    50    99   101   ar
    51    99    97   ar
    52    32    30    1
    53    62    61    1
    54   101   102   ar
    55    93    96    1
    56    93    92    1
    57    96    97    1
    58   138   137    2
    59    97    98   ar
    60    61    60    1
    61    31    30    1
    62    30    29    2
    63    81    80    2
    64   102   103    1
    65   102   100   ar
    66    86    84   ar
    67    86    87   ar
    68    92    80   am
    69    21    19   am
    70    84    83   ar
    71    98   100   ar
    72    80    79    1
    73    60    59    1
    74    29    28    1
    75    54    52   am
    76    46    44    1
    77    87    89   ar
    78    87    85   ar
    79    89    91   ar
    80    53    52    2
    81    19    20    2
    82    19    18    1
    83    83    85   ar
    84    83    82    1
    85    45    44    1
    86    37    38    1
    87    37    34    1
    88    59    56    1
    89    52    51    1
    90    73    71   ar
    91    73    72   ar
    92    12    11    1
    93    11     8    1
    94    38    39    1
    95    79    78    1
    96    79    82    1
    97    71    69   ar
    98    28    27    1
    99    44    41    1
   100    85    88   ar
   101    78    76   am
   102    18    17    1
   103    56    55    1
   104    56    57    1
   105    91    90   ar
   106    50    49    2
   107    72    70   ar
   108    34    33    1
   109    34    35    1
   110    51    48    1
   111    55    49   am
   112    27    26    1
   113    10     9    2
   114    49    48    1
   115    39    33    1
   116    69    68   ar
   117     8     9    1
   118     8     7    1
   119    41    40    1
   120    41    42    1
   121    88    90   ar
   122    57    58    2
   123    76    75    1
   124    76    77    2
   125     9    13   am
   126    75    74    1
   127    35    36    2
   128    26    23    1
   129    17    14    1
   130    48    47    1
   131    13    14    1
   132    70    68   ar
   133    68    67    1
   134    23    24    1
   135    23    22    1
   136    42    43    2
   137    14    15    1
   138    24    25    2
   139    66    65    2
   140    67    64    1
   141    65    64    1
   142    15    16    2
   143    64    63    1
