@<TRIPOS>MOLECULE
tmp/5vuwA02.pdb
 179 176 0 0 0
SMALL
GASTEIGER

@<TRIPOS>ATOM
      1  N        123.3390  257.8880  350.2830 N.3    41  HIS41      -0.1241
      2  CA       123.0890  258.9820  351.2150 C.3    41  HIS41       0.1621
      3  C        123.0550  260.3100  350.4540 C.2    41  HIS41       0.2264
      4  O        124.0680  260.9960  350.3800 O.2    41  HIS41      -0.2867
      5  CB       124.1780  259.0390  352.3070 C.3    41  HIS41       0.0745
      6  CG       124.5370  257.7060  352.8990 C.ar   41  HIS41       0.0817
      7  ND1      123.7280  257.0420  353.7990 N.ar   41  HIS41      -0.2268
      8  CD2      125.6380  256.9270  352.7470 C.ar   41  HIS41       0.1154
      9  CE1      124.3040  255.9090  354.1610 C.ar   41  HIS41       0.1986
     10  NE2      125.4640  255.8130  353.5330 N.ar   41  HIS41      -0.2212
     11  N        112.4870  249.7690  354.0960 N.3   111  CYS111     -0.1235
     12  CA       112.2310  248.5600  354.8950 C.3   111  CYS111      0.1677
     13  C        111.1540  247.6590  354.3000 C.2   111  CYS111      0.2270
     14  O        109.9880  248.0650  354.1550 O.2   111  CYS111     -0.2867
     15  CB       111.8090  248.9290  356.3230 C.3   111  CYS111      0.0956
     16  SG       111.4470  247.4790  357.3760 S.3   111  CYS111     -0.0801
     17  N        127.3820  250.2960  365.0040 N.3   173  SER173     -0.1202
     18  CA       126.3840  250.4430  363.9470 C.3   173  SER173      0.2020
     19  C        125.2210  249.4890  364.1910 C.2   173  SER173      0.2618
     20  O        124.0700  249.8080  363.8920 O.2   173  SER173     -0.2717
     21  CB       127.0040  250.2480  362.5570 C.3   173  SER173      0.2103
     22  OG       127.7550  249.0550  362.5070 O.3   173  SER173     -0.2182
     23  N        125.5160  248.3170  364.7450 N.am  174  GLN174     -0.1979
     24  CA       124.4700  247.4410  365.2600 C.3   174  GLN174      0.1601
     25  C        124.9010  246.9790  366.6600 C.2   174  GLN174      0.2287
     26  O        126.1000  246.9510  366.9510 O.2   174  GLN174     -0.2864
     27  CB       124.2620  246.2160  364.3560 C.3   174  GLN174      0.0394
     28  CG       123.9090  246.4850  362.8980 C.3   174  GLN174      0.0908
     29  CD       123.7220  245.1860  362.1110 C.2   174  GLN174      0.2608
     30  OE1      123.5040  244.1150  362.6950 O.2   174  GLN174     -0.2717
     31  NE2      123.8060  245.2750  360.7850 N.am  174  GLN174     -0.0878
     32  N        127.5950  242.9150  366.3350 N.3   177  ARG177     -0.1245
     33  CA       128.3520  242.7330  365.0930 C.3   177  ARG177      0.1563
     34  C        129.6750  242.0320  365.3750 C.2   177  ARG177      0.2260
     35  O        130.1210  241.9670  366.5140 O.2   177  ARG177     -0.2867
     36  CB       128.6000  244.0680  364.3600 C.3   177  ARG177      0.0307
     37  CG       127.3720  244.6220  363.6550 C.3   177  ARG177      0.0489
     38  CD       127.7030  245.6670  362.6110 C.3   177  ARG177      0.2205
     39  NE       127.7830  245.0920  361.2800 N.pl3 177  ARG177     -0.0865
     40  CZ       127.9400  245.8010  360.1640 C.cat 177  ARG177      0.5346
     41  NH1      128.0360  247.1250  360.2170 N.pl3 177  ARG177      0.1354
     42  NH2      128.0110  245.1790  358.9940 N.pl3 177  ARG177      0.1354
     43  N        119.2270  241.2060  364.3830 N.3   261  PRO261     -0.2116
     44  CA       119.7090  242.3920  363.6650 C.3   261  PRO261      0.1372
     45  C        119.1790  243.6310  364.3680 C.2   261  PRO261      0.2244
     46  O        117.9610  243.7960  364.5000 O.2   261  PRO261     -0.2868
     47  CB       119.0830  242.2450  362.2660 C.3   261  PRO261      0.0268
     48  CG       117.8010  241.4630  362.5000 C.3   261  PRO261      0.0207
     49  CD       117.9830  240.6660  363.8020 C.3   261  PRO261      0.0892
     50  N        119.9990  247.5470  364.4080 N.3   263  VAL263     -0.1245
     51  CA       120.5870  248.8040  363.9880 C.3   263  VAL263      0.1561
     52  C        120.5670  249.8330  365.1040 C.2   263  VAL263      0.2260
     53  O        119.5180  250.1070  365.6810 O.2   263  VAL263     -0.2867
     54  CB       119.8230  249.3470  362.7930 C.3   263  VAL263      0.0252
     55  CG1      120.2550  250.7850  362.4850 C.3   263  VAL263      0.0019
     56  CG2      120.0930  248.4620  361.6230 C.3   263  VAL263      0.0019
     57  N        122.6580  252.9450  365.0090 N.3   265  ASN265     -0.1225
     58  CA       123.3370  254.2060  364.6710 C.3   265  ASN265      0.1785
     59  C        122.4760  255.2330  363.9530 C.2   265  ASN265      0.2597
     60  O        122.9760  256.2450  363.4710 O.2   265  ASN265     -0.2718
     61  CB       124.6270  253.9590  363.8780 C.3   265  ASN265      0.1169
     62  CG       124.3790  253.2670  362.5530 C.2   265  ASN265      0.2627
     63  OD1      123.2770  252.7820  362.2760 O.2   265  ASN265     -0.2716
     64  ND2      125.4150  253.1930  361.7380 N.am  265  ASN265     -0.0877
     65  N        121.1810  254.9840  363.8810 N.am  266  MET266     -0.1979
     66  CA       120.2920  255.9410  363.2210 C.3   266  MET266      0.1605
     67  C        119.6940  256.9640  364.1650 C.2   266  MET266      0.2287
     68  O        119.7130  256.7950  365.3860 O.2   266  MET266     -0.2864
     69  CB       119.1970  255.2210  362.4260 C.3   266  MET266      0.0413
     70  CG       119.7890  254.4530  361.2270 C.3   266  MET266      0.0598
     71  SD       118.5420  253.6730  360.2180 S.3   266  MET266     -0.1393
     72  CE       118.1640  255.0230  359.0970 C.3   266  MET266      0.0692
     73  N        117.1190  249.7860  367.4650 N.3   280  PHE280     -0.1227
     74  CA       115.9050  249.0190  367.1830 C.3   280  PHE280      0.1736
     75  C        116.2590  247.6790  366.5340 C.2   280  PHE280      0.2596
     76  O        117.3450  247.5010  366.0000 O.2   280  PHE280     -0.2718
     77  CB       114.9230  249.8110  366.3030 C.3   280  PHE280      0.0547
     78  CG       115.4800  250.1830  364.9460 C.ar  280  PHE280     -0.0202
     79  CD1      115.4270  249.2840  363.8780 C.ar  280  PHE280     -0.0042
     80  CD2      116.0540  251.4310  364.7390 C.ar  280  PHE280     -0.0042
     81  CE1      115.9380  249.6220  362.6390 C.ar  280  PHE280     -0.0003
     82  CE2      116.5680  251.7790  363.4850 C.ar  280  PHE280     -0.0003
     83  CZ       116.5100  250.8680  362.4430 C.ar  280  PHE280     -0.0000
     84  N        115.3380  246.7290  366.5850 N.am  281  SER281     -0.1938
     85  CA       115.6340  245.4070  366.0530 C.3   281  SER281      0.2055
     86  C        114.3620  244.7400  365.5790 C.2   281  SER281      0.2644
     87  O        113.2750  244.9960  366.1210 O.2   281  SER281     -0.2714
     88  CB       116.2990  244.5470  367.1340 C.3   281  SER281      0.2130
     89  OG       115.4820  244.4870  368.2860 O.3   281  SER281     -0.2179
     90  N        114.4950  243.9020  364.5530 N.am  282  GLY282     -0.1939
     91  CA       113.4120  243.0360  364.1140 C.3   282  GLY282      0.2014
     92  C        113.9430  241.6200  364.0580 C.2   282  GLY282      0.2639
     93  O        114.4720  241.1060  365.0440 O.2   282  GLY282     -0.2714
     94  N        113.7790  240.9840  362.9060 N.am  283  TRP283     -0.1959
     95  CA       114.4470  239.7200  362.6160 C.3   283  TRP283      0.1771
     96  C        115.0080  239.7480  361.1790 C.2   283  TRP283      0.2620
     97  O        114.7440  240.6770  360.4200 O.2   283  TRP283     -0.2715
     98  CB       113.4980  238.5480  362.8330 C.3   283  TRP283      0.0590
     99  CG       112.1730  238.6710  362.1540 C.ar  283  TRP283      0.0006
    100  CD1      111.9030  238.4220  360.8340 C.ar  283  TRP283      0.0946
    101  CD2      110.9250  239.0430  362.7570 C.ar  283  TRP283      0.0152
    102  NE1      110.5680  238.6250  360.5790 N.ar  283  TRP283     -0.2442
    103  CE2      109.9430  239.0010  361.7420 C.ar  283  TRP283      0.0810
    104  CE3      110.5440  239.4150  364.0530 C.ar  283  TRP283      0.0012
    105  CZ2      108.5980  239.3200  361.9870 C.ar  283  TRP283      0.0191
    106  CZ3      109.2090  239.7290  364.2950 C.ar  283  TRP283      0.0001
    107  CH2      108.2540  239.6820  363.2670 C.ar  283  TRP283      0.0015
    108  N        115.7900  238.7500  360.8040 N.am  284  TYR284     -0.1960
    109  CA       116.4840  238.8040  359.5220 C.3   284  TYR284      0.1771
    110  C        115.6330  238.3040  358.3490 C.2   284  TYR284      0.2619
    111  O        114.8470  237.3620  358.5000 O.2   284  TYR284     -0.2715
    112  CB       117.7370  237.9390  359.5890 C.3   284  TYR284      0.0574
    113  CG       119.0100  238.6510  359.9550 C.ar  284  TYR284     -0.0198
    114  CD1      119.6710  238.3620  361.1490 C.ar  284  TYR284     -0.0009
    115  CD2      119.5750  239.5830  359.0960 C.ar  284  TYR284     -0.0009
    116  CE1      120.8580  239.0010  361.4870 C.ar  284  TYR284      0.0417
    117  CE2      120.7620  240.2250  359.4150 C.ar  284  TYR284      0.0417
    118  CZ       121.3930  239.9310  360.6180 C.ar  284  TYR284      0.1957
    119  OH       122.5670  240.5690  360.9270 O.3   284  TYR284     -0.2866
    120  N        115.7990  238.9370  357.1840 N.am  285  MET285     -0.1977
    121  CA       115.4760  238.2890  355.9130 C.3   285  MET285      0.1605
    122  C        116.7560  237.5740  355.5330 C.2   285  MET285      0.2287
    123  O        117.8290  238.1690  355.6250 O.2   285  MET285     -0.2864
    124  CB       115.1210  239.3170  354.8360 C.3   285  MET285      0.0413
    125  CG       114.6340  238.7040  353.4970 C.3   285  MET285      0.0598
    126  SD       113.7840  239.9250  352.4670 S.3   285  MET285     -0.1393
    127  CE       115.2030  240.8440  351.8510 C.3   285  MET285      0.0692
    128  N        119.9420  238.9120  353.7070 N.3   288  GLU288     -0.1245
    129  CA       120.7710  239.9090  354.3580 C.3   288  GLU288      0.1567
    130  C        122.0850  239.2660  354.7950 C.2   288  GLU288      0.2260
    131  O        123.1380  239.8920  354.7390 O.2   288  GLU288     -0.2867
    132  CB       120.0660  240.4900  355.5780 C.3   288  GLU288      0.0388
    133  CG       118.8590  241.3570  355.2800 C.3   288  GLU288      0.1160
    134  CD       118.3000  241.9720  356.5630 C.2   288  GLU288      0.3649
    135  OE1      118.8730  242.9990  356.9990 O.co2 288  GLU288     -0.2457
    136  OE2      117.3240  241.4160  357.1490 O.co2 288  GLU288     -0.2457
    137  N        116.0500  249.4490  347.3640 N.3   374  TRP374     -0.1241
    138  CA       116.2840  248.7310  348.6260 C.3   374  TRP374      0.1605
    139  C        115.3240  247.5690  348.8370 C.2   374  TRP374      0.2264
    140  O        115.7200  246.5350  349.3730 O.2   374  TRP374     -0.2867
    141  CB       116.2170  249.6940  349.8360 C.3   374  TRP374      0.0550
    142  CG       117.5540  250.3530  350.0890 C.ar  374  TRP374      0.0003
    143  CD1      118.2300  251.1860  349.2400 C.ar  374  TRP374      0.0946
    144  CD2      118.3870  250.1980  351.2480 C.ar  374  TRP374      0.0152
    145  NE1      119.4200  251.5690  349.8080 N.ar  374  TRP374     -0.2442
    146  CE2      119.5420  250.9750  351.0380 C.ar  374  TRP374      0.0810
    147  CE3      118.2610  249.4860  352.4450 C.ar  374  TRP374      0.0012
    148  CZ2      120.5740  251.0550  351.9830 C.ar  374  TRP374      0.0191
    149  CZ3      119.2840  249.5690  353.3830 C.ar  374  TRP374      0.0001
    150  CH2      120.4210  250.3470  353.1470 C.ar  374  TRP374      0.0015
    151  N        119.7690  259.0460  358.7540 N.3   402  TYR402     -0.1227
    152  CA       121.1940  258.7930  358.9480 C.3   402  TYR402      0.1736
    153  C        121.7920  259.9400  359.7480 C.2   402  TYR402      0.2595
    154  O        121.2730  261.0530  359.7340 O.2   402  TYR402     -0.2718
    155  CB       121.9260  258.6630  357.6080 C.3   402  TYR402      0.0548
    156  CG       121.5310  257.4390  356.8270 C.ar  402  TYR402     -0.0200
    157  CD1      121.1630  257.5310  355.4890 C.ar  402  TYR402     -0.0009
    158  CD2      121.5190  256.1870  357.4290 C.ar  402  TYR402     -0.0009
    159  CE1      120.7940  256.4050  354.7700 C.ar  402  TYR402      0.0417
    160  CE2      121.1530  255.0550  356.7200 C.ar  402  TYR402      0.0417
    161  CZ       120.7910  255.1730  355.3880 C.ar  402  TYR402      0.1957
    162  OH       120.4290  254.0470  354.6820 O.3   402  TYR402     -0.2866
    163  N        122.8860  259.6670  360.4440 N.am  403  GLN403     -0.1979
    164  CA       123.6160  260.7150  361.1440 C.3   403  GLN403      0.1601
    165  C        125.0850  260.3910  361.0270 C.2   403  GLN403      0.2287
    166  O        125.4430  259.2220  360.8640 O.2   403  GLN403     -0.2864
    167  CB       123.1780  260.8000  362.6280 C.3   403  GLN403      0.0394
    168  CG       123.1400  259.4800  363.3640 C.3   403  GLN403      0.0908
    169  CD       122.7430  259.6450  364.8240 C.2   403  GLN403      0.2608
    170  OE1      122.6750  260.7600  365.3390 O.2   403  GLN403     -0.2717
    171  NE2      122.4940  258.5380  365.4940 N.am  403  GLN403     -0.0878
    172  N        128.9420  259.4840  361.8380 N.3   405  ASP405     -0.1239
    173  CA       129.5230  258.6160  362.8550 C.3   405  ASP405      0.1674
    174  C        130.0810  259.4490  364.0110 C.2   405  ASP405      0.2266
    175  O        130.6990  260.4950  363.7930 O.2   405  ASP405     -0.2867
    176  CB       130.5900  257.7110  362.2330 C.3   405  ASP405      0.1410
    177  CG       129.9880  256.6670  361.3010 C.2   405  ASP405      0.3668
    178  OD1      128.8930  256.1320  361.6280 O.co2 405  ASP405     -0.2456
    179  OD2      130.6010  256.3890  360.2450 O.co2 405  ASP405     -0.2456
@<TRIPOS>BOND
     1   137   138    1
     2   138   139    1
     3   138   141    1
     4   139   140    2
     5   143   145   ar
     6   143   142   ar
     7   145   146   ar
     8   141   142    1
     9   142   144   ar
    10     1     2    1
    11     4     3    2
    12     3     2    1
    13   146   144   ar
    14   146   148   ar
    15     2     5    1
    16   144   147   ar
    17   127   126    1
    18   148   150   ar
    19     5     6    1
    20   147   149   ar
    21   126   125    1
    22     8     6   ar
    23     8    10   ar
    24     6     7   ar
    25   150   149   ar
    26   125   124    1
    27    10     9   ar
    28   128   129    1
    29     7     9   ar
    30    11    12    1
    31    14    13    2
    32    13    12    1
    33   129   130    1
    34   129   132    1
    35   162   161    1
    36   131   130    2
    37   159   161   ar
    38   159   157   ar
    39   124   121    1
    40    12    15    1
    41   133   132    1
    42   133   134    1
    43   161   160   ar
    44   157   156   ar
    45   122   123    2
    46   122   121    1
    47   121   120    1
    48    15    16    1
    49   134   135   ar
    50   134   136   ar
    51   160   158   ar
    52   156   158   ar
    53   156   155    1
    54   120   110   am
    55   155   152    1
    56   110   111    2
    57   110   109    1
    58   151   152    1
    59   152   153    1
    60    42    40    1
    61   115   117   ar
    62   115   113   ar
    63    72    71    1
    64   117   118   ar
    65   109   112    1
    66   109   108    1
    67   112   113    1
    68   154   153    2
    69   153   163   am
    70   113   114   ar
    71    40    41    1
    72    40    39    2
    73    71    70    1
    74   179   177   ar
    75    97    96    2
    76   163   164    1
    77   102   100   ar
    78   102   103   ar
    79   118   119    1
    80   118   116   ar
    81    31    29   am
    82   108    96   am
    83   100    99   ar
    84   166   165    2
    85   165   164    1
    86   164   167    1
    87   114   116   ar
    88    96    95    1
    89    70    69    1
    90    39    38    1
    91   177   178   ar
    92   177   176    1
    93    56    54    1
    94    64    62   am
    95   103   105   ar
    96   103   101   ar
    97   172   173    1
    98   105   107   ar
    99    29    30    2
   100    29    28    1
   101    99   101   ar
   102    99    98    1
   103   176   173    1
   104    47    48    1
   105    47    44    1
   106    63    62    2
   107    69    66    1
   108    83    81   ar
   109    83    82   ar
   110    55    54    1
   111    48    49    1
   112    22    21    1
   113    62    61    1
   114    21    18    1
   115    38    37    1
   116    95    98    1
   117    95    94    1
   118   167   168    1
   119    81    79   ar
   120   101   104   ar
   121    54    51    1
   122   173   174    1
   123    28    27    1
   124    94    92   am
   125    66    65    1
   126    66    67    1
   127   107   106   ar
   128   168   169    1
   129    60    59    2
   130    82    80   ar
   131    37    36    1
   132    44    45    1
   133    44    43    1
   134   175   174    2
   135    49    43    1
   136    61    58    1
   137    79    78   ar
   138    65    59   am
   139    20    19    2
   140    18    19    1
   141    18    17    1
   142    59    58    1
   143    51    50    1
   144    51    52    1
   145   104   106   ar
   146    92    91    1
   147    92    93    2
   148    91    90    1
   149    67    68    2
   150    19    23   am
   151    27    24    1
   152    36    33    1
   153    45    46    2
   154    90    86   am
   155    58    57    1
   156    80    78   ar
   157    23    24    1
   158   169   170    2
   159   169   171   am
   160    78    77    1
   161    33    34    1
   162    33    32    1
   163    52    53    2
   164    24    25    1
   165    34    35    2
   166    86    85    1
   167    86    87    2
   168    76    75    2
   169    85    84    1
   170    85    88    1
   171    77    74    1
   172    75    84   am
   173    75    74    1
   174    25    26    2
   175    88    89    1
   176    74    73    1
