@<TRIPOS>MOLECULE
tmp/5vuyA02.pdb
 145 144 0 0 0
SMALL
GASTEIGER

@<TRIPOS>ATOM
      1  N        123.2510  256.7350  349.7510 N.3    40  MET40      -0.1230
      2  CA       123.0690  256.2530  351.1270 C.3    40  MET40       0.1702
      3  C        122.6600  257.4010  352.0630 C.2    40  MET40       0.2592
      4  O        121.6400  257.3220  352.7420 O.2    40  MET40      -0.2718
      5  CB       124.3270  255.5550  351.6460 C.3    40  MET40       0.0401
      6  CG       124.6450  254.2110  350.9900 C.3    40  MET40       0.0596
      7  SD       124.7540  252.8480  352.1640 S.3    40  MET40      -0.1393
      8  CE       125.8110  251.6930  351.3130 C.3    40  MET40       0.0692
      9  N        123.4450  258.4750  352.0780 N.am   41  HIS41      -0.1976
     10  CA       123.1030  259.6530  352.8740 C.3    41  HIS41       0.1656
     11  C        123.2410  260.9200  352.0330 C.2    41  HIS41       0.2291
     12  O        124.3520  261.3850  351.8040 O.2    41  HIS41      -0.2864
     13  CB       124.0230  259.7780  354.0970 C.3    41  HIS41       0.0771
     14  CG       124.2840  258.4860  354.8060 C.ar   41  HIS41       0.0820
     15  ND1      123.5160  258.0470  355.8660 N.ar   41  HIS41      -0.2267
     16  CD2      125.2430  257.5460  354.6230 C.ar   41  HIS41       0.1154
     17  CE1      123.9800  256.8860  356.2930 C.ar   41  HIS41       0.1986
     18  NE2      125.0290  256.5610  355.5570 N.ar   41  HIS41      -0.2212
     19  N        112.3810  250.2860  356.0450 N.3   111  CYS111     -0.1235
     20  CA       112.2330  249.0980  356.8770 C.3   111  CYS111      0.1677
     21  C        111.1850  248.1350  356.3680 C.2   111  CYS111      0.2270
     22  O        109.9880  248.4550  356.3420 O.2   111  CYS111     -0.2867
     23  CB       111.9040  249.4890  358.3270 C.3   111  CYS111      0.0956
     24  SG       111.4890  248.0880  359.4350 S.3   111  CYS111     -0.0801
     25  N        125.5680  248.7050  366.7470 N.3   174  GLN174     -0.1245
     26  CA       124.5940  247.7780  367.2990 C.3   174  GLN174      0.1566
     27  C        125.0730  247.3320  368.6700 C.2   174  GLN174      0.2260
     28  O        126.2840  247.2510  368.9120 O.2   174  GLN174     -0.2867
     29  CB       124.3830  246.5630  366.4030 C.3   174  GLN174      0.0367
     30  CG       123.7480  246.8340  365.0450 C.3   174  GLN174      0.0905
     31  CD       123.6260  245.5620  364.2190 C.2   174  GLN174      0.2608
     32  OE1      123.3470  244.4780  364.7530 O.2   174  GLN174     -0.2717
     33  NE2      123.8500  245.6820  362.9120 N.am  174  GLN174     -0.0878
     34  N        119.3040  241.6010  366.3560 N.3   261  PRO261     -0.2116
     35  CA       119.8110  242.7990  365.6850 C.3   261  PRO261      0.1372
     36  C        119.3480  243.9910  366.5020 C.2   261  PRO261      0.2244
     37  O        118.1520  244.1130  366.7860 O.2   261  PRO261     -0.2868
     38  CB       119.1070  242.7570  364.3290 C.3   261  PRO261      0.0268
     39  CG       117.7850  242.0880  364.6330 C.3   261  PRO261      0.0207
     40  CD       118.0360  241.1260  365.7740 C.3   261  PRO261      0.0892
     41  N        120.0990  247.9230  366.6110 N.3   263  VAL263     -0.1245
     42  CA       120.6920  249.1880  366.2020 C.3   263  VAL263      0.1561
     43  C        120.6760  250.2390  367.3100 C.2   263  VAL263      0.2260
     44  O        119.6300  250.5330  367.8830 O.2   263  VAL263     -0.2867
     45  CB       120.0220  249.7220  364.9340 C.3   263  VAL263      0.0252
     46  CG1      120.3820  251.1760  364.6920 C.3   263  VAL263      0.0019
     47  CG2      120.4750  248.8950  363.7780 C.3   263  VAL263      0.0019
     48  N        121.1420  255.4490  366.0510 N.3   266  MET266     -0.1245
     49  CA       120.2530  256.3810  365.3730 C.3   266  MET266      0.1570
     50  C        119.7020  257.4300  366.3200 C.2   266  MET266      0.2261
     51  O        119.7140  257.2520  367.5370 O.2   266  MET266     -0.2867
     52  CB       119.1240  255.6420  364.6560 C.3   266  MET266      0.0387
     53  CG       119.6290  254.8010  363.4840 C.3   266  MET266      0.0595
     54  SD       118.3290  254.2990  362.3430 S.3   266  MET266     -0.1393
     55  CE       118.3720  255.6910  361.2230 C.3   266  MET266      0.0692
     56  N        117.2320  250.3270  369.6540 N.3   280  PHE280     -0.1227
     57  CA       116.0520  249.5130  369.3590 C.3   280  PHE280      0.1736
     58  C        116.4300  248.1860  368.7110 C.2   280  PHE280      0.2596
     59  O        117.5030  248.0500  368.1140 O.2   280  PHE280     -0.2718
     60  CB       115.0780  250.2840  368.4620 C.3   280  PHE280      0.0547
     61  CG       115.6570  250.6690  367.1140 C.ar  280  PHE280     -0.0202
     62  CD1      115.6810  249.7560  366.0650 C.ar  280  PHE280     -0.0042
     63  CD2      116.1490  251.9450  366.8960 C.ar  280  PHE280     -0.0042
     64  CE1      116.1920  250.1030  364.8500 C.ar  280  PHE280     -0.0003
     65  CE2      116.6500  252.2960  365.6670 C.ar  280  PHE280     -0.0003
     66  CZ       116.6840  251.3740  364.6490 C.ar  280  PHE280     -0.0000
     67  N        115.5430  247.2090  368.8180 N.am  281  SER281     -0.1938
     68  CA       115.8150  245.8920  368.2670 C.3   281  SER281      0.2055
     69  C        114.5410  245.2830  367.6860 C.2   281  SER281      0.2644
     70  O        113.4320  245.6730  368.0540 O.2   281  SER281     -0.2714
     71  CB       116.3100  244.9840  369.3830 C.3   281  SER281      0.2130
     72  OG       115.2400  244.7110  370.2730 O.3   281  SER281     -0.2179
     73  N        114.7060  244.3090  366.7980 N.am  282  GLY282     -0.1939
     74  CA       113.5930  243.5370  366.2820 C.3   282  GLY282      0.2014
     75  C        114.0940  242.1180  366.1780 C.2   282  GLY282      0.2639
     76  O        114.6120  241.5660  367.1420 O.2   282  GLY282     -0.2714
     77  N        113.9590  241.5320  365.0000 N.am  283  TRP283     -0.1959
     78  CA       114.6090  240.2680  364.6970 C.3   283  TRP283      0.1771
     79  C        115.0860  240.2900  363.2380 C.2   283  TRP283      0.2620
     80  O        114.7730  241.2200  362.4810 O.2   283  TRP283     -0.2715
     81  CB       113.6780  239.0870  364.9740 C.3   283  TRP283      0.0590
     82  CG       112.3320  239.1880  364.2930 C.ar  283  TRP283      0.0006
     83  CD1      112.0550  238.9490  362.9750 C.ar  283  TRP283      0.0946
     84  CD2      111.0850  239.5340  364.9080 C.ar  283  TRP283      0.0152
     85  NE1      110.7130  239.1280  362.7310 N.ar  283  TRP283     -0.2442
     86  CE2      110.0970  239.4980  363.9000 C.ar  283  TRP283      0.0810
     87  CE3      110.7110  239.8800  366.2100 C.ar  283  TRP283      0.0012
     88  CZ2      108.7520  239.7860  364.1580 C.ar  283  TRP283      0.0191
     89  CZ3      109.3720  240.1710  366.4690 C.ar  283  TRP283      0.0001
     90  CH2      108.4110  240.1160  365.4490 C.ar  283  TRP283      0.0015
     91  N        115.8330  239.2660  362.8440 N.am  284  TYR284     -0.1960
     92  CA       116.5380  239.2830  361.5560 C.3   284  TYR284      0.1771
     93  C        115.7000  238.8200  360.3610 C.2   284  TYR284      0.2619
     94  O        114.8830  237.8890  360.4690 O.2   284  TYR284     -0.2715
     95  CB       117.7670  238.3910  361.6440 C.3   284  TYR284      0.0574
     96  CG       119.0570  239.1020  361.9920 C.ar  284  TYR284     -0.0198
     97  CD1      119.7370  238.8160  363.1720 C.ar  284  TYR284     -0.0009
     98  CD2      119.5950  240.0460  361.1400 C.ar  284  TYR284     -0.0009
     99  CE1      120.9340  239.4570  363.4880 C.ar  284  TYR284      0.0417
    100  CE2      120.7800  240.7030  361.4480 C.ar  284  TYR284      0.0417
    101  CZ       121.4530  240.3960  362.6190 C.ar  284  TYR284      0.1957
    102  OH       122.6380  241.0380  362.9230 O.3   284  TYR284     -0.2866
    103  N        115.9090  239.4690  359.2140 N.am  285  MET285     -0.1977
    104  CA       115.5700  238.8500  357.9330 C.3   285  MET285      0.1605
    105  C        116.8080  238.0440  357.5660 C.2   285  MET285      0.2287
    106  O        117.9230  238.5490  357.6890 O.2   285  MET285     -0.2864
    107  CB       115.2940  239.8970  356.8610 C.3   285  MET285      0.0413
    108  CG       114.7710  239.3040  355.5340 C.3   285  MET285      0.0598
    109  SD       113.8500  240.5080  354.5510 S.3   285  MET285     -0.1393
    110  CE       115.1970  241.4640  353.8410 C.3   285  MET285      0.0692
    111  N        120.0580  239.3630  355.7500 N.3   288  GLU288     -0.1245
    112  CA       120.9480  240.3170  356.3650 C.3   288  GLU288      0.1567
    113  C        122.2210  239.5740  356.7180 C.2   288  GLU288      0.2260
    114  O        123.3250  240.1160  356.6240 O.2   288  GLU288     -0.2867
    115  CB       120.3200  240.9210  357.6150 C.3   288  GLU288      0.0388
    116  CG       119.1060  241.8110  357.3500 C.3   288  GLU288      0.1160
    117  CD       118.5540  242.4160  358.6410 C.2   288  GLU288      0.3649
    118  OE1      119.1790  243.3650  359.1650 O.co2 288  GLU288     -0.2457
    119  OE2      117.5080  241.9340  359.1280 O.co2 288  GLU288     -0.2457
    120  N        115.9250  249.8950  349.2870 N.3   374  TRP374     -0.1241
    121  CA       116.2290  249.2380  350.5610 C.3   374  TRP374      0.1605
    122  C        115.3230  248.0630  350.8610 C.2   374  TRP374      0.2264
    123  O        115.7850  247.0530  351.4210 O.2   374  TRP374     -0.2867
    124  CB       116.2130  250.2430  351.7240 C.3   374  TRP374      0.0550
    125  CG       117.5220  250.9720  351.8370 C.ar  374  TRP374      0.0003
    126  CD1      118.1030  251.7730  350.8920 C.ar  374  TRP374      0.0946
    127  CD2      118.4240  250.9380  352.9440 C.ar  374  TRP374      0.0152
    128  NE1      119.3100  252.2430  351.3510 N.ar  374  TRP374     -0.2442
    129  CE2      119.5330  251.7390  352.6030 C.ar  374  TRP374      0.0810
    130  CE3      118.4020  250.3010  354.1840 C.ar  374  TRP374      0.0012
    131  CZ2      120.6020  251.9320  353.4650 C.ar  374  TRP374      0.0191
    132  CZ3      119.4640  250.4910  355.0370 C.ar  374  TRP374      0.0001
    133  CH2      120.5520  251.2990  354.6740 C.ar  374  TRP374      0.0015
    134  N        119.8610  259.5380  361.0360 N.3   402  TYR402     -0.1241
    135  CA       121.2640  259.2200  361.2260 C.3   402  TYR402      0.1605
    136  C        121.9260  260.3670  361.9590 C.2   402  TYR402      0.2264
    137  O        121.4090  261.4880  361.9840 O.2   402  TYR402     -0.2867
    138  CB       121.9750  259.0440  359.8880 C.3   402  TYR402      0.0534
    139  CG       121.5410  257.8340  359.0950 C.ar  402  TYR402     -0.0201
    140  CD1      120.9510  257.9730  357.8440 C.ar  402  TYR402     -0.0009
    141  CD2      121.7330  256.5530  359.5930 C.ar  402  TYR402     -0.0009
    142  CE1      120.5660  256.8680  357.1090 C.ar  402  TYR402      0.0417
    143  CE2      121.3560  255.4420  358.8750 C.ar  402  TYR402      0.0417
    144  CZ       120.7700  255.6040  357.6320 C.ar  402  TYR402      0.1957
    145  OH       120.3950  254.4910  356.9180 O.3   402  TYR402     -0.2866
@<TRIPOS>BOND
     1   120   121    1
     2     1     2    1
     3   121   122    1
     4   121   124    1
     5   122   123    2
     6   126   128   ar
     7   126   125   ar
     8     6     5    1
     9     6     7    1
    10     2     5    1
    11     2     3    1
    12     8     7    1
    13   128   129   ar
    14   124   125    1
    15    12    11    2
    16   125   127   ar
    17    11    10    1
    18     3     9   am
    19     3     4    2
    20     9    10    1
    21   129   127   ar
    22   129   131   ar
    23    10    13    1
    24   127   130   ar
    25   131   133   ar
    26   110   109    1
    27    13    14    1
    28   130   132   ar
    29   109   108    1
    30    16    14   ar
    31    16    18   ar
    32   133   132   ar
    33    14    15   ar
    34   108   107    1
    35    18    17   ar
    36   111   112    1
    37    15    17   ar
    38    19    20    1
    39    22    21    2
    40   112   113    1
    41   112   115    1
    42    21    20    1
    43   114   113    2
    44   107   104    1
    45    20    23    1
    46   145   144    1
    47   142   144   ar
    48   142   140   ar
    49   116   115    1
    50   116   117    1
    51   105   106    2
    52   105   104    1
    53   144   143   ar
    54   140   139   ar
    55   104   103    1
    56    23    24    1
    57   117   119   ar
    58   117   118   ar
    59   143   141   ar
    60   139   141   ar
    61   139   138    1
    62   103    93   am
    63   138   135    1
    64    93    94    2
    65    93    92    1
    66   134   135    1
    67    98   100   ar
    68    98    96   ar
    69    55    54    1
    70   135   136    1
    71   100   101   ar
    72    92    95    1
    73    92    91    1
    74    95    96    1
    75   136   137    2
    76    96    97   ar
    77    54    53    1
    78    80    79    2
    79   101   102    1
    80   101    99   ar
    81    85    83   ar
    82    85    86   ar
    83    91    79   am
    84    33    31   am
    85    83    82   ar
    86    97    99   ar
    87    79    78    1
    88    53    52    1
    89    47    45    1
    90    86    88   ar
    91    86    84   ar
    92    88    90   ar
    93    31    32    2
    94    31    30    1
    95    82    84   ar
    96    82    81    1
    97    38    39    1
    98    38    35    1
    99    39    40    1
   100    66    64   ar
   101    66    65   ar
   102    52    49    1
   103    46    45    1
   104    78    81    1
   105    78    77    1
   106    64    62   ar
   107    84    87   ar
   108    45    42    1
   109    77    75   am
   110    30    29    1
   111    49    48    1
   112    49    50    1
   113    90    89   ar
   114    65    63   ar
   115    35    34    1
   116    35    36    1
   117    40    34    1
   118    62    61   ar
   119    75    74    1
   120    75    76    2
   121    42    41    1
   122    42    43    1
   123    87    89   ar
   124    74    73    1
   125    50    51    2
   126    29    26    1
   127    36    37    2
   128    25    26    1
   129    73    69   am
   130    63    61   ar
   131    61    60    1
   132    26    27    1
   133    43    44    2
   134    69    70    2
   135    69    68    1
   136    59    58    2
   137    68    67    1
   138    68    71    1
   139    60    57    1
   140    27    28    2
   141    58    67   am
   142    58    57    1
   143    57    56    1
   144    71    72    1
