@<TRIPOS>MOLECULE
tmp/5vv1B03.pdb
 144 140 0 0 0
SMALL
GASTEIGER

@<TRIPOS>ATOM
      1  N        107.3380  252.6970  335.0480 N.3    38  MET38      -0.1230
      2  CA       107.6970  252.2650  333.6870 C.3    38  MET38       0.1702
      3  C        107.7990  253.4480  332.7170 C.2    38  MET38       0.2592
      4  O        108.8070  253.6000  332.0150 O.2    38  MET38      -0.2718
      5  CB       106.7050  251.2090  333.1890 C.3    38  MET38       0.0401
      6  CG       106.7500  250.9300  331.7000 C.3    38  MET38       0.0596
      7  SD       108.3590  250.3830  331.1220 S.3    38  MET38      -0.1393
      8  CE       108.0080  250.1640  329.3640 C.3    38  MET38       0.0692
      9  N        106.7610  254.2850  332.6780 N.am   39  HIS39      -0.1976
     10  CA       106.8570  255.5740  331.9770 C.3    39  HIS39       0.1656
     11  C        106.0260  256.6760  332.6160 C.2    39  HIS39       0.2291
     12  O        104.8020  256.6530  332.5440 O.2    39  HIS39      -0.2864
     13  CB       106.5610  255.4770  330.4640 C.3    39  HIS39       0.0771
     14  CG       105.8250  254.2410  330.0500 C.ar   39  HIS39       0.0820
     15  ND1      106.2780  253.4100  329.0440 N.ar   39  HIS39      -0.2267
     16  CD2      104.6630  253.6970  330.4850 C.ar   39  HIS39       0.1154
     17  CE1      105.4330  252.4080  328.8850 C.ar   39  HIS39       0.1986
     18  NE2      104.4440  252.5570  329.7520 N.ar   39  HIS39      -0.2212
     19  N        119.8990  250.8410  329.0640 N.3   107  CYS107     -0.1235
     20  CA       120.6180  249.8280  328.3020 C.3   107  CYS107      0.1677
     21  C        121.9870  249.5330  328.8860 C.2   107  CYS107      0.2270
     22  O        122.8580  250.4140  328.9440 O.2   107  CYS107     -0.2867
     23  CB       120.7640  250.2520  326.8290 C.3   107  CYS107      0.0956
     24  SG       121.7310  249.1130  325.8240 S.3   107  CYS107     -0.0801
     25  N        108.7040  243.2650  318.6250 N.3   170  GLN170     -0.1245
     26  CA       109.9940  242.9030  318.0370 C.3   170  GLN170      0.1566
     27  C        109.7890  242.2950  316.6490 C.2   170  GLN170      0.2260
     28  O        108.7240  241.7450  316.3560 O.2   170  GLN170     -0.2867
     29  CB       110.7930  241.9390  318.9320 C.3   170  GLN170      0.0367
     30  CG       111.1260  242.4940  320.3330 C.3   170  GLN170      0.0905
     31  CD       111.7720  241.4520  321.2360 C.2   170  GLN170      0.2608
     32  OE1      112.5810  240.6340  320.7900 O.2   170  GLN170     -0.2717
     33  NE2      111.4130  241.4780  322.5150 N.am  170  GLN170     -0.0878
     34  N        117.4080  239.7510  318.9850 N.3   257  PRO257     -0.2116
     35  CA       116.4600  240.6400  319.6680 C.3   257  PRO257      0.1372
     36  C        116.3800  241.9530  318.9050 C.2   257  PRO257      0.2244
     37  O        117.3800  242.6600  318.7490 O.2   257  PRO257     -0.2868
     38  CB       117.1000  240.8550  321.0440 C.3   257  PRO257      0.0268
     39  CG       118.5860  240.7420  320.8050 C.3   257  PRO257      0.0207
     40  CD       118.7620  239.8270  319.5690 C.3   257  PRO257      0.0892
     41  N        113.9950  245.1560  318.6420 N.3   259  VAL259     -0.1245
     42  CA       112.8980  245.9620  319.1500 C.3   259  VAL259      0.1561
     43  C        112.3920  246.9130  318.0930 C.2   259  VAL259      0.2260
     44  O        113.1640  247.6990  317.5330 O.2   259  VAL259     -0.2867
     45  CB       113.3330  246.7430  320.3840 C.3   259  VAL259      0.0252
     46  CG1      112.2340  247.6920  320.8300 C.3   259  VAL259      0.0019
     47  CG2      113.6800  245.7620  321.4870 C.3   259  VAL259      0.0019
     48  N        109.6890  251.2080  319.2240 N.3   262  MET262     -0.1245
     49  CA       110.1040  252.4460  319.8760 C.3   262  MET262      0.1570
     50  C        110.1060  253.6150  318.9110 C.2   262  MET262      0.2261
     51  O        109.9770  253.4220  317.6900 O.2   262  MET262     -0.2867
     52  CB       111.4640  252.2840  320.5520 C.3   262  MET262      0.0387
     53  CG       111.4040  251.3750  321.7700 C.3   262  MET262      0.0595
     54  SD       112.8610  251.5280  322.8070 S.3   262  MET262     -0.1393
     55  CE       112.2820  252.8430  323.9030 C.3   262  MET262      0.0692
     56  N        115.5770  248.3560  315.7550 N.3   276  PHE276     -0.1227
     57  CA       116.9960  248.2040  316.0100 C.3   276  PHE276      0.1736
     58  C        117.2470  246.8670  316.7000 C.2   276  PHE276      0.2596
     59  O        116.3330  246.2670  317.2700 O.2   276  PHE276     -0.2718
     60  CB       117.5190  249.3660  316.8570 C.3   276  PHE276      0.0547
     61  CG       116.8300  249.4980  318.1940 C.ar  276  PHE276     -0.0202
     62  CD1      117.2370  248.7340  319.2800 C.ar  276  PHE276     -0.0042
     63  CD2      115.7730  250.3810  318.3570 C.ar  276  PHE276     -0.0042
     64  CE1      116.5980  248.8570  320.5220 C.ar  276  PHE276     -0.0003
     65  CE2      115.1260  250.5110  319.6030 C.ar  276  PHE276     -0.0003
     66  CZ       115.5380  249.7560  320.6710 C.ar  276  PHE276     -0.0000
     67  N        118.4920  246.4060  316.6450 N.am  277  SER277     -0.1938
     68  CA       118.8160  245.0910  317.1590 C.3   277  SER277      0.2055
     69  C        120.2660  245.0220  317.5940 C.2   277  SER277      0.2644
     70  O        121.1290  245.7040  317.0310 O.2   277  SER277     -0.2714
     71  CB       118.5370  244.0170  316.1070 C.3   277  SER277      0.2130
     72  OG       119.4440  244.1240  315.0180 O.3   277  SER277     -0.2179
     73  N        120.5190  244.2060  318.6120 N.am  278  GLY278     -0.1939
     74  CA       121.8740  243.9450  319.0650 C.3   278  GLY278      0.2014
     75  C        122.0200  242.4520  319.2410 C.2   278  GLY278      0.2638
     76  O        121.8640  241.6700  318.3020 O.2   278  GLY278     -0.2714
     77  N        122.3090  242.0450  320.4620 N.am  279  TRP279     -0.1973
     78  CA       122.2740  240.6320  320.7910 C.3   279  TRP279      0.1640
     79  C        121.8080  240.4830  322.2320 C.2   279  TRP279      0.2290
     80  O        121.7300  241.4700  322.9800 O.2   279  TRP279     -0.2864
     81  CB       123.6340  239.9770  320.5770 C.3   279  TRP279      0.0576
     82  CG       124.7580  240.6890  321.2430 C.ar  279  TRP279      0.0006
     83  CD1      125.1180  240.6120  322.5710 C.ar  279  TRP279      0.0946
     84  CD2      125.7010  241.5740  320.6230 C.ar  279  TRP279      0.0152
     85  NE1      126.2140  241.4110  322.8040 N.ar  279  TRP279     -0.2442
     86  CE2      126.5930  242.0090  321.6270 C.ar  279  TRP279      0.0810
     87  CE3      125.8750  242.0400  319.3160 C.ar  279  TRP279      0.0012
     88  CZ2      127.6510  242.8860  321.3590 C.ar  279  TRP279      0.0191
     89  CZ3      126.9290  242.9160  319.0510 C.ar  279  TRP279      0.0001
     90  CH2      127.8000  243.3270  320.0660 C.ar  279  TRP279      0.0015
     91  N        121.4270  239.4670  326.2170 N.3   281  MET281     -0.1245
     92  CA       121.9830  239.0780  327.5030 C.3   281  MET281      0.1570
     93  C        121.1400  237.8800  327.9510 C.2   281  MET281      0.2261
     94  O        119.9180  237.9040  327.8180 O.2   281  MET281     -0.2867
     95  CB       121.9150  240.2260  328.5140 C.3   281  MET281      0.0387
     96  CG       122.5050  239.8470  329.8830 C.3   281  MET281      0.0595
     97  SD       122.7910  241.2820  330.9370 S.3   281  MET281     -0.1393
     98  CE       121.1390  241.6650  331.5240 C.3   281  MET281      0.0692
     99  N        117.6590  237.7200  329.7530 N.3   284  GLU284     -0.1245
    100  CA       116.4720  238.2370  329.0840 C.3   284  GLU284      0.1567
    101  C        115.5460  237.0840  328.7550 C.2   284  GLU284      0.2260
    102  O        114.3380  237.1620  328.9550 O.2   284  GLU284     -0.2867
    103  CB       116.8440  238.9890  327.8010 C.3   284  GLU284      0.0388
    104  CG       117.5490  240.3070  328.0350 C.3   284  GLU284      0.1160
    105  CD       117.7650  241.1040  326.7490 C.2   284  GLU284      0.3649
    106  OE1      116.7930  241.7290  326.2590 O.co2 284  GLU284     -0.2457
    107  OE2      118.9080  241.1120  326.2300 O.co2 284  GLU284     -0.2457
    108  N        113.4600  236.2880  332.2900 N.3   288  ARG288     -0.1245
    109  CA       112.2140  237.0130  332.0090 C.3   288  ARG288      0.1563
    110  C        111.3000  236.2540  331.0490 C.2   288  ARG288      0.2260
    111  O        110.1720  235.9010  331.4130 O.2   288  ARG288     -0.2867
    112  CB       112.5060  238.4260  331.4700 C.3   288  ARG288      0.0307
    113  CG       113.4370  239.2750  332.3600 C.3   288  ARG288      0.0489
    114  CD       112.8530  239.5150  333.7650 C.3   288  ARG288      0.2205
    115  NE       111.4470  239.9380  333.7170 N.pl3 288  ARG288     -0.0865
    116  CZ       111.0410  241.1710  333.4150 C.cat 288  ARG288      0.5346
    117  NH1      111.9340  242.1160  333.1280 N.pl3 288  ARG288      0.1354
    118  NH2      109.7400  241.4610  333.3930 N.pl3 288  ARG288      0.1354
    119  N        116.8220  249.2460  335.8350 N.3   370  TRP370     -0.1241
    120  CA       116.9210  248.4520  334.6160 C.3   370  TRP370      0.1605
    121  C        118.2840  247.7990  334.3980 C.2   370  TRP370      0.2264
    122  O        118.3730  246.7140  333.8070 O.2   370  TRP370     -0.2867
    123  CB       116.5530  249.3310  333.4070 C.3   370  TRP370      0.0550
    124  CG       115.0840  249.5940  333.3810 C.ar  370  TRP370      0.0003
    125  CD1      114.3640  250.3220  334.2850 C.ar  370  TRP370      0.0946
    126  CD2      114.1440  249.1100  332.4130 C.ar  370  TRP370      0.0152
    127  NE1      113.0330  250.3220  333.9350 N.ar  370  TRP370     -0.2442
    128  CE2      112.8720  249.5830  332.7930 C.ar  370  TRP370      0.0810
    129  CE3      114.2570  248.3220  331.2640 C.ar  370  TRP370      0.0012
    130  CZ2      111.7210  249.3010  332.0580 C.ar  370  TRP370      0.0191
    131  CZ3      113.1100  248.0410  330.5340 C.ar  370  TRP370      0.0001
    132  CH2      111.8620  248.5270  330.9350 C.ar  370  TRP370      0.0015
    133  N        109.1870  255.6480  324.1850 N.3   398  TYR398     -0.1241
    134  CA       108.0410  254.7790  323.9800 C.3   398  TYR398      0.1605
    135  C        106.9780  255.5250  323.1950 C.2   398  TYR398      0.2264
    136  O        106.9610  256.7580  323.1650 O.2   398  TYR398     -0.2867
    137  CB       107.4560  254.3230  325.3160 C.3   398  TYR398      0.0534
    138  CG       108.4370  253.5890  326.1800 C.ar  398  TYR398     -0.0201
    139  CD1      108.9780  254.1910  327.3070 C.ar  398  TYR398     -0.0009
    140  CD2      108.8250  252.2930  325.8730 C.ar  398  TYR398     -0.0009
    141  CE1      109.8770  253.5210  328.1100 C.ar  398  TYR398      0.0417
    142  CE2      109.7260  251.6160  326.6660 C.ar  398  TYR398      0.0417
    143  CZ       110.2440  252.2350  327.7830 C.ar  398  TYR398      0.1957
    144  OH       111.1320  251.5640  328.5800 O.3   398  TYR398     -0.2866
@<TRIPOS>BOND
     1    72    71    1
     2    56    57    1
     3    57    58    1
     4    57    60    1
     5    71    68    1
     6    28    27    2
     7    67    58   am
     8    67    68    1
     9    27    26    1
    10    58    59    2
    11    60    61    1
    12    70    69    2
    13    68    69    1
    14    44    43    2
    15    69    73   am
    16    51    50    2
    17    26    25    1
    18    26    29    1
    19    43    42    1
    20    61    63   ar
    21    61    62   ar
    22    76    75    2
    23    63    65   ar
    24    73    74    1
    25    41    42    1
    26    37    36    2
    27    36    35    1
    28    50    49    1
    29    29    30    1
    30    34    40    1
    31    34    35    1
    32    89    87   ar
    33    89    90   ar
    34    74    75    1
    35    42    45    1
    36    48    49    1
    37    75    77   am
    38    62    64   ar
    39    87    84   ar
    40    40    39    1
    41    65    66   ar
    42    35    38    1
    43    49    52    1
    44    90    88   ar
    45    30    31    1
    46    45    46    1
    47    45    47    1
    48    77    78    1
    49    64    66   ar
    50    52    53    1
    51    81    78    1
    52    81    82    1
    53    84    82   ar
    54    84    86   ar
    55    32    31    2
    56    78    79    1
    57    39    38    1
    58    31    33   am
    59    82    83   ar
    60    88    86   ar
    61    86    85   ar
    62    53    54    1
    63    79    80    2
    64    83    85   ar
    65    54    55    1
    66   136   135    2
    67   135   134    1
    68   134   133    1
    69   134   137    1
    70   137   138    1
    71    24    23    1
    72   140   138   ar
    73   140   142   ar
    74   138   139   ar
    75    91    92    1
    76   107   105   ar
    77   106   105   ar
    78   142   143   ar
    79   105   104    1
    80    23    20    1
    81   139   141   ar
    82    92    93    1
    83    92    95    1
    84   143   141   ar
    85   143   144    1
    86   103   104    1
    87   103   100    1
    88    94    93    2
    89    20    21    1
    90    20    19    1
    91    95    96    1
    92   101   102    2
    93   101   100    1
    94    17    15   ar
    95    17    18   ar
    96    21    22    2
    97    15    14   ar
    98   100    99    1
    99     8     7    1
   100    18    16   ar
   101    96    97    1
   102    14    13    1
   103    14    16   ar
   104    13    10    1
   105   131   132   ar
   106   131   129   ar
   107   132   130   ar
   108    97    98    1
   109   110   111    2
   110   110   109    1
   111     7     6    1
   112   129   126   ar
   113   112   109    1
   114   112   113    1
   115     6     5    1
   116    10    11    1
   117    10     9    1
   118   109   108    1
   119     4     3    2
   120   130   128   ar
   121   113   114    1
   122   126   128   ar
   123   126   124   ar
   124    12    11    2
   125     9     3   am
   126     3     2    1
   127   128   127   ar
   128   117   116    1
   129     5     2    1
   130   124   123    1
   131   124   125   ar
   132   118   116    1
   133   123   120    1
   134   116   115    2
   135     2     1    1
   136   115   114    1
   137   122   121    2
   138   127   125   ar
   139   121   120    1
   140   120   119    1
