@<TRIPOS>MOLECULE
tmp/5vv6B03.pdb
 136 133 0 0 0
SMALL
GASTEIGER

@<TRIPOS>ATOM
      1  N          6.0020   -2.2500   55.5870 N.3    38  VAL38      -0.1231
      2  CA         5.4110   -1.7720   56.8510 C.3    38  VAL38       0.1692
      3  C          6.0470   -2.4490   58.0800 C.2    38  VAL38       0.2591
      4  O          6.4450   -1.7810   59.0300 O.2    38  VAL38      -0.2718
      5  CB         3.8580   -1.9110   56.8700 C.3    38  VAL38       0.0266
      6  CG1        3.2930   -1.5680   58.2460 C.3    38  VAL38       0.0020
      7  CG2        3.2300   -1.0060   55.8130 C.3    38  VAL38       0.0020
      8  N          6.1620   -3.7720   58.0350 N.am   39  LEU39      -0.1980
      9  CA         6.7120   -4.5300   59.1510 C.3    39  LEU39       0.1596
     10  C          8.0190   -5.2200   58.7760 C.2    39  LEU39       0.2287
     11  O          8.2210   -5.5910   57.6200 O.2    39  LEU39      -0.2864
     12  CB         5.7130   -5.5930   59.6220 C.3    39  LEU39       0.0297
     13  CG         4.2660   -5.1700   59.8750 C.3    39  LEU39       0.0022
     14  CD1        3.4020   -6.4010   60.0740 C.3    39  LEU39       0.0001
     15  CD2        4.1580   -4.2240   61.0770 C.3    39  LEU39       0.0001
     16  N          7.9120    9.0190   63.1620 N.3   108  CYS108     -0.1235
     17  CA         7.1350   10.0310   63.8850 C.3   108  CYS108      0.1677
     18  C          7.3910   11.4700   63.4220 C.2   108  CYS108      0.2270
     19  O          8.4950   11.9950   63.5600 O.2   108  CYS108     -0.2867
     20  CB         7.3530    9.9210   65.3980 C.3   108  CYS108      0.0956
     21  SG         6.3530   11.1100   66.3450 S.3   108  CYS108     -0.0801
     22  N         -4.7240    0.1500   70.3110 N.3   171  GLN171     -0.1245
     23  CA        -4.8120    1.4810   70.9330 C.3   171  GLN171      0.1566
     24  C         -5.7680    1.3950   72.1150 C.2   171  GLN171      0.2260
     25  O         -6.6420    0.5170   72.1360 O.2   171  GLN171     -0.2867
     26  CB        -5.3390    2.5400   69.9490 C.3   171  GLN171      0.0367
     27  CG        -4.3510    3.0030   68.8690 C.3   171  GLN171      0.0905
     28  CD        -4.9360    4.1040   67.9770 C.2   171  GLN171      0.2608
     29  OE1       -5.6790    4.9790   68.4460 O.2   171  GLN171     -0.2717
     30  NE2       -4.5980    4.0640   66.6860 N.am  171  GLN171     -0.0878
     31  N         -4.9160    9.7170   70.7500 N.3   258  PRO258     -0.2116
     32  CA        -4.2550    8.6190   70.0450 C.3   258  PRO258      0.1372
     33  C         -3.2910    7.9470   71.0180 C.2   258  PRO258      0.2244
     34  O         -2.2280    8.4900   71.3080 O.2   258  PRO258     -0.2868
     35  CB        -3.5040    9.3350   68.9170 C.3   258  PRO258      0.0268
     36  CG        -3.1670   10.6820   69.4890 C.3   258  PRO258      0.0207
     37  CD        -4.2360   11.0080   70.5320 C.3   258  PRO258      0.0892
     38  N         -1.3290    4.5290   71.6430 N.3   260  VAL260     -0.1245
     39  CA        -0.8680    3.2750   71.0560 C.3   260  VAL260      0.1561
     40  C         -0.3180    2.3350   72.1140 C.2   260  VAL260      0.2260
     41  O          0.4850    2.7390   72.9560 O.2   260  VAL260     -0.2867
     42  CB         0.1920    3.5720   70.0110 C.3   260  VAL260      0.0252
     43  CG1        0.9030    2.2950   69.5530 C.3   260  VAL260      0.0019
     44  CG2       -0.4870    4.2810   68.8480 C.3   260  VAL260      0.0019
     45  N          2.9980   -1.6000   71.0710 N.3   263  MET263     -0.1245
     46  CA         4.4050   -1.5340   70.7060 C.3   263  MET263      0.1570
     47  C          5.2840   -1.9000   71.8880 C.2   263  MET263      0.2261
     48  O          4.9090   -1.6770   73.0450 O.2   263  MET263     -0.2867
     49  CB         4.7640   -0.1450   70.1860 C.3   263  MET263      0.0387
     50  CG         4.0730    0.2030   68.8600 C.3   263  MET263      0.0595
     51  SD         4.8680    1.5910   68.0530 S.3   263  MET263     -0.1393
     52  CE         6.1870    0.7180   67.1910 C.3   263  MET263      0.0692
     53  N          1.5610    4.6170   74.9850 N.3   277  PHE277     -0.1241
     54  CA         1.9220    6.0250   74.9580 C.3   277  PHE277      0.1605
     55  C          0.9050    6.7950   74.1330 C.2   277  PHE277      0.2264
     56  O          0.2120    6.2190   73.2900 O.2   277  PHE277     -0.2867
     57  CB         3.3290    6.1930   74.3810 C.3   277  PHE277      0.0534
     58  CG         3.5030    5.5820   73.0130 C.ar  277  PHE277     -0.0203
     59  CD1        3.1180    6.2790   71.8680 C.ar  277  PHE277     -0.0042
     60  CD2        4.0740    4.3240   72.8710 C.ar  277  PHE277     -0.0042
     61  CE1        3.2930    5.7200   70.5940 C.ar  277  PHE277     -0.0003
     62  CE2        4.2500    3.7530   71.6070 C.ar  277  PHE277     -0.0003
     63  CZ         3.8620    4.4510   70.4700 C.ar  277  PHE277     -0.0000
     64  N         -0.0870   10.9500   72.3590 N.3   279  GLY279     -0.1210
     65  CA         0.2530   12.3420   72.1240 C.3   279  GLY279      0.1956
     66  C         -1.0320   13.0370   71.7400 C.2   279  GLY279      0.2612
     67  O         -2.0080   13.0240   72.4960 O.2   279  GLY279     -0.2717
     68  N         -1.0400   13.6390   70.5590 N.am  280  TRP280     -0.1962
     69  CA        -2.2690   14.1650   70.0160 C.3   280  TRP280      0.1771
     70  C         -2.2560   13.8740   68.5240 C.2   280  TRP280      0.2620
     71  O         -1.2170   13.5200   67.9800 O.2   280  TRP280     -0.2715
     72  CB        -2.4400   15.6560   70.3360 C.3   280  TRP280      0.0590
     73  CG        -1.2790   16.5220   69.9760 C.ar  280  TRP280      0.0006
     74  CD1       -0.9450   16.9710   68.7230 C.ar  280  TRP280      0.0946
     75  CD2       -0.3190   17.0890   70.8730 C.ar  280  TRP280      0.0152
     76  NE1        0.1740   17.7670   68.7900 N.ar  280  TRP280     -0.2442
     77  CE2        0.5800   17.8580   70.1010 C.ar  280  TRP280      0.0810
     78  CE3       -0.1270   17.0250   72.2610 C.ar  280  TRP280      0.0012
     79  CZ2        1.6540   18.5540   70.6640 C.ar  280  TRP280      0.0191
     80  CZ3        0.9450   17.7150   72.8220 C.ar  280  TRP280      0.0001
     81  CH2        1.8220   18.4640   72.0260 C.ar  280  TRP280      0.0015
     82  N         -3.4100   14.0000   67.8760 N.am  281  TYR281     -0.1960
     83  CA        -3.5490   13.6080   66.4760 C.3   281  TYR281      0.1771
     84  C         -3.0270   14.6620   65.5060 C.2   281  TYR281      0.2619
     85  O         -3.1360   15.8610   65.7730 O.2   281  TYR281     -0.2715
     86  CB        -5.0250   13.3820   66.1660 C.3   281  TYR281      0.0574
     87  CG        -5.4780   11.9460   66.2470 C.ar  281  TYR281     -0.0198
     88  CD1       -4.9890   11.0010   65.3600 C.ar  281  TYR281     -0.0009
     89  CD2       -6.4240   11.5470   67.1830 C.ar  281  TYR281     -0.0009
     90  CE1       -5.4050    9.6960   65.4130 C.ar  281  TYR281      0.0417
     91  CE2       -6.8520   10.2340   67.2470 C.ar  281  TYR281      0.0417
     92  CZ        -6.3400    9.3120   66.3550 C.ar  281  TYR281      0.1957
     93  OH        -6.7630    7.9960   66.3940 O.3   281  TYR281     -0.2866
     94  N         -2.4580   14.2160   64.3860 N.am  282  MET282     -0.1977
     95  CA        -2.3220   15.0770   63.2130 C.3   282  MET282      0.1605
     96  C         -3.5960   14.8320   62.3990 C.2   282  MET282      0.2287
     97  O         -4.0240   13.6860   62.2560 O.2   282  MET282     -0.2864
     98  CB        -1.0720   14.7220   62.4000 C.3   282  MET282      0.0413
     99  CG        -0.9340   15.5230   61.0840 C.3   282  MET282      0.0598
    100  SD         0.7360   15.3300   60.4190 S.3   282  MET282     -0.1393
    101  CE         0.5760   13.7300   59.6010 C.3   282  MET282      0.0692
    102  N         -4.4650   11.8560   59.9130 N.3   285  GLU285     -0.1245
    103  CA        -4.6040   10.4950   60.4360 C.3   285  GLU285      0.1567
    104  C         -6.0670   10.0800   60.4250 C.2   285  GLU285      0.2260
    105  O         -6.4090    8.9870   59.9590 O.2   285  GLU285     -0.2867
    106  CB        -4.0500   10.3980   61.8700 C.3   285  GLU285      0.0388
    107  CG        -2.5460   10.5940   61.9720 C.3   285  GLU285      0.1160
    108  CD        -2.0400   10.4460   63.3970 C.2   285  GLU285      0.3649
    109  OE1       -1.9260    9.2890   63.8570 O.co2 285  GLU285     -0.2457
    110  OE2       -1.7760   11.4810   64.0550 O.co2 285  GLU285     -0.2457
    111  N          6.6220    7.7530   55.5960 N.3   370  TRP370     -0.1241
    112  CA         5.7340    7.9400   56.7480 C.3   370  TRP370      0.1605
    113  C          5.6810    9.3920   57.2100 C.2   370  TRP370      0.2264
    114  O          4.6820    9.8340   57.7810 O.2   370  TRP370     -0.2867
    115  CB         6.1710    7.0450   57.9160 C.3   370  TRP370      0.0550
    116  CG         5.7190    5.6280   57.7580 C.ar  370  TRP370      0.0003
    117  CD1        6.0840    4.7550   56.7800 C.ar  370  TRP370      0.0946
    118  CD2        4.8060    4.9240   58.6070 C.ar  370  TRP370      0.0152
    119  NE1        5.4470    3.5480   56.9620 N.ar  370  TRP370     -0.2442
    120  CE2        4.6570    3.6260   58.0810 C.ar  370  TRP370      0.0810
    121  CE3        4.0990    5.2650   59.7650 C.ar  370  TRP370      0.0012
    122  CZ2        3.8420    2.6640   58.6760 C.ar  370  TRP370      0.0191
    123  CZ3        3.2840    4.3060   60.3540 C.ar  370  TRP370      0.0001
    124  CH2        3.1640    3.0260   59.8100 C.ar  370  TRP370      0.0015
    125  N          7.7390   -3.0660   66.8340 N.3   398  TYR398     -0.1241
    126  CA         6.5660   -3.9050   66.7330 C.3   398  TYR398      0.1605
    127  C          6.8710   -5.2160   67.4370 C.2   398  TYR398      0.2264
    128  O          8.0370   -5.5920   67.5890 O.2   398  TYR398     -0.2867
    129  CB         6.2120   -4.1580   65.2680 C.3   398  TYR398      0.0534
    130  CG         5.8820   -2.8970   64.5080 C.ar  398  TYR398     -0.0201
    131  CD1        4.8510   -2.0670   64.9200 C.ar  398  TYR398     -0.0009
    132  CD2        6.5920   -2.5440   63.3730 C.ar  398  TYR398     -0.0009
    133  CE1        4.5380   -0.9190   64.2240 C.ar  398  TYR398      0.0417
    134  CE2        6.2880   -1.3980   62.6670 C.ar  398  TYR398      0.0417
    135  CZ         5.2600   -0.5890   63.0960 C.ar  398  TYR398      0.1957
    136  OH         4.9570    0.5580   62.3890 O.3   398  TYR398     -0.2866
@<TRIPOS>BOND
     1     1     2    1
     2   111   112    1
     3     7     5    1
     4   112   113    1
     5   112   115    1
     6   117   119   ar
     7   117   116   ar
     8     2     5    1
     9     2     3    1
    10     5     6    1
    11   119   120   ar
    12   113   114    2
    13    11    10    2
    14   116   115    1
    15   116   118   ar
    16     8     3   am
    17     8     9    1
    18     3     4    2
    19   120   118   ar
    20   120   122   ar
    21   118   121   ar
    22   122   124   ar
    23    10     9    1
    24     9    12    1
    25   101   100    1
    26    12    13    1
    27   121   123   ar
    28   124   123   ar
    29    13    14    1
    30    13    15    1
    31   102   103    1
    32   105   104    2
    33   100    99    1
    34   104   103    1
    35   103   106    1
    36    99    98    1
    37   106   107    1
    38   107   108    1
    39    97    96    2
    40   136   135    1
    41    96    95    1
    42    98    95    1
    43   134   135   ar
    44   134   132   ar
    45   135   133   ar
    46    16    17    1
    47    95    94    1
    48   132   130   ar
    49   108   109   ar
    50   108   110   ar
    51    18    19    2
    52    18    17    1
    53    17    20    1
    54   133   131   ar
    55    94    84   am
    56   130   131   ar
    57   130   129    1
    58   129   126    1
    59    88    90   ar
    60    88    87   ar
    61    20    21    1
    62    90    92   ar
    63    84    85    2
    64    84    83    1
    65    86    87    1
    66    86    83    1
    67    87    89   ar
    68    92    93    1
    69    92    91   ar
    70    83    82    1
    71    30    28   am
    72   126   125    1
    73   126   127    1
    74    89    91   ar
    75    52    51    1
    76   127   128    2
    77    82    70   am
    78    28    29    2
    79    28    27    1
    80    71    70    2
    81    51    50    1
    82    70    69    1
    83    74    76   ar
    84    74    73   ar
    85    76    77   ar
    86    44    42    1
    87    50    49    1
    88    27    26    1
    89    35    36    1
    90    35    32    1
    91    36    37    1
    92    43    42    1
    93    26    23    1
    94    73    72    1
    95    73    75   ar
    96    42    39    1
    97    69    72    1
    98    69    68    1
    99    32    31    1
   100    32    33    1
   101    77    79   ar
   102    77    75   ar
   103    49    46    1
   104    22    23    1
   105    63    61   ar
   106    63    62   ar
   107    37    31    1
   108    68    66   am
   109    61    59   ar
   110    79    81   ar
   111    46    45    1
   112    46    47    1
   113    75    78   ar
   114    23    24    1
   115    33    34    2
   116    39    38    1
   117    39    40    1
   118    62    60   ar
   119    66    65    1
   120    66    67    2
   121    59    58   ar
   122    47    48    2
   123    81    80   ar
   124    40    41    2
   125    24    25    2
   126    65    64    1
   127    78    80   ar
   128    60    58   ar
   129    58    57    1
   130    56    55    2
   131    55    54    1
   132    57    54    1
   133    54    53    1
