@<TRIPOS>MOLECULE
tmp/5vv7A02.pdb
 136 133 0 0 0
SMALL
GASTEIGER

@<TRIPOS>ATOM
      1  N         17.3970   11.5230   45.5810 N.3    40  VAL40      -0.1231
      2  CA        17.0870   11.6910   44.1620 C.3    40  VAL40       0.1692
      3  C         18.1930   11.1730   43.2330 C.2    40  VAL40       0.2591
      4  O         17.9190   10.4810   42.2490 O.2    40  VAL40      -0.2718
      5  CB        16.8140   13.1730   43.8210 C.3    40  VAL40       0.0266
      6  CG1       16.5800   13.3360   42.3170 C.3    40  VAL40       0.0020
      7  CG2       15.6220   13.6910   44.6120 C.3    40  VAL40       0.0020
      8  N         19.4340   11.5320   43.5560 N.am   41  LEU41      -0.1980
      9  CA        20.6160   11.1680   42.7780 C.3    41  LEU41       0.1596
     10  C         21.6530   10.6130   43.7310 C.2    41  LEU41       0.2287
     11  O         22.4540   11.3700   44.2820 O.2    41  LEU41      -0.2864
     12  CB        21.2150   12.4080   42.1100 C.3    41  LEU41       0.0297
     13  CG        20.4990   13.1060   40.9570 C.3    41  LEU41       0.0022
     14  CD1       20.7780   14.5900   41.0030 C.3    41  LEU41       0.0001
     15  CD2       20.9940   12.5390   39.6500 C.3    41  LEU41       0.0001
     16  N          8.8440    5.3940   37.0330 N.3   108  CYS108     -0.1235
     17  CA         7.8180    5.7060   36.0430 C.3   108  CYS108      0.1677
     18  C          6.4940    4.9900   36.3060 C.2   108  CYS108      0.2270
     19  O          6.4090    3.7510   36.2880 O.2   108  CYS108     -0.2867
     20  CB         8.2870    5.3910   34.6120 C.3   108  CYS108      0.0956
     21  SG         6.9590    5.6700   33.3930 S.3   108  CYS108     -0.0801
     22  N         14.8120   18.9230   28.5340 N.3   171  GLN171     -0.1245
     23  CA        13.6870   18.5100   27.6940 C.3   171  GLN171      0.1566
     24  C         13.7290   19.1850   26.3280 C.2   171  GLN171      0.2260
     25  O         14.4550   20.1700   26.1410 O.2   171  GLN171     -0.2867
     26  CB        12.3500   18.7780   28.3680 C.3   171  GLN171      0.0367
     27  CG        12.1490   18.0300   29.6420 C.3   171  GLN171      0.0905
     28  CD        10.7940   18.2930   30.2200 C.2   171  GLN171      0.2608
     29  OE1        9.8360   18.5340   29.4790 O.2   171  GLN171     -0.2717
     30  NE2       10.6960   18.2680   31.5490 N.am  171  GLN171     -0.0878
     31  N          5.8590   16.0680   26.9660 N.3   258  PRO258     -0.2116
     32  CA         7.0000   15.9190   27.8710 C.3   258  PRO258      0.1372
     33  C          8.0300   15.0100   27.2100 C.2   258  PRO258      0.2244
     34  O          7.8060   13.8200   27.0270 O.2   258  PRO258     -0.2868
     35  CB         6.3770   15.2660   29.1120 C.3   258  PRO258      0.0268
     36  CG         5.2410   14.4360   28.5610 C.3   258  PRO258      0.0207
     37  CD         4.7810   15.1080   27.2640 C.3   258  PRO258      0.0892
     38  N         11.8910   14.1130   27.4880 N.3   260  VAL260     -0.1245
     39  CA        13.1030   14.1770   28.2910 C.3   260  VAL260      0.1561
     40  C         14.2930   13.8410   27.4250 C.2   260  VAL260      0.2260
     41  O         14.2290   12.9310   26.5910 O.2   260  VAL260     -0.2867
     42  CB        12.9780   13.1770   29.4440 C.3   260  VAL260      0.0252
     43  CG1       14.2550   13.0750   30.2560 C.3   260  VAL260      0.0019
     44  CG2       11.8110   13.5860   30.2980 C.3   260  VAL260      0.0019
     45  N         18.8310   12.1060   29.5090 N.3   263  MET263     -0.1245
     46  CA        19.0940   10.7860   30.0970 C.3   263  MET263      0.1570
     47  C         19.8870    9.8530   29.1840 C.2   263  MET263      0.2261
     48  O         19.7800    9.9010   27.9510 O.2   263  MET263     -0.2867
     49  CB        17.7990   10.1020   30.5410 C.3   263  MET263      0.0387
     50  CG        17.0700   10.8430   31.6550 C.3   263  MET263      0.0595
     51  SD        15.8380    9.8390   32.5280 S.3   263  MET263     -0.1393
     52  CE        16.9120    8.8900   33.6000 C.3   263  MET263      0.0692
     53  N         13.2100   10.7470   24.6560 N.3   277  PHE277     -0.1241
     54  CA        11.9730    9.9950   24.6390 C.3   277  PHE277      0.1605
     55  C         10.8720   10.8840   25.1850 C.2   277  PHE277      0.2264
     56  O         11.1450   11.8570   25.8970 O.2   277  PHE277     -0.2867
     57  CB        12.1050    8.7370   25.4920 C.3   277  PHE277      0.0534
     58  CG        12.3860    9.0120   26.9380 C.ar  277  PHE277     -0.0203
     59  CD1       11.3550    9.3250   27.8210 C.ar  277  PHE277     -0.0042
     60  CD2       13.6750    8.9480   27.4230 C.ar  277  PHE277     -0.0042
     61  CE1       11.6150    9.5630   29.1510 C.ar  277  PHE277     -0.0003
     62  CE2       13.9380    9.1830   28.7640 C.ar  277  PHE277     -0.0003
     63  CZ        12.9090    9.4900   29.6220 C.ar  277  PHE277     -0.0000
     64  N          6.4000   10.7240   26.3890 N.3   279  GLY279     -0.1210
     65  CA         5.1320   10.0480   26.5290 C.3   279  GLY279      0.1956
     66  C          4.0330   11.0800   26.5000 C.2   279  GLY279      0.2612
     67  O          3.9190   11.8230   25.5360 O.2   279  GLY279     -0.2717
     68  N          3.2060   11.0900   27.5430 N.am  280  TRP280     -0.1962
     69  CA         2.2730   12.1770   27.8070 C.3   280  TRP280      0.1771
     70  C          2.2440   12.4540   29.3160 C.2   280  TRP280      0.2620
     71  O          2.7710   11.6640   30.1120 O.2   280  TRP280     -0.2715
     72  CB         0.8740   11.8850   27.2690 C.3   280  TRP280      0.0590
     73  CG         0.2860   10.6040   27.7320 C.ar  280  TRP280      0.0006
     74  CD1       -0.2970   10.3500   28.9480 C.ar  280  TRP280      0.0946
     75  CD2        0.2010    9.3820   26.9840 C.ar  280  TRP280      0.0152
     76  NE1       -0.7250    9.0410   29.0020 N.ar  280  TRP280     -0.2442
     77  CE2       -0.4370    8.4280   27.8100 C.ar  280  TRP280      0.0810
     78  CE3        0.6120    8.9990   25.7040 C.ar  280  TRP280      0.0012
     79  CZ2       -0.6800    7.1180   27.3900 C.ar  280  TRP280      0.0191
     80  CZ3        0.3680    7.6970   25.2880 C.ar  280  TRP280      0.0001
     81  CH2       -0.2670    6.7710   26.1310 C.ar  280  TRP280      0.0015
     82  N          1.6380   13.5710   29.7070 N.am  281  TYR281     -0.1960
     83  CA         1.7310   14.0240   31.0820 C.3   281  TYR281      0.1771
     84  C          0.7740   13.2930   32.0050 C.2   281  TYR281      0.2619
     85  O         -0.3390   12.9330   31.6180 O.2   281  TYR281     -0.2715
     86  CB         1.4450   15.5270   31.1830 C.3   281  TYR281      0.0574
     87  CG         2.6730   16.3980   31.0820 C.ar  281  TYR281     -0.0198
     88  CD1        3.6080   16.4260   32.1080 C.ar  281  TYR281     -0.0009
     89  CD2        2.8970   17.2040   29.9570 C.ar  281  TYR281     -0.0009
     90  CE1        4.7440   17.2320   32.0180 C.ar  281  TYR281      0.0417
     91  CE2        4.0300   17.9990   29.8520 C.ar  281  TYR281      0.0417
     92  CZ         4.9420   18.0210   30.8900 C.ar  281  TYR281      0.1957
     93  OH         6.0650   18.8110   30.8130 O.3   281  TYR281     -0.2866
     94  N          1.2140   13.0970   33.2400 N.am  282  MET282     -0.1977
     95  CA         0.2660   12.9340   34.3230 C.3   282  MET282      0.1605
     96  C          0.0080   14.3690   34.8030 C.2   282  MET282      0.2287
     97  O          0.9430   15.1730   34.9040 O.2   282  MET282     -0.2864
     98  CB         0.8300   12.0420   35.4380 C.3   282  MET282      0.0413
     99  CG        -0.1600   11.8120   36.5620 C.3   282  MET282      0.0598
    100  SD         0.3310   10.5190   37.7260 S.3   282  MET282     -0.1393
    101  CE         1.7630   11.2530   38.4920 C.3   282  MET282      0.0692
    102  N          2.0560   16.4960   37.3980 N.3   285  GLU285     -0.1245
    103  CA         3.3630   17.0410   37.0410 C.3   285  GLU285      0.1567
    104  C          3.2820   18.5470   36.7460 C.2   285  GLU285      0.2260
    105  O          4.1890   19.3030   37.0780 O.2   285  GLU285     -0.2867
    106  CB         3.9320   16.3340   35.8120 C.3   285  GLU285      0.0388
    107  CG         4.2780   14.8960   36.0070 C.3   285  GLU285      0.1160
    108  CD         4.8040   14.2970   34.7200 C.2   285  GLU285      0.3649
    109  OE1        6.0220   14.4250   34.4810 O.co2 285  GLU285     -0.2457
    110  OE2        3.9990   13.7200   33.9460 O.co2 285  GLU285     -0.2457
    111  N          8.4180    8.0510   44.2530 N.3   370  TRP370     -0.1241
    112  CA         8.1480    8.6540   42.9430 C.3   370  TRP370      0.1605
    113  C          6.8420    8.1750   42.3230 C.2   370  TRP370      0.2264
    114  O          6.2260    8.8920   41.5440 O.2   370  TRP370     -0.2867
    115  CB         9.2890    8.3910   41.9740 C.3   370  TRP370      0.0550
    116  CG        10.4870    9.2380   42.2150 C.ar  370  TRP370      0.0003
    117  CD1       11.2570    9.2770   43.3440 C.ar  370  TRP370      0.0946
    118  CD2       11.0670   10.1670   41.2970 C.ar  370  TRP370      0.0152
    119  NE1       12.2830   10.1790   43.1820 N.ar  370  TRP370     -0.2442
    120  CE2       12.1890   10.7370   41.9320 C.ar  370  TRP370      0.0810
    121  CE3       10.7430   10.5790   40.0010 C.ar  370  TRP370      0.0012
    122  CZ2       12.9870   11.6990   41.3140 C.ar  370  TRP370      0.0191
    123  CZ3       11.5420   11.5330   39.3820 C.ar  370  TRP370      0.0001
    124  CH2       12.6500   12.0780   40.0400 C.ar  370  TRP370      0.0015
    125  N         20.7670    8.7780   34.8020 N.3   398  TYR398     -0.1241
    126  CA        21.2060   10.1590   34.7780 C.3   398  TYR398      0.1605
    127  C         22.6660   10.1770   34.3310 C.2   398  TYR398      0.2264
    128  O         23.3770    9.1900   34.4980 O.2   398  TYR398     -0.2867
    129  CB        21.0670   10.7940   36.1630 C.3   398  TYR398      0.0534
    130  CG        19.6570   10.7890   36.7250 C.ar  398  TYR398     -0.0201
    131  CD1       18.6120   11.4290   36.0560 C.ar  398  TYR398     -0.0009
    132  CD2       19.3770   10.1690   37.9350 C.ar  398  TYR398     -0.0009
    133  CE1       17.3250   11.4370   36.5720 C.ar  398  TYR398      0.0417
    134  CE2       18.0990   10.1790   38.4680 C.ar  398  TYR398      0.0417
    135  CZ        17.0760   10.8100   37.7790 C.ar  398  TYR398      0.1957
    136  OH        15.8050   10.8070   38.3130 O.3   398  TYR398     -0.2866
@<TRIPOS>BOND
     1    54    53    1
     2    54    55    1
     3    54    57    1
     4    55    56    2
     5    80    78   ar
     6    80    81   ar
     7    57    58    1
     8    67    66    2
     9    78    75   ar
    10    81    79   ar
    11    25    24    2
    12    24    23    1
    13    64    65    1
    14    66    65    1
    15    66    68   am
    16    41    40    2
    17    58    60   ar
    18    58    59   ar
    19    31    37    1
    20    31    32    1
    21    75    73   ar
    22    75    77   ar
    23    34    33    2
    24    33    32    1
    25    37    36    1
    26    72    73    1
    27    72    69    1
    28    79    77   ar
    29    60    62   ar
    30    40    39    1
    31    38    39    1
    32    68    69    1
    33    23    26    1
    34    23    22    1
    35    73    74   ar
    36    69    70    1
    37    77    76   ar
    38    59    61   ar
    39    32    35    1
    40    48    47    2
    41    39    42    1
    42    26    27    1
    43    36    35    1
    44    62    63   ar
    45    74    76   ar
    46    61    63   ar
    47    47    46    1
    48    70    82   am
    49    70    71    2
    50    42    43    1
    51    42    44    1
    52    29    28    2
    53    45    46    1
    54    27    28    1
    55    82    83    1
    56    91    89   ar
    57    91    92   ar
    58    89    87   ar
    59    46    49    1
    60    28    30   am
    61    49    50    1
    62    93    92    1
    63    92    90   ar
    64    83    86    1
    65    83    84    1
    66    87    86    1
    67    87    88   ar
    68    85    84    2
    69    50    51    1
    70    84    94   am
    71    90    88   ar
    72    51    52    1
    73    94    95    1
    74    21    20    1
    75   110   108   ar
    76    95    96    1
    77    95    98    1
    78   127   128    2
    79   127   126    1
    80   109   108   ar
    81    20    17    1
    82   108   107    1
    83   126   125    1
    84   126   129    1
    85    96    97    2
    86    98    99    1
    87   106   107    1
    88   106   103    1
    89    17    18    1
    90    17    16    1
    91   131   133   ar
    92   131   130   ar
    93   129   130    1
    94    19    18    2
    95    99   100    1
    96   133   135   ar
    97   130   132   ar
    98   104   103    1
    99   104   105    2
   100   103   102    1
   101   100   101    1
   102   135   136    1
   103   135   134   ar
   104   132   134   ar
   105   123   121   ar
   106   123   124   ar
   107    15    13    1
   108   121   118   ar
   109   124   122   ar
   110    13    14    1
   111    13    12    1
   112   118   120   ar
   113   118   116   ar
   114   122   120   ar
   115   114   113    2
   116   120   119   ar
   117   115   116    1
   118   115   112    1
   119    12     9    1
   120   116   117   ar
   121     4     3    2
   122     6     5    1
   123   113   112    1
   124     9     8    1
   125     9    10    1
   126   112   111    1
   127   119   117   ar
   128     3     8   am
   129     3     2    1
   130    10    11    2
   131     5     2    1
   132     5     7    1
   133     2     1    1
