@<TRIPOS>MOLECULE
tmp/5vv9B03.pdb
 156 155 0 0 0
SMALL
GASTEIGER

@<TRIPOS>ATOM
      1  N          5.7630   -1.7590   55.2760 N.3    38  VAL38      -0.1231
      2  CA         5.2350   -1.3460   56.5800 C.3    38  VAL38       0.1692
      3  C          5.8780   -2.1000   57.7760 C.2    38  VAL38       0.2591
      4  O          6.3390   -1.4680   58.7280 O.2    38  VAL38      -0.2718
      5  CB         3.7000   -1.5150   56.6300 C.3    38  VAL38       0.0266
      6  CG1        3.1760   -1.1660   58.0120 C.3    38  VAL38       0.0020
      7  CG2        3.0250   -0.6500   55.5640 C.3    38  VAL38       0.0020
      8  N          5.9220   -3.4340   57.7230 N.am   39  LEU39      -0.1980
      9  CA         6.5720   -4.2350   58.7720 C.3    39  LEU39       0.1596
     10  C          7.8500   -4.9080   58.2540 C.2    39  LEU39       0.2287
     11  O          8.0360   -5.0440   57.0370 O.2    39  LEU39      -0.2864
     12  CB         5.6120   -5.3050   59.3040 C.3    39  LEU39       0.0297
     13  CG         4.1750   -4.8940   59.6320 C.3    39  LEU39       0.0022
     14  CD1        3.2870   -6.1150   59.7790 C.3    39  LEU39       0.0001
     15  CD2        4.1270   -4.0420   60.8820 C.3    39  LEU39       0.0001
     16  N         11.0060    7.9390   71.5170 N.3   102  TRP102     -0.1241
     17  CA        10.1550    8.8560   70.7520 C.3   102  TRP102      0.1605
     18  C         10.9820    9.6760   69.7650 C.2   102  TRP102      0.2264
     19  O         10.6080    9.8580   68.6150 O.2   102  TRP102     -0.2867
     20  CB         9.4040    9.7810   71.6860 C.3   102  TRP102      0.0550
     21  CG         8.4280   10.6420   71.0100 C.ar  102  TRP102      0.0003
     22  CD1        8.0420   10.5810   69.7120 C.ar  102  TRP102      0.0946
     23  CD2        7.6850   11.7080   71.6050 C.ar  102  TRP102      0.0152
     24  NE1        7.1110   11.5520   69.4520 N.ar  102  TRP102     -0.2442
     25  CE2        6.8710   12.2590   70.6000 C.ar  102  TRP102      0.0810
     26  CE3        7.6300   12.2510   72.8940 C.ar  102  TRP102      0.0012
     27  CZ2        6.0120   13.3370   70.8370 C.ar  102  TRP102      0.0191
     28  CZ3        6.7770   13.3180   73.1300 C.ar  102  TRP102      0.0001
     29  CH2        5.9780   13.8500   72.1050 C.ar  102  TRP102      0.0015
     30  N          7.6890    9.2540   62.9260 N.3   108  CYS108     -0.1235
     31  CA         6.9190   10.2440   63.6470 C.3   108  CYS108      0.1677
     32  C          7.2200   11.6350   63.1050 C.2   108  CYS108      0.2270
     33  O          8.3670   12.0680   63.0500 O.2   108  CYS108     -0.2867
     34  CB         7.1920   10.1690   65.1540 C.3   108  CYS108      0.0956
     35  SG         6.0130   11.1110   66.1640 S.3   108  CYS108     -0.0801
     36  N         -5.0610    0.0830   69.7680 N.3   171  GLN171     -0.1245
     37  CA        -5.1040    1.3730   70.4390 C.3   171  GLN171      0.1566
     38  C         -6.0540    1.3000   71.6180 C.2   171  GLN171      0.2260
     39  O         -6.9530    0.4540   71.6400 O.2   171  GLN171     -0.2867
     40  CB        -5.5470    2.4870   69.4840 C.3   171  GLN171      0.0367
     41  CG        -4.6140    2.7490   68.2930 C.3   171  GLN171      0.0905
     42  CD        -5.2180    3.7000   67.2570 C.2   171  GLN171      0.2608
     43  OE1       -5.9070    4.6560   67.6000 O.2   171  GLN171     -0.2717
     44  NE2       -4.9690    3.4220   65.9850 N.am  171  GLN171     -0.0878
     45  N         -5.0840    9.5120   70.4910 N.3   258  PRO258     -0.2116
     46  CA        -4.4350    8.4710   69.7080 C.3   258  PRO258      0.1372
     47  C         -3.3770    7.7810   70.5500 C.2   258  PRO258      0.2244
     48  O         -2.2600    8.2860   70.6380 O.2   258  PRO258     -0.2868
     49  CB        -3.8120    9.2520   68.5450 C.3   258  PRO258      0.0268
     50  CG        -3.5940   10.6610   69.0770 C.3   258  PRO258      0.0207
     51  CD        -4.3390   10.7820   70.4020 C.3   258  PRO258      0.0892
     52  N         -1.3070    4.1180   71.4530 N.3   260  VAL260     -0.1245
     53  CA        -0.9860    2.8120   70.8750 C.3   260  VAL260      0.1561
     54  C         -0.5080    1.7620   71.8570 C.2   260  VAL260      0.2260
     55  O          0.5450    1.8920   72.4840 O.2   260  VAL260     -0.2867
     56  CB         0.0960    2.9150   69.8270 C.3   260  VAL260      0.0252
     57  CG1       -0.1530    1.8880   68.7430 C.3   260  VAL260      0.0019
     58  CG2        0.0980    4.2540   69.2700 C.3   260  VAL260      0.0019
     59  N          2.7080   -1.7860   70.5100 N.3   263  MET263     -0.1245
     60  CA         4.1300   -1.7220   70.1500 C.3   263  MET263      0.1570
     61  C          5.0030   -2.0870   71.3430 C.2   263  MET263      0.2261
     62  O          4.5220   -2.1130   72.4740 O.2   263  MET263     -0.2867
     63  CB         4.4990   -0.3420   69.5930 C.3   263  MET263      0.0387
     64  CG         3.8630   -0.0580   68.2310 C.3   263  MET263      0.0595
     65  SD         4.5530    1.3320   67.3200 S.3   263  MET263     -0.1393
     66  CE         6.2730    0.8750   67.2140 C.3   263  MET263      0.0692
     67  N          1.4820    4.4700   74.4490 N.3   277  PHE277     -0.1227
     68  CA         1.7800    5.9070   74.4340 C.3   277  PHE277      0.1736
     69  C          0.7620    6.7120   73.6330 C.2   277  PHE277      0.2596
     70  O          0.1710    6.2000   72.6830 O.2   277  PHE277     -0.2718
     71  CB         3.1650    6.1480   73.8740 C.3   277  PHE277      0.0547
     72  CG         3.4230    5.4030   72.6190 C.ar  277  PHE277     -0.0202
     73  CD1        2.9960    5.9070   71.3990 C.ar  277  PHE277     -0.0042
     74  CD2        4.0840    4.1860   72.6490 C.ar  277  PHE277     -0.0042
     75  CE1        3.2240    5.2120   70.2250 C.ar  277  PHE277     -0.0003
     76  CE2        4.3210    3.4900   71.4780 C.ar  277  PHE277     -0.0003
     77  CZ         3.8850    4.0040   70.2630 C.ar  277  PHE277     -0.0000
     78  N          0.5540    7.9690   74.0130 N.am  278  SER278     -0.1938
     79  CA        -0.3580    8.8140   73.2580 C.3   278  SER278      0.2055
     80  C          0.1910   10.2350   72.9920 C.2   278  SER278      0.2644
     81  O          1.1950   10.6670   73.5650 O.2   278  SER278     -0.2714
     82  CB        -1.6980    8.8870   73.9850 C.3   278  SER278      0.2130
     83  OG        -1.6410    9.8170   75.0430 O.3   278  SER278     -0.2179
     84  N         -0.4750   10.9490   72.0940 N.am  279  GLY279     -0.1939
     85  CA        -0.1320   12.3270   71.7890 C.3   279  GLY279      0.2014
     86  C         -1.4110   13.0060   71.3630 C.2   279  GLY279      0.2639
     87  O         -2.4480   12.8110   71.9820 O.2   279  GLY279     -0.2714
     88  N         -1.3580   13.8010   70.3040 N.am  280  TRP280     -0.1959
     89  CA        -2.5880   14.3190   69.7150 C.3   280  TRP280      0.1771
     90  C         -2.5850   14.0240   68.2220 C.2   280  TRP280      0.2620
     91  O         -1.5370   13.7700   67.6250 O.2   280  TRP280     -0.2715
     92  CB        -2.7530   15.8240   69.9740 C.3   280  TRP280      0.0590
     93  CG        -1.5010   16.6050   69.7570 C.ar  280  TRP280      0.0006
     94  CD1       -0.9920   17.0100   68.5690 C.ar  280  TRP280      0.0946
     95  CD2       -0.5940   17.0720   70.7620 C.ar  280  TRP280      0.0152
     96  NE1        0.1780   17.6990   68.7620 N.ar  280  TRP280     -0.2442
     97  CE2        0.4450   17.7490   70.1010 C.ar  280  TRP280      0.0810
     98  CE3       -0.5640   16.9900   72.1600 C.ar  280  TRP280      0.0012
     99  CZ2        1.5040   18.3310   70.7820 C.ar  280  TRP280      0.0191
    100  CZ3        0.4870   17.5600   72.8310 C.ar  280  TRP280      0.0001
    101  CH2        1.5060   18.2280   72.1440 C.ar  280  TRP280      0.0015
    102  N         -3.7630   14.0510   67.6210 N.am  281  TYR281     -0.1960
    103  CA        -3.8790   13.7430   66.2120 C.3   281  TYR281      0.1771
    104  C         -3.2800   14.8030   65.3120 C.2   281  TYR281      0.2619
    105  O         -3.2250   15.9770   65.6620 O.2   281  TYR281     -0.2715
    106  CB        -5.3380   13.5650   65.8500 C.3   281  TYR281      0.0574
    107  CG        -5.7990   12.1420   65.8980 C.ar  281  TYR281     -0.0198
    108  CD1       -5.0970   11.1470   65.2440 C.ar  281  TYR281     -0.0009
    109  CD2       -6.9270   11.7860   66.6140 C.ar  281  TYR281     -0.0009
    110  CE1       -5.5190    9.8410   65.2880 C.ar  281  TYR281      0.0417
    111  CE2       -7.3600   10.4930   66.6530 C.ar  281  TYR281      0.0417
    112  CZ        -6.6560    9.5130   65.9870 C.ar  281  TYR281      0.1957
    113  OH        -7.1040    8.2040   66.0190 O.3   281  TYR281     -0.2866
    114  N         -2.8160   14.3670   64.1500 N.am  282  MET282     -0.1977
    115  CA        -2.6470   15.2510   63.0210 C.3   282  MET282      0.1605
    116  C         -3.8880   15.0330   62.1840 C.2   282  MET282      0.2287
    117  O         -4.3260   13.9000   62.0380 O.2   282  MET282     -0.2864
    118  CB        -1.3760   14.9550   62.2330 C.3   282  MET282      0.0413
    119  CG        -1.2700   15.7920   60.9560 C.3   282  MET282      0.0598
    120  SD         0.3280   15.6620   60.1540 S.3   282  MET282     -0.1393
    121  CE         0.2090   14.0910   59.3060 C.3   282  MET282      0.0692
    122  N         -4.6980   12.0140   59.6250 N.3   285  GLU285     -0.1245
    123  CA        -4.9160   10.6690   60.1470 C.3   285  GLU285      0.1567
    124  C         -6.3990   10.3260   60.1800 C.2   285  GLU285      0.2260
    125  O         -6.8160    9.2440   59.7050 O.2   285  GLU285     -0.2867
    126  CB        -4.3080   10.5430   61.5310 C.3   285  GLU285      0.0388
    127  CG        -2.8330   10.9100   61.5260 C.3   285  GLU285      0.1160
    128  CD        -2.2030   10.7850   62.8780 C.2   285  GLU285      0.3649
    129  OE1       -2.0570    9.6450   63.3430 O.co2 285  GLU285     -0.2457
    130  OE2       -1.8690   11.8230   63.4810 O.co2 285  GLU285     -0.2457
    131  N          6.3780    7.9860   55.3790 N.3   370  TRP370     -0.1241
    132  CA         5.4660    8.1980   56.5240 C.3   370  TRP370      0.1605
    133  C          5.4220    9.6750   56.9800 C.2   370  TRP370      0.2264
    134  O          4.4010   10.1450   57.4710 O.2   370  TRP370     -0.2867
    135  CB         5.8440    7.2780   57.7050 C.3   370  TRP370      0.0550
    136  CG         5.3930    5.8120   57.5170 C.ar  370  TRP370      0.0003
    137  CD1        5.7750    4.9630   56.5160 C.ar  370  TRP370      0.0946
    138  CD2        4.4910    5.0560   58.3490 C.ar  370  TRP370      0.0152
    139  NE1        5.1640    3.7460   56.6600 N.ar  370  TRP370     -0.2442
    140  CE2        4.3700    3.7700   57.7750 C.ar  370  TRP370      0.0810
    141  CE3        3.7760    5.3390   59.5200 C.ar  370  TRP370      0.0012
    142  CZ2        3.5630    2.7690   58.3220 C.ar  370  TRP370      0.0191
    143  CZ3        2.9700    4.3360   60.0710 C.ar  370  TRP370      0.0001
    144  CH2        2.8740    3.0700   59.4690 C.ar  370  TRP370      0.0015
    145  N          7.6070   -3.0860   66.5190 N.3   398  TYR398     -0.1241
    146  CA         6.4080   -3.9010   66.3350 C.3   398  TYR398      0.1605
    147  C          6.6490   -5.2630   66.9580 C.2   398  TYR398      0.2264
    148  O          7.7980   -5.6650   67.1730 O.2   398  TYR398     -0.2867
    149  CB         6.0530   -4.0710   64.8570 C.3   398  TYR398      0.0534
    150  CG         5.7830   -2.7930   64.1140 C.ar  398  TYR398     -0.0201
    151  CD1        4.5060   -2.2530   64.0700 C.ar  398  TYR398     -0.0009
    152  CD2        6.8030   -2.1270   63.4440 C.ar  398  TYR398     -0.0009
    153  CE1        4.2480   -1.0860   63.3870 C.ar  398  TYR398      0.0417
    154  CE2        6.5560   -0.9590   62.7580 C.ar  398  TYR398      0.0417
    155  CZ         5.2730   -0.4420   62.7300 C.ar  398  TYR398      0.1957
    156  OH         5.0120    0.7250   62.0460 O.3   398  TYR398     -0.2866
@<TRIPOS>BOND
     1     1     2    1
     2   131   132    1
     3     7     5    1
     4   137   139   ar
     5   137   136   ar
     6   132   133    1
     7   132   135    1
     8     2     5    1
     9     2     3    1
    10     5     6    1
    11   139   140   ar
    12   133   134    2
    13    11    10    2
    14   136   135    1
    15   136   138   ar
    16     8     3   am
    17     8     9    1
    18   140   142   ar
    19   140   138   ar
    20     3     4    2
    21    10     9    1
    22   142   144   ar
    23   138   141   ar
    24     9    12    1
    25    12    13    1
    26   121   120    1
    27   144   143   ar
    28   141   143   ar
    29   122   123    1
    30    13    14    1
    31    13    15    1
    32   125   124    2
    33   123   124    1
    34   123   126    1
    35   120   119    1
    36   119   118    1
    37   127   126    1
    38   127   128    1
    39   117   116    2
    40   156   155    1
    41   116   115    1
    42   118   115    1
    43   155   154   ar
    44   155   153   ar
    45   154   152   ar
    46   128   129   ar
    47   128   130   ar
    48    30    31    1
    49   115   114    1
    50    33    32    2
    51    32    31    1
    52   153   151   ar
    53   152   150   ar
    54    31    34    1
    55   151   150   ar
    56   150   149    1
    57   114   104   am
    58   149   146    1
    59    34    35    1
    60   108   110   ar
    61   108   107   ar
    62   110   112   ar
    63   104   105    2
    64   104   103    1
    65   106   107    1
    66   106   103    1
    67   107   109   ar
    68    44    42   am
    69   112   113    1
    70   112   111   ar
    71   103   102    1
    72   146   145    1
    73   146   147    1
    74   109   111   ar
    75   147   148    2
    76    66    65    1
    77    42    43    2
    78    42    41    1
    79    65    64    1
    80   102    90   am
    81    91    90    2
    82    90    89    1
    83    64    63    1
    84    41    40    1
    85    49    50    1
    86    49    46    1
    87    94    96   ar
    88    94    93   ar
    89    19    18    2
    90    57    56    1
    91    96    97   ar
    92    50    51    1
    93    58    56    1
    94    24    22   ar
    95    24    25   ar
    96    40    37    1
    97    63    60    1
    98    46    45    1
    99    46    47    1
   100    22    21   ar
   101    89    92    1
   102    89    88    1
   103    93    92    1
   104    93    95   ar
   105    18    17    1
   106    36    37    1
   107    56    53    1
   108    97    95   ar
   109    97    99   ar
   110    60    59    1
   111    60    61    1
   112    75    77   ar
   113    75    73   ar
   114    77    76   ar
   115    88    86   am
   116    51    45    1
   117    37    38    1
   118    47    48    2
   119    25    27   ar
   120    25    23   ar
   121    17    16    1
   122    17    20    1
   123    95    98   ar
   124    99   101   ar
   125    27    29   ar
   126    53    52    1
   127    53    54    1
   128    21    23   ar
   129    21    20    1
   130    61    62    2
   131    86    85    1
   132    86    87    2
   133    73    72   ar
   134    76    74   ar
   135    23    26   ar
   136    38    39    2
   137    85    84    1
   138    54    55    2
   139    84    80   am
   140    29    28   ar
   141   101   100   ar
   142    98   100   ar
   143    72    74   ar
   144    72    71    1
   145    70    69    2
   146    26    28   ar
   147    80    79    1
   148    80    81    2
   149    79    82    1
   150    79    78    1
   151    69    78   am
   152    69    68    1
   153    71    68    1
   154    82    83    1
   155    68    67    1
