@<TRIPOS>MOLECULE
tmp/5vvcC04.pdb
 86 78 0 0 0
SMALL
GASTEIGER

@<TRIPOS>ATOM
      1  N         93.5700  -44.7370 -213.0900 N.3    22  GLN22      -0.1231
      2  CA        92.3060  -45.4560 -213.0650 C.3    22  GLN22       0.1698
      3  C         91.1980  -44.5870 -213.6460 C.2    22  GLN22       0.2592
      4  O         91.0150  -44.5120 -214.8710 O.2    22  GLN22      -0.2718
      5  CB        91.9450  -45.8770 -211.6270 C.3    22  GLN22       0.0381
      6  CG        92.4570  -47.2520 -211.1930 C.3    22  GLN22       0.0905
      7  CD        93.9150  -47.2490 -210.7650 C.2    22  GLN22       0.2608
      8  OE1       94.2340  -47.5030 -209.6010 O.2    22  GLN22      -0.2717
      9  NE2       94.8110  -46.9790 -211.7080 N.am   22  GLN22      -0.0878
     10  N         90.4700  -43.9220 -212.7550 N.am   23  GLN23      -0.1979
     11  CA        89.2960  -43.1720 -213.1550 C.3    23  GLN23       0.1601
     12  C         89.6500  -41.9990 -214.0410 C.2    23  GLN23       0.2287
     13  O         90.8120  -41.5870 -214.1340 O.2    23  GLN23      -0.2864
     14  CB        88.5010  -42.7010 -211.9380 C.3    23  GLN23       0.0394
     15  CG        87.2910  -43.5600 -211.6400 C.3    23  GLN23       0.0908
     16  CD        87.6520  -45.0180 -211.4820 C.2    23  GLN23       0.2608
     17  OE1       88.7080  -45.3550 -210.9400 O.2    23  GLN23      -0.2717
     18  NE2       86.7820  -45.8980 -211.9610 N.am   23  GLN23      -0.0878
     19  N         81.9410  -56.1110 -211.8550 N.3    43  GLN43      -0.1245
     20  CA        82.7060  -54.8820 -211.6840 C.3    43  GLN43       0.1566
     21  C         83.4560  -54.8390 -210.3490 C.2    43  GLN43       0.2260
     22  O         84.6260  -54.4430 -210.3120 O.2    43  GLN43      -0.2867
     23  CB        81.7850  -53.6650 -211.8120 C.3    43  GLN43       0.0367
     24  CG        82.4240  -52.3470 -211.3880 C.3    43  GLN43       0.0905
     25  CD        83.2360  -51.7020 -212.4960 C.2    43  GLN43       0.2608
     26  OE1       83.1790  -52.1300 -213.6550 O.2    43  GLN43      -0.2717
     27  NE2       83.9940  -50.6620 -212.1490 N.am   43  GLN43      -0.0878
     28  N         87.9190  -54.5460 -209.7900 N.3    47  GLN47      -0.1245
     29  CA        88.7740  -53.6960 -208.9370 C.3    47  GLN47       0.1566
     30  C         89.3270  -54.4110 -207.6990 C.2    47  GLN47       0.2260
     31  O         90.3810  -54.0390 -207.1780 O.2    47  GLN47      -0.2867
     32  CB        88.0340  -52.4380 -208.5160 C.3    47  GLN47       0.0367
     33  CG        86.6920  -52.3510 -209.1410 C.3    47  GLN47       0.0905
     34  CD        85.9280  -51.1740 -208.6640 C.2    47  GLN47       0.2608
     35  OE1       84.7020  -51.2080 -208.6060 O.2    47  GLN47      -0.2717
     36  NE2       86.6390  -50.1110 -208.3110 N.am   47  GLN47      -0.0878
     37  N         87.8930  -45.7000 -200.4190 N.3   263  GLU263     -0.1245
     38  CA        87.6660  -46.7730 -201.3700 C.3   263  GLU263      0.1567
     39  C         88.9030  -47.6400 -201.5280 C.2   263  GLU263      0.2260
     40  O         89.9690  -47.1440 -201.8850 O.2   263  GLU263     -0.2867
     41  CB        87.2380  -46.2110 -202.7260 C.3   263  GLU263      0.0388
     42  CG        86.8560  -47.2820 -203.7290 C.3   263  GLU263      0.1160
     43  CD        87.9940  -47.6560 -204.6580 C.2   263  GLU263      0.3649
     44  OE1       88.1250  -48.8570 -204.9860 O.co2 263  GLU263     -0.2457
     45  OE2       88.7460  -46.7440 -205.0720 O.co2 263  GLU263     -0.2457
     46  N         87.6650  -51.8930 -204.6930 N.3   266  GLY266     -0.1225
     47  CA        86.2660  -52.0130 -205.0540 C.3   266  GLY266      0.1811
     48  C         85.3340  -51.7600 -203.8860 C.2   266  GLY266      0.2280
     49  O         84.1700  -51.4140 -204.0830 O.2   266  GLY266     -0.2866
     50  N         83.9640  -49.7760 -200.4320 N.3   268  GLU268     -0.1245
     51  CA        83.8350  -48.3740 -200.0500 C.3   268  GLU268      0.1567
     52  C         83.5300  -48.1930 -198.5660 C.2   268  GLU268      0.2260
     53  O         82.6830  -48.8770 -198.0100 O.2   268  GLU268     -0.2867
     54  CB        82.7570  -47.6930 -200.8880 C.3   268  GLU268      0.0388
     55  CG        83.1560  -47.5180 -202.3360 C.3   268  GLU268      0.1160
     56  CD        81.9870  -47.6590 -203.2900 C.2   268  GLU268      0.3649
     57  OE1       80.9620  -46.9690 -203.0990 O.co2 268  GLU268     -0.2457
     58  OE2       82.1020  -48.4640 -204.2400 O.co2 268  GLU268     -0.2457
     59  N         93.8990  -39.7710 -211.0860 N.3   389  PHE389     -0.1241
     60  CA        93.2330  -40.5240 -210.0340 C.3   389  PHE389      0.1605
     61  C         93.7470  -41.9620 -209.9490 C.2   389  PHE389      0.2264
     62  O         93.4850  -42.7790 -210.8310 O.2   389  PHE389     -0.2867
     63  CB        91.7110  -40.5110 -210.2420 C.3   389  PHE389      0.0534
     64  CG        90.9260  -41.2180 -209.1490 C.ar  389  PHE389     -0.0203
     65  CD1       90.7490  -42.6080 -209.1740 C.ar  389  PHE389     -0.0042
     66  CD2       90.3460  -40.4950 -208.1110 C.ar  389  PHE389     -0.0042
     67  CE1       90.0230  -43.2630 -208.1760 C.ar  389  PHE389     -0.0003
     68  CE2       89.6200  -41.1420 -207.1170 C.ar  389  PHE389     -0.0003
     69  CZ        89.4550  -42.5320 -207.1550 C.ar  389  PHE389     -0.0000
     70  N         93.9510  -45.5940 -207.5240 N.3   391  SER391     -0.1217
     71  CA        93.1760  -46.3060 -206.5350 C.3   391  SER391      0.1889
     72  C         94.1770  -47.1220 -205.7320 C.2   391  SER391      0.2288
     73  O         95.1580  -47.6150 -206.2940 O.2   391  SER391     -0.2866
     74  CB        92.1550  -47.2090 -207.2270 C.3   391  SER391      0.2089
     75  OG        90.9720  -47.3450 -206.4600 O.3   391  SER391     -0.2183
     76  N         87.7000  -40.1150 -201.6180 N.3   395  ARG395     -0.1245
     77  CA        86.7640  -39.4080 -202.5020 C.3   395  ARG395      0.1563
     78  C         85.6750  -38.6610 -201.7350 C.2   395  ARG395      0.2260
     79  O         85.2000  -39.1200 -200.6980 O.2   395  ARG395     -0.2867
     80  CB        86.0700  -40.3770 -203.4680 C.3   395  ARG395      0.0307
     81  CG        86.9890  -41.1740 -204.3820 C.3   395  ARG395      0.0489
     82  CD        86.1660  -42.0830 -205.2970 C.3   395  ARG395      0.2205
     83  NE        84.7310  -41.8870 -205.0790 N.pl3 395  ARG395     -0.0865
     84  CZ        83.8790  -42.8520 -204.7390 C.cat 395  ARG395      0.5346
     85  NH1       84.3110  -44.0960 -204.5920 N.pl3 395  ARG395      0.1354
     86  NH2       82.5920  -42.5750 -204.5500 N.pl3 395  ARG395      0.1354
@<TRIPOS>BOND
     1     4     3    2
     2    13    12    2
     3    12    11    1
     4    26    25    2
     5     3     2    1
     6     3    10   am
     7    11    10    1
     8    11    14    1
     9     1     2    1
    10     2     5    1
    11    25    27   am
    12    25    24    1
    13    18    16   am
    14    14    15    1
    15    19    20    1
    16    23    20    1
    17    23    24    1
    18     9     7   am
    19    20    21    1
    20    15    16    1
    21     5     6    1
    22    16    17    2
    23     6     7    1
    24    59    60    1
    25    62    61    2
    26     7     8    2
    27    21    22    2
    28    63    60    1
    29    63    64    1
    30    60    61    1
    31    28    29    1
    32    65    64   ar
    33    65    67   ar
    34    64    66   ar
    35    33    34    1
    36    33    32    1
    37    29    32    1
    38    29    30    1
    39    34    35    2
    40    34    36   am
    41    67    69   ar
    42    66    68   ar
    43    30    31    2
    44    70    71    1
    45    74    71    1
    46    74    75    1
    47    69    68   ar
    48    71    72    1
    49    73    72    2
    50    82    83    1
    51    82    81    1
    52    83    84    2
    53    45    43   ar
    54    47    46    1
    55    47    48    1
    56    44    43   ar
    57    84    85    1
    58    84    86    1
    59    43    42    1
    60    81    80    1
    61    58    56   ar
    62    49    48    2
    63    42    41    1
    64    80    77    1
    65    56    57   ar
    66    56    55    1
    67    41    38    1
    68    77    78    1
    69    77    76    1
    70    55    54    1
    71    40    39    2
    72    78    79    2
    73    39    38    1
    74    38    37    1
    75    54    51    1
    76    50    51    1
    77    51    52    1
    78    52    53    2
