@<TRIPOS>MOLECULE
tmp/5vviA00.pdb
 151 147 0 0 0
SMALL
GASTEIGER

@<TRIPOS>ATOM
      1  N         -3.4420    4.5170   57.0020 N.3     8  PRO8       -0.2102
      2  CA        -4.1310    3.2290   56.9730 C.3     8  PRO8        0.1504
      3  C         -3.2160    2.0680   56.6050 C.2     8  PRO8        0.2575
      4  O         -3.4360    0.9950   57.1150 O.2     8  PRO8       -0.2718
      5  CB        -5.2060    3.4390   55.9120 C.3     8  PRO8        0.0282
      6  CG        -5.4650    4.8610   55.9310 C.3     8  PRO8        0.0208
      7  CD        -4.1850    5.5480   56.2600 C.3     8  PRO8        0.0893
      8  N         -2.2200    2.2670   55.7570 N.am    9  ALA9       -0.1980
      9  CA        -1.3530    1.1550   55.3920 C.3     9  ALA9        0.1597
     10  C         -0.8480    0.4080   56.6430 C.2     9  ALA9        0.2287
     11  O         -0.7760   -0.8140   56.6490 O.2     9  ALA9       -0.2864
     12  CB        -0.1780    1.6450   54.5440 C.3     9  ALA9        0.0319
     13  N         -4.3530   -0.1010   59.6540 N.3    12  ASN12      -0.1240
     14  CA        -5.2840   -1.1710   59.3890 C.3    12  ASN12       0.1653
     15  C         -4.7800   -2.4680   60.0140 C.2    12  ASN12       0.2266
     16  O         -5.5080   -3.1240   60.7500 O.2    12  ASN12      -0.2867
     17  CB        -5.5000   -1.3810   57.8710 C.3    12  ASN12       0.1155
     18  CG        -6.3890   -0.3130   57.2330 C.2    12  ASN12       0.2627
     19  OD1       -7.3280    0.1670   57.8390 O.2    12  ASN12      -0.2716
     20  ND2       -6.1090    0.0280   55.9830 N.am   12  ASN12      -0.0877
     21  N         -5.2270    8.1230   59.8750 N.3    35  LEU35      -0.1231
     22  CA        -5.3740    9.4090   59.2050 C.3    35  LEU35       0.1678
     23  C         -4.5640    9.3880   57.9180 C.2    35  LEU35       0.2434
     24  O         -3.6240    8.6060   57.8170 O.2    35  LEU35      -0.2733
     25  CB        -4.8680   10.5390   60.1030 C.3    35  LEU35       0.0284
     26  CG        -5.6660   10.8700   61.3540 C.3    35  LEU35       0.0019
     27  CD1       -4.8340   11.7950   62.2270 C.3    35  LEU35       0.0001
     28  CD2       -6.9900   11.5260   60.9670 C.3    35  LEU35       0.0001
     29  N         -4.8990   10.2540   56.9440 N.am   36  PRO36      -0.2718
     30  CA        -3.9230   10.4970   55.8740 C.3    36  PRO36       0.1535
     31  C         -2.6210   11.0420   56.4460 C.2    36  PRO36       0.2599
     32  O         -2.6390   11.7230   57.4860 O.2    36  PRO36      -0.2715
     33  CB        -4.6060   11.5410   54.9860 C.3    36  PRO36       0.0310
     34  CG        -6.0670   11.4760   55.3720 C.3    36  PRO36       0.0237
     35  CD        -6.0720   11.1280   56.8230 C.3    36  PRO36       0.0939
     36  N         -1.5140   10.7030   55.7930 N.am   37  SER37      -0.1936
     37  CA        -0.1790   11.0620   56.2570 C.3    37  SER37       0.2055
     38  C         -0.0440   12.5570   56.5260 C.2    37  SER37       0.2643
     39  O          0.6120   12.9660   57.4820 O.2    37  SER37      -0.2714
     40  CB         0.8870   10.6280   55.2330 C.3    37  SER37       0.2130
     41  OG         1.1400    9.2360   55.3070 O.3    37  SER37      -0.2179
     42  N         -0.6510   13.3680   55.6700 N.am   38  SER38      -0.1949
     43  CA        -0.5920   14.8110   55.8550 C.3    38  SER38       0.1924
     44  C         -1.1920   15.1840   57.2070 C.2    38  SER38       0.2314
     45  O         -0.6220   15.9780   57.9520 O.2    38  SER38      -0.2863
     46  CB        -1.3140   15.5300   54.7210 C.3    38  SER38       0.2116
     47  OG        -2.7050   15.3450   54.8540 O.3    38  SER38      -0.2180
     48  N          3.6650    8.1430   55.3820 N.3    53  ASP53      -0.1225
     49  CA         4.4150    7.8820   54.1690 C.3    53  ASP53       0.1805
     50  C          5.4950    8.9170   54.0000 C.2    53  ASP53       0.2598
     51  O          5.3870   10.0620   54.4630 O.2    53  ASP53      -0.2718
     52  CB         3.5300    7.8860   52.9220 C.3    53  ASP53       0.1424
     53  CG         2.3060    6.9730   53.0470 C.2    53  ASP53       0.3668
     54  OD1        2.2990    6.0180   53.8780 O.co2  53  ASP53      -0.2456
     55  OD2        1.3410    7.2310   52.2940 O.co2  53  ASP53      -0.2456
     56  N          6.5400    8.4950   53.3100 N.am   54  GLY54      -0.1957
     57  CA         7.6290    9.3740   52.9720 C.3    54  GLY54       0.1869
     58  C          7.3920    9.9660   51.6040 C.2    54  GLY54       0.2309
     59  O          6.7620    9.3360   50.7530 O.2    54  GLY54      -0.2863
     60  N         -1.3420    3.4320   42.5870 N.3    98  GLN98      -0.1231
     61  CA        -1.5630    4.3350   43.7070 C.3    98  GLN98       0.1698
     62  C         -1.9640    5.7220   43.1660 C.2    98  GLN98       0.2592
     63  O         -2.0990    5.9220   41.9600 O.2    98  GLN98      -0.2718
     64  CB        -0.3120    4.4350   44.5980 C.3    98  GLN98       0.0381
     65  CG        -0.0090    3.1880   45.4480 C.3    98  GLN98       0.0905
     66  CD        -1.1760    2.7750   46.3340 C.2    98  GLN98       0.2608
     67  OE1       -1.3550    3.2850   47.4550 O.2    98  GLN98      -0.2717
     68  NE2       -1.9850    1.8330   45.8360 N.am   98  GLN98      -0.0878
     69  N         -2.1700    6.6900   44.0390 N.am   99  GLU99      -0.1979
     70  CA        -2.8440    7.8730   43.5450 C.3    99  GLU99       0.1602
     71  C         -1.9020    8.7890   42.7710 C.2    99  GLU99       0.2287
     72  O         -0.7610    9.0020   43.1430 O.2    99  GLU99      -0.2864
     73  CB        -3.5430    8.6220   44.6720 C.3    99  GLU99       0.0415
     74  CG        -2.7400    9.6080   45.4090 C.3    99  GLU99       0.1163
     75  CD        -3.5060   10.1800   46.5950 C.2    99  GLU99       0.3649
     76  OE1       -3.3450    9.6230   47.7180 O.co2  99  GLU99      -0.2457
     77  OE2       -4.2550   11.1620   46.3880 O.co2  99  GLU99      -0.2457
     78  N          5.2890    7.9280   45.4460 N.3   104  PHE104     -0.1241
     79  CA         5.3300    6.4910   45.2270 C.3   104  PHE104      0.1605
     80  C          4.7270    6.1200   43.8690 C.2   104  PHE104      0.2264
     81  O          5.3100    5.3270   43.1100 O.2   104  PHE104     -0.2867
     82  CB         4.6160    5.7670   46.3700 C.3   104  PHE104      0.0534
     83  CG         4.6300    4.2580   46.2430 C.ar  104  PHE104     -0.0203
     84  CD1        5.6930    3.5080   46.7450 C.ar  104  PHE104     -0.0042
     85  CD2        3.5860    3.5930   45.6230 C.ar  104  PHE104     -0.0042
     86  CE1        5.7110    2.1290   46.6490 C.ar  104  PHE104     -0.0003
     87  CE2        3.5950    2.2070   45.5110 C.ar  104  PHE104     -0.0003
     88  CZ         4.6690    1.4750   46.0270 C.ar  104  PHE104     -0.0000
     89  N         -6.0290    5.0190   46.4450 N.3   123  SER123     -0.1202
     90  CA        -5.1320    5.7360   47.3340 C.3   123  SER123      0.2020
     91  C         -4.6780    4.8800   48.5320 C.2   123  SER123      0.2619
     92  O         -3.6370    5.1160   49.0880 O.2   123  SER123     -0.2717
     93  CB        -5.7960    7.0250   47.8380 C.3   123  SER123      0.2103
     94  OG        -7.0770    6.7480   48.3970 O.3   123  SER123     -0.2182
     95  N         -5.4660    3.9020   48.9460 N.am  124  LEU124     -0.1965
     96  CA        -5.0670    3.0230   50.0580 C.3   124  LEU124      0.1728
     97  C         -4.4170    1.7590   49.5320 C.2   124  LEU124      0.2617
     98  O         -4.9380    1.1660   48.6110 O.2   124  LEU124     -0.2715
     99  CB        -6.2780    2.6580   50.9190 C.3   124  LEU124      0.0311
    100  CG        -7.0910    3.8450   51.4740 C.3   124  LEU124      0.0022
    101  CD1       -8.2810    3.3350   52.2280 C.3   124  LEU124      0.0001
    102  CD2       -6.2450    4.7860   52.3680 C.3   124  LEU124      0.0001
    103  N         -3.2950    1.3410   50.1040 N.am  125  SER125     -0.1936
    104  CA        -2.6950    0.0720   49.7030 C.3   125  SER125      0.2055
    105  C         -3.6790   -1.1000   49.9070 C.2   125  SER125      0.2643
    106  O         -3.6750   -2.0520   49.1250 O.2   125  SER125     -0.2714
    107  CB        -1.4040   -0.1780   50.4780 C.3   125  SER125      0.2130
    108  OG        -0.4800    0.8740   50.2540 O.3   125  SER125     -0.2179
    109  N         -4.5060   -1.0210   50.9500 N.am  126  HIS126     -0.1973
    110  CA        -5.4880   -2.0710   51.2320 C.3   126  HIS126      0.1656
    111  C         -6.4710   -2.2480   50.0780 C.2   126  HIS126      0.2291
    112  O         -6.7720   -3.3820   49.6810 O.2   126  HIS126     -0.2864
    113  CB        -6.2570   -1.7760   52.5170 C.3   126  HIS126      0.0771
    114  CG        -6.9340   -2.9760   53.1090 C.ar  126  HIS126      0.0820
    115  ND1       -8.0730   -3.5360   52.5660 N.ar  126  HIS126     -0.2267
    116  CD2       -6.6480   -3.7060   54.2120 C.ar  126  HIS126      0.1154
    117  CE1       -8.4550   -4.5610   53.3080 C.ar  126  HIS126      0.1986
    118  NE2       -7.6070   -4.6850   54.3120 N.ar  126  HIS126     -0.2212
    119  N          3.7320   -1.1720   48.6980 N.3   142  ASP142     -0.1239
    120  CA         4.5750   -1.2220   49.8720 C.3   142  ASP142      0.1674
    121  C          4.3310   -2.5590   50.5820 C.2   142  ASP142      0.2266
    122  O          3.2100   -2.9990   50.7050 O.2   142  ASP142     -0.2867
    123  CB         4.2720   -0.0230   50.7780 C.3   142  ASP142      0.1410
    124  CG         2.7710    0.1130   51.0920 C.2   142  ASP142      0.3668
    125  OD1        1.9400    0.0310   50.1520 O.co2 142  ASP142     -0.2456
    126  OD2        2.4180    0.2890   52.2770 O.co2 142  ASP142     -0.2456
    127  N          9.8070    2.3210   49.0820 N.3   164  ALA164     -0.1231
    128  CA         8.5480    2.3740   49.8210 C.3   164  ALA164      0.1694
    129  C          8.8310    2.8390   51.2240 C.2   164  ALA164      0.2592
    130  O          8.8820    2.0380   52.1460 O.2   164  ALA164     -0.2718
    131  CB         7.8670    1.0220   49.8510 C.3   164  ALA164      0.0304
    132  N          9.0260    4.1340   51.3910 N.am  165  GLU165     -0.1966
    133  CA         9.4600    4.6560   52.6690 C.3   165  GLU165      0.1733
    134  C          8.3210    5.1030   53.5820 C.2   165  GLU165      0.2616
    135  O          7.4020    5.7770   53.1290 O.2   165  GLU165     -0.2715
    136  CB        10.4040    5.8290   52.4310 C.3   165  GLU165      0.0429
    137  CG        10.4070    6.8340   53.5480 C.3   165  GLU165      0.1163
    138  CD        11.4560    7.8880   53.3650 C.2   165  GLU165      0.3649
    139  OE1       11.1820    8.8900   52.6690 O.co2 165  GLU165     -0.2457
    140  OE2       12.5520    7.7200   53.9390 O.co2 165  GLU165     -0.2457
    141  N          8.3840    4.7490   54.8660 N.am  166  PHE166     -0.1974
    142  CA         7.5670    5.4780   55.8260 C.3   166  PHE166      0.1639
    143  C          8.3920    6.0020   56.9840 C.2   166  PHE166      0.2290
    144  O          9.5630    5.6560   57.1590 O.2   166  PHE166     -0.2864
    145  CB         6.3800    4.6410   56.3320 C.3   166  PHE166      0.0560
    146  CG         6.7450    3.4280   57.1370 C.ar  166  PHE166     -0.0200
    147  CD1        6.8830    3.5040   58.5040 C.ar  166  PHE166     -0.0042
    148  CD2        6.8740    2.1880   56.5320 C.ar  166  PHE166     -0.0042
    149  CE1        7.1930    2.3820   59.2440 C.ar  166  PHE166     -0.0003
    150  CE2        7.1970    1.0620   57.2830 C.ar  166  PHE166     -0.0003
    151  CZ         7.3480    1.1640   58.6300 C.ar  166  PHE166     -0.0000
@<TRIPOS>BOND
     1    63    62    2
     2    60    61    1
     3    71    72    2
     4    71    70    1
     5    81    80    2
     6    62    61    1
     7    62    69   am
     8    70    69    1
     9    70    73    1
    10    61    64    1
    11    80    79    1
    12    64    65    1
    13    73    74    1
    14    79    78    1
    15    79    82    1
    16    74    75    1
    17    65    66    1
    18    87    85   ar
    19    87    88   ar
    20    85    83   ar
    21    68    66   am
    22    88    86   ar
    23    83    82    1
    24    83    84   ar
    25    66    67    2
    26    77    75   ar
    27    89    90    1
    28    75    76   ar
    29    86    84   ar
    30    90    93    1
    31    90    91    1
    32    93    94    1
    33    91    95   am
    34    91    92    2
    35    98    97    2
    36   119   120    1
    37    95    96    1
    38   127   128    1
    39   106   105    2
    40    97    96    1
    41    97   103   am
    42   112   111    2
    43   104   105    1
    44   104   103    1
    45   104   107    1
    46   128   131    1
    47   128   129    1
    48   120   121    1
    49   120   123    1
    50   105   109   am
    51    96    99    1
    52   111   110    1
    53   125   124   ar
    54   108   107    1
    55   121   122    2
    56    59    58    2
    57   123   124    1
    58    99   100    1
    59   109   110    1
    60   124   126   ar
    61   129   132   am
    62   129   130    2
    63   110   113    1
    64   132   133    1
    65   100   101    1
    66   100   102    1
    67    58    57    1
    68    55    53   ar
    69   136   133    1
    70   136   137    1
    71   113   114    1
    72   115   114   ar
    73   115   117   ar
    74   139   138   ar
    75   133   134    1
    76    52    53    1
    77    52    49    1
    78    57    56    1
    79    53    54   ar
    80   114   116   ar
    81   135   134    2
    82   117   118   ar
    83    56    50   am
    84   138   137    1
    85   138   140   ar
    86   134   141   am
    87    50    49    1
    88    50    51    2
    89    49    48    1
    90   116   118   ar
    91    12     9    1
    92    46    47    1
    93    46    43    1
    94   141   142    1
    95    33    34    1
    96    33    30    1
    97    40    41    1
    98    40    37    1
    99    34    35    1
   100     9     8    1
   101     9    10    1
   102    42    43    1
   103    42    38   am
   104     8     3   am
   105    36    37    1
   106    36    31   am
   107   142   145    1
   108   142   143    1
   109    43    44    1
   110    30    31    1
   111    30    29    1
   112     5     6    1
   113     5     2    1
   114     6     7    1
   115    20    18   am
   116    37    38    1
   117     7     1    1
   118   145   146    1
   119    31    32    2
   120    38    39    2
   121   148   146   ar
   122   148   150   ar
   123     3     2    1
   124     3     4    2
   125    10    11    2
   126    35    29    1
   127    29    23   am
   128     2     1    1
   129   143   144    2
   130   146   147   ar
   131    44    45    2
   132    18    19    2
   133    18    17    1
   134   150   151   ar
   135    24    23    2
   136    17    14    1
   137    23    22    1
   138   147   149   ar
   139   151   149   ar
   140    22    21    1
   141    22    25    1
   142    14    13    1
   143    14    15    1
   144    15    16    2
   145    25    26    1
   146    28    26    1
   147    26    27    1
