@<TRIPOS>MOLECULE
tmp/5vvxA02.pdb
 146 140 0 0 0
SMALL
GASTEIGER

@<TRIPOS>ATOM
      1  N        161.9430    1.9110   34.1280 N.3     9  GLY9       -0.1210
      2  CA       162.6890    0.7980   33.5430 C.3     9  GLY9        0.1956
      3  C        163.4860    1.0510   32.2670 C.2     9  GLY9        0.2612
      4  O        163.8110    0.0920   31.5340 O.2     9  GLY9       -0.2717
      5  N        163.8530    2.3130   32.0280 N.am   10  PHE10      -0.1962
      6  CA       164.3550    2.7470   30.7210 C.3    10  PHE10       0.1771
      7  C        165.8170    3.1290   30.6790 C.2    10  PHE10       0.2619
      8  O        166.4330    3.4850   31.6910 O.2    10  PHE10      -0.2715
      9  CB       163.5250    3.9040   30.1870 C.3    10  PHE10       0.0574
     10  CG       163.3000    5.0030   31.1720 C.ar   10  PHE10      -0.0200
     11  CD1      164.2840    5.9180   31.4350 C.ar   10  PHE10      -0.0042
     12  CD2      162.0710    5.1330   31.8230 C.ar   10  PHE10      -0.0042
     13  CE1      164.0670    6.9400   32.3450 C.ar   10  PHE10      -0.0003
     14  CE2      161.8430    6.1660   32.7300 C.ar   10  PHE10      -0.0003
     15  CZ       162.8490    7.0680   32.9900 C.ar   10  PHE10      -0.0000
     16  N        166.3660    3.0810   29.4790 N.am   11  TYR11      -0.1974
     17  CA       167.7360    3.5040   29.2770 C.3    11  TYR11       0.1639
     18  C        167.8170    5.0230   29.2290 C.2    11  TYR11       0.2290
     19  O        166.8390    5.6980   28.9300 O.2    11  TYR11      -0.2864
     20  CB       168.2970    2.9240   27.9870 C.3    11  TYR11       0.0560
     21  CG       168.4270    1.4090   27.9490 C.ar   11  TYR11      -0.0198
     22  CD1      169.6070    0.7740   28.3520 C.ar   11  TYR11      -0.0009
     23  CD2      167.3900    0.6200   27.4670 C.ar   11  TYR11      -0.0009
     24  CE1      169.7350   -0.5980   28.2730 C.ar   11  TYR11       0.0417
     25  CE2      167.5060   -0.7520   27.4060 C.ar   11  TYR11       0.0417
     26  CZ       168.6760   -1.3500   27.7960 C.ar   11  TYR11       0.1957
     27  OH       168.7550   -2.7030   27.7220 O.3    11  TYR11      -0.2866
     28  N        167.7880    1.3070   33.9910 N.3    40  LYS40      -0.1245
     29  CA       168.9360    0.5890   33.4380 C.3    40  LYS40       0.1561
     30  C        170.2960    1.2600   33.6260 C.2    40  LYS40       0.2260
     31  O        171.3080    0.5620   33.8310 O.2    40  LYS40      -0.2867
     32  CB       168.7270    0.3880   31.9470 C.3    40  LYS40       0.0271
     33  CG       167.7390   -0.6940   31.6210 C.3    40  LYS40       0.0035
     34  CD       168.4140   -2.0060   31.3040 C.3    40  LYS40       0.0206
     35  CE       167.4350   -2.9620   30.6550 C.3    40  LYS40       0.1093
     36  NZ       166.2830   -3.2220   31.5610 N.3    40  LYS40      -0.1314
     37  N        167.1440   -9.4080   31.6340 N.3   116  ASP116     -0.1225
     38  CA       166.6330   -8.9850   30.3320 C.3   116  ASP116      0.1805
     39  C        167.7550   -8.3580   29.5150 C.2   116  ASP116      0.2597
     40  O        168.5820   -7.5910   30.0420 O.2   116  ASP116     -0.2718
     41  CB       165.4080   -8.0320   30.4600 C.3   116  ASP116      0.1424
     42  CG       165.7050   -6.7340   31.2360 C.2   116  ASP116      0.3668
     43  OD1      166.3210   -6.7920   32.3440 O.co2 116  ASP116     -0.2456
     44  OD2      165.2890   -5.6500   30.7300 O.co2 116  ASP116     -0.2456
     45  N        167.7790   -8.7050   28.2280 N.am  117  ASN117     -0.1974
     46  CA       168.7290   -8.1380   27.2980 C.3   117  ASN117      0.1688
     47  C        170.1260   -8.4420   27.8210 C.2   117  ASN117      0.2292
     48  O        170.8620   -7.5490   28.2870 O.2   117  ASN117     -0.2864
     49  CB       168.4920   -6.6250   27.1260 C.3   117  ASN117      0.1181
     50  CG       167.0520   -6.2870   26.7880 C.2   117  ASN117      0.2629
     51  OD1      166.3880   -7.0000   26.0420 O.2   117  ASN117     -0.2716
     52  ND2      166.5740   -5.1870   27.3290 N.am  117  ASN117     -0.0877
     53  N        162.1740  -11.0080   35.9430 N.3   157  CYS157     -0.1235
     54  CA       162.0370  -10.7570   34.5120 C.3   157  CYS157      0.1677
     55  C        162.8880  -11.7200   33.6770 C.2   157  CYS157      0.2270
     56  O        164.1310  -11.5920   33.6470 O.2   157  CYS157     -0.2867
     57  CB       162.4010   -9.3180   34.1470 C.3   157  CYS157      0.0956
     58  SG       162.1740   -9.0600   32.3770 S.3   157  CYS157     -0.0801
     59  N        161.4120  -12.6900   27.5980 N.3   161  TYR161     -0.1241
     60  CA       160.3470  -11.8540   28.1860 C.3   161  TYR161      0.1605
     61  C        159.2660  -11.3630   27.2230 C.2   161  TYR161      0.2264
     62  O        158.4060  -10.5970   27.6610 O.2   161  TYR161     -0.2867
     63  CB       160.9440  -10.6470   28.9380 C.3   161  TYR161      0.0534
     64  CG       161.6810   -9.5950   28.0930 C.ar  161  TYR161     -0.0201
     65  CD1      160.9920   -8.5650   27.4350 C.ar  161  TYR161     -0.0009
     66  CD2      163.0780   -9.5980   28.0010 C.ar  161  TYR161     -0.0009
     67  CE1      161.6730   -7.5960   26.6970 C.ar  161  TYR161      0.0417
     68  CE2      163.7650   -8.6300   27.2640 C.ar  161  TYR161      0.0417
     69  CZ       163.0580   -7.6400   26.6120 C.ar  161  TYR161      0.1957
     70  OH       163.7390   -6.7000   25.8880 O.3   161  TYR161     -0.2866
     71  N        156.3140   -8.5150   28.5300 N.3   192  THR192     -0.1218
     72  CA       155.9230   -7.3210   27.7140 C.3   192  THR192      0.1862
     73  C        154.9320   -7.5250   26.5600 C.2   192  THR192      0.2287
     74  O        154.4720   -6.5300   25.9670 O.2   192  THR192     -0.2866
     75  CB       157.1250   -6.5840   27.0910 C.3   192  THR192      0.1770
     76  OG1      157.5640   -7.3020   25.9260 O.3   192  THR192     -0.2211
     77  CG2      158.2830   -6.3170   28.1190 C.3   192  THR192      0.0375
     78  N        158.3080   -6.5730   22.1140 N.3   196  VAL196     -0.1231
     79  CA       158.8860   -5.7460   23.1680 C.3   196  VAL196      0.1692
     80  C        157.9940   -4.5230   23.4540 C.2   196  VAL196      0.2591
     81  O        157.7170   -4.1870   24.6130 O.2   196  VAL196     -0.2718
     82  CB       160.2880   -5.2400   22.7770 C.3   196  VAL196      0.0266
     83  CG1      160.8570   -4.3650   23.8870 C.3   196  VAL196      0.0020
     84  CG2      161.2210   -6.3950   22.4720 C.3   196  VAL196      0.0020
     85  N        157.5810   -3.8620   22.3730 N.am  197  VAL197     -0.1980
     86  CA       156.5990   -2.8060   22.4070 C.3   197  VAL197      0.1595
     87  C        155.3700   -3.3490   21.7050 C.2   197  VAL197      0.2287
     88  O        155.2080   -3.1910   20.5080 O.2   197  VAL197     -0.2864
     89  CB       157.1230   -1.5660   21.6900 C.3   197  VAL197      0.0276
     90  CG1      156.1320   -0.4120   21.7970 C.3   197  VAL197      0.0022
     91  CG2      158.4780   -1.1920   22.2460 C.3   197  VAL197      0.0022
     92  N        155.0330   -5.8410   31.9990 N.3   220  TRP220     -0.1241
     93  CA       155.9140   -4.7180   31.8580 C.3   220  TRP220      0.1605
     94  C        155.4490   -4.2140   30.5050 C.2   220  TRP220      0.2264
     95  O        155.6650   -4.8650   29.5040 O.2   220  TRP220     -0.2867
     96  CB       157.3560   -5.2280   31.8570 C.3   220  TRP220      0.0550
     97  CG       158.4080   -4.2350   31.6180 C.ar  220  TRP220      0.0003
     98  CD1      158.5300   -3.4400   30.5480 C.ar  220  TRP220      0.0946
     99  CD2      159.5600   -3.9960   32.4310 C.ar  220  TRP220      0.0152
    100  NE1      159.6590   -2.6820   30.6500 N.ar  220  TRP220     -0.2442
    101  CE2      160.3140   -3.0090   31.8020 C.ar  220  TRP220      0.0810
    102  CE3      160.0190   -4.5140   33.6430 C.ar  220  TRP220      0.0012
    103  CZ2      161.5040   -2.5080   32.3460 C.ar  220  TRP220      0.0191
    104  CZ3      161.2100   -4.0170   34.1790 C.ar  220  TRP220      0.0001
    105  CH2      161.9280   -3.0240   33.5340 C.ar  220  TRP220      0.0015
    106  N        155.6970   -1.5390   27.4800 N.3   222  ASN222     -0.1240
    107  CA       156.4990   -0.4910   26.8240 C.3   222  ASN222      0.1653
    108  C        155.7080    0.3720   25.7770 C.2   222  ASN222      0.2266
    109  O        156.2970    1.0940   24.9410 O.2   222  ASN222     -0.2867
    110  CB       157.7200   -1.1160   26.1600 C.3   222  ASN222      0.1155
    111  CG       158.6730   -1.7200   27.1480 C.2   222  ASN222      0.2627
    112  OD1      159.0650   -1.0750   28.1260 O.2   222  ASN222     -0.2716
    113  ND2      159.1000   -2.9500   26.8730 N.am  222  ASN222     -0.0877
    114  N        156.9900    3.8460   26.0540 N.3   225  ALA225     -0.1245
    115  CA       158.4370    3.9220   26.1540 C.3   225  ALA225      0.1562
    116  C        159.0150    4.6860   24.9800 C.2   225  ALA225      0.2260
    117  O        158.5760    4.5210   23.8450 O.2   225  ALA225     -0.2867
    118  CB       159.0430    2.5200   26.2050 C.3   225  ALA225      0.0290
    119  N        162.8110    5.6530   25.1200 N.3   227  ASP227     -0.1225
    120  CA       164.2780    5.5380   25.0460 C.3   227  ASP227      0.1805
    121  C        164.9380    5.1110   23.7180 C.2   227  ASP227      0.2597
    122  O        166.1290    5.3730   23.5040 O.2   227  ASP227     -0.2718
    123  CB       164.7570    4.5990   26.1560 C.3   227  ASP227      0.1424
    124  CG       164.2320    3.1820   26.0040 C.2   227  ASP227      0.3668
    125  OD1      163.5470    2.8920   24.9780 O.co2 227  ASP227     -0.2456
    126  OD2      164.5260    2.3700   26.9280 O.co2 227  ASP227     -0.2456
    127  N        164.1690    4.4360   22.8660 N.am  228  TYR228     -0.1976
    128  CA       164.6690    3.8650   21.6030 C.3   228  TYR228      0.1639
    129  C        164.7290    4.7780   20.3860 C.2   228  TYR228      0.2290
    130  O        165.2150    4.3560   19.3430 O.2   228  TYR228     -0.2864
    131  CB       163.8630    2.6150   21.2310 C.3   228  TYR228      0.0560
    132  CG       162.3530    2.7420   21.1060 C.ar  228  TYR228     -0.0198
    133  CD1      161.7360    3.1050   19.8970 C.ar  228  TYR228     -0.0009
    134  CD2      161.5290    2.3970   22.1800 C.ar  228  TYR228     -0.0009
    135  CE1      160.3340    3.1560   19.7890 C.ar  228  TYR228      0.0417
    136  CE2      160.1390    2.4460   22.0850 C.ar  228  TYR228      0.0417
    137  CZ       159.5360    2.8330   20.8970 C.ar  228  TYR228      0.1957
    138  OH       158.1470    2.8790   20.8640 O.3   228  TYR228     -0.2866
    139  N        156.2120    1.1490   31.5930 N.3   255  ASN255     -0.1240
    140  CA       157.5500    1.7370   31.4080 C.3   255  ASN255      0.1653
    141  C        157.3550    2.9010   30.4390 C.2   255  ASN255      0.2266
    142  O        157.1430    2.6790   29.2450 O.2   255  ASN255     -0.2867
    143  CB       158.4570    0.6590   30.8000 C.3   255  ASN255      0.1155
    144  CG       159.8940    1.0990   30.6420 C.2   255  ASN255      0.2627
    145  OD1      160.4570    1.7720   31.5130 O.2   255  ASN255     -0.2716
    146  ND2      160.5150    0.6960   29.5200 N.am  255  ASN255     -0.0877
@<TRIPOS>BOND
     1   130   129    2
     2   135   133   ar
     3   135   137   ar
     4   133   132   ar
     5   129   128    1
     6    88    87    2
     7   138   137    1
     8   137   136   ar
     9   132   131    1
    10   132   134   ar
    11   131   128    1
    12   128   127    1
    13    89    90    1
    14    89    91    1
    15    89    86    1
    16    87    86    1
    17   136   134   ar
    18    78    79    1
    19    85    86    1
    20    85    80   am
    21    84    82    1
    22    82    79    1
    23    82    83    1
    24   127   121   am
    25    79    80    1
    26    80    81    2
    27   122   121    2
    28   121   120    1
    29   117   116    2
    30   109   108    2
    31   125   124   ar
    32   116   115    1
    33   120   119    1
    34   120   123    1
    35   108   107    1
    36    70    69    1
    37    76    75    1
    38    74    73    2
    39   124   123    1
    40   124   126   ar
    41    51    50    2
    42   114   115    1
    43   115   118    1
    44   110   107    1
    45   110   111    1
    46    73    72    1
    47    69    67   ar
    48    69    68   ar
    49    67    65   ar
    50    50    49    1
    51    50    52   am
    52   107   106    1
    53   113   111   am
    54    75    72    1
    55    75    77    1
    56    49    46    1
    57   111   112    2
    58    61    62    2
    59    61    60    1
    60    68    66   ar
    61    46    47    1
    62    46    45    1
    63    25    23   ar
    64    25    26   ar
    65    65    64   ar
    66    23    21   ar
    67    59    60    1
    68    72    71    1
    69    27    26    1
    70    26    24   ar
    71    47    48    2
    72    21    20    1
    73    21    22   ar
    74    20    17    1
    75    66    64   ar
    76    64    63    1
    77    60    63    1
    78    45    39   am
    79    24    22   ar
    80    19    18    2
    81    18    17    1
    82   142   141    2
    83    17    16    1
    84    16     7   am
    85    95    94    2
    86    39    40    2
    87    39    38    1
    88   146   144   am
    89     9     6    1
    90     9    10    1
    91    38    41    1
    92    38    37    1
    93   141   140    1
    94    41    42    1
    95    94    93    1
    96    98   100   ar
    97    98    97   ar
    98   144   143    1
    99   144   145    2
   100   100   101   ar
   101    35    34    1
   102    35    36    1
   103     7     6    1
   104     7     8    2
   105     6     5    1
   106    44    42   ar
   107   143   140    1
   108    10    11   ar
   109    10    12   ar
   110    42    43   ar
   111    34    33    1
   112   140   139    1
   113    11    13   ar
   114     4     3    2
   115    97    96    1
   116    97    99   ar
   117    33    32    1
   118   101   103   ar
   119   101    99   ar
   120    12    14   ar
   121    96    93    1
   122    93    92    1
   123    32    29    1
   124     5     3   am
   125     3     2    1
   126    13    15   ar
   127   103   105   ar
   128    58    57    1
   129    99   102   ar
   130    14    15   ar
   131    29    30    1
   132    29    28    1
   133   105   104   ar
   134     2     1    1
   135    30    31    2
   136   102   104   ar
   137    56    55    2
   138    55    54    1
   139    57    54    1
   140    54    53    1
