@<TRIPOS>MOLECULE
tmp/5vvxB02.pdb
 139 133 0 0 0
SMALL
GASTEIGER

@<TRIPOS>ATOM
      1  N        173.1470   31.3790   25.8750 N.3     9  GLY9       -0.1210
      2  CA       172.2260   32.1340   24.9900 C.3     9  GLY9        0.1956
      3  C        171.2440   31.3010   24.1680 C.2     9  GLY9        0.2612
      4  O        170.5090   31.8370   23.3190 O.2     9  GLY9       -0.2717
      5  N        171.1920   30.0010   24.4560 N.am   10  PHE10      -0.1962
      6  CA       170.3830   29.0610   23.6700 C.3    10  PHE10       0.1771
      7  C        168.8860   28.9860   24.0600 C.2    10  PHE10       0.2619
      8  O        168.4590   29.3670   25.1640 O.2    10  PHE10      -0.2715
      9  CB       171.0090   27.6700   23.7000 C.3    10  PHE10       0.0574
     10  CG       171.3700   27.1960   25.0710 C.ar   10  PHE10      -0.0200
     11  CD1      170.4010   26.8520   25.9800 C.ar   10  PHE10      -0.0042
     12  CD2      172.6940   27.0940   25.4510 C.ar   10  PHE10      -0.0042
     13  CE1      170.7380   26.4010   27.2410 C.ar   10  PHE10      -0.0003
     14  CE2      173.0380   26.6440   26.7110 C.ar   10  PHE10      -0.0003
     15  CZ       172.0560   26.2860   27.6110 C.ar   10  PHE10      -0.0000
     16  N        168.1020   28.4810   23.1190 N.am   11  TYR11      -0.1974
     17  CA       166.7230   28.1270   23.3890 C.3    11  TYR11       0.1639
     18  C        166.6340   26.7910   24.1220 C.2    11  TYR11       0.2290
     19  O        167.5220   25.9390   24.0060 O.2    11  TYR11      -0.2864
     20  CB       165.9540   28.0540   22.0920 C.3    11  TYR11       0.0560
     21  CG       165.6590   29.3920   21.4620 C.ar   11  TYR11      -0.0198
     22  CD1      164.5330   30.1210   21.8370 C.ar   11  TYR11      -0.0009
     23  CD2      166.4730   29.9150   20.4670 C.ar   11  TYR11      -0.0009
     24  CE1      164.2190   31.3160   21.2330 C.ar   11  TYR11       0.0417
     25  CE2      166.1790   31.1320   19.8690 C.ar   11  TYR11       0.0417
     26  CZ       165.0470   31.8270   20.2450 C.ar   11  TYR11       0.1957
     27  OH       164.7350   33.0360   19.6400 O.3    11  TYR11      -0.2866
     28  N        167.4080   31.9390   26.5640 N.3    40  LYS40      -0.1245
     29  CA       166.1680   32.4020   25.9480 C.3    40  LYS40       0.1561
     30  C        164.8770   32.0500   26.6970 C.2    40  LYS40       0.2260
     31  O        163.9040   32.8010   26.6290 O.2    40  LYS40      -0.2867
     32  CB       166.0700   31.8490   24.5190 C.3    40  LYS40       0.0271
     33  CG       166.9390   32.5170   23.4830 C.3    40  LYS40       0.0035
     34  CD       166.2870   33.7680   22.8680 C.3    40  LYS40       0.0206
     35  CE       167.2030   34.4270   21.8200 C.3    40  LYS40       0.1093
     36  NZ       168.4980   34.9690   22.3880 N.3    40  LYS40      -0.1314
     37  N        167.8180   40.6390   19.2090 N.3   116  ASP116     -0.1225
     38  CA       167.7450   39.5770   18.1890 C.3   116  ASP116      0.1805
     39  C        166.3350   38.9940   17.9940 C.2   116  ASP116      0.2597
     40  O        165.4780   39.0300   18.9000 O.2   116  ASP116     -0.2718
     41  CB       168.7510   38.4480   18.4720 C.3   116  ASP116      0.1424
     42  CG       168.5210   37.7240   19.8090 C.2   116  ASP116      0.3668
     43  OD1      167.7300   38.1780   20.6690 O.co2 116  ASP116     -0.2456
     44  OD2      169.1810   36.6770   20.0080 O.co2 116  ASP116     -0.2456
     45  N        166.1020   38.4770   16.7910 N.am  117  ASN117     -0.1974
     46  CA       164.9300   37.6410   16.5140 C.3   117  ASN117      0.1688
     47  C        163.6150   38.2660   17.0000 C.2   117  ASN117      0.2292
     48  O        162.9480   37.7180   17.8940 O.2   117  ASN117     -0.2864
     49  CB       165.1150   36.2410   17.1340 C.3   117  ASN117      0.1181
     50  CG       166.3920   35.5500   16.6750 C.2   117  ASN117      0.2629
     51  OD1      166.8260   35.6940   15.5270 O.2   117  ASN117     -0.2716
     52  ND2      166.9960   34.7850   17.5760 N.am  117  ASN117     -0.0877
     53  N        173.0160   43.5770   21.2810 N.3   157  CYS157     -0.1235
     54  CA       172.7840   42.6980   20.1460 C.3   157  CYS157      0.1677
     55  C        171.6830   43.2930   19.2920 C.2   157  CYS157      0.2270
     56  O        170.5670   43.4880   19.7830 O.2   157  CYS157     -0.2867
     57  CB       172.3900   41.2940   20.5640 C.3   157  CYS157      0.0956
     58  SG       172.5110   40.1580   19.1700 S.3   157  CYS157     -0.0801
     59  N        172.0220   41.1190   13.2130 N.3   161  TYR161     -0.1241
     60  CA       173.1950   40.7320   14.0070 C.3   161  TYR161      0.1605
     61  C        174.1490   39.7680   13.2860 C.2   161  TYR161      0.2264
     62  O        175.1130   39.2590   13.8930 O.2   161  TYR161     -0.2867
     63  CB       172.7410   40.1420   15.3610 C.3   161  TYR161      0.0534
     64  CG       171.9070   38.8690   15.2670 C.ar  161  TYR161     -0.0201
     65  CD1      172.5280   37.6160   15.2060 C.ar  161  TYR161     -0.0009
     66  CD2      170.4920   38.9170   15.2330 C.ar  161  TYR161     -0.0009
     67  CE1      171.7860   36.4550   15.1020 C.ar  161  TYR161      0.0417
     68  CE2      169.7390   37.7560   15.1220 C.ar  161  TYR161      0.0417
     69  CZ       170.4020   36.5280   15.0660 C.ar  161  TYR161      0.1957
     70  OH       169.7010   35.3560   14.9790 O.3   161  TYR161     -0.2866
     71  N        177.3040   37.8450   14.9700 N.3   192  THR192     -0.1218
     72  CA       177.5160   36.3730   14.9150 C.3   192  THR192      0.1862
     73  C        178.3340   35.8560   13.7190 C.2   192  THR192      0.2287
     74  O        178.6110   34.6480   13.6560 O.2   192  THR192     -0.2866
     75  CB       176.1880   35.5820   14.9230 C.3   192  THR192      0.1770
     76  OG1      175.4700   35.8420   13.7200 O.3   192  THR192     -0.2211
     77  CG2      175.3290   35.9310   16.1190 C.3   192  THR192      0.0375
     78  N        173.9740   33.3520   10.8800 N.3   196  VAL196     -0.1245
     79  CA       173.6350   33.0320   12.2780 C.3   196  VAL196      0.1561
     80  C        174.5990   32.0260   12.9360 C.2   196  VAL196      0.2260
     81  O        175.1380   32.3200   13.9810 O.2   196  VAL196     -0.2867
     82  CB       172.1740   32.5420   12.3620 C.3   196  VAL196      0.0252
     83  CG1      171.9050   31.7090   13.6090 C.3   196  VAL196      0.0019
     84  CG2      171.2360   33.7340   12.2900 C.3   196  VAL196      0.0019
     85  N        179.1140   36.9460   19.2840 N.3   220  TRP220     -0.1241
     86  CA       178.2810   35.8420   19.7450 C.3   220  TRP220      0.1605
     87  C        178.5580   34.6750   18.7920 C.2   220  TRP220      0.2264
     88  O        178.1640   34.7130   17.6190 O.2   220  TRP220     -0.2867
     89  CB       176.8250   36.3070   19.6400 C.3   220  TRP220      0.0550
     90  CG       175.7580   35.4050   20.1200 C.ar  220  TRP220      0.0003
     91  CD1      175.4450   34.1790   19.6470 C.ar  220  TRP220      0.0946
     92  CD2      174.7950   35.7080   21.1140 C.ar  220  TRP220      0.0152
     93  NE1      174.3650   33.6720   20.3110 N.ar  220  TRP220     -0.2442
     94  CE2      173.9430   34.6000   21.2200 C.ar  220  TRP220      0.0810
     95  CE3      174.5790   36.8050   21.9490 C.ar  220  TRP220      0.0012
     96  CZ2      172.8900   34.5590   22.1200 C.ar  220  TRP220      0.0191
     97  CZ3      173.5370   36.7590   22.8440 C.ar  220  TRP220      0.0001
     98  CH2      172.7040   35.6500   22.9220 C.ar  220  TRP220      0.0015
     99  N        177.8090   31.2130   17.4920 N.3   222  ASN222     -0.1240
    100  CA       176.8930   30.0840   17.3780 C.3   222  ASN222      0.1653
    101  C        177.5090   28.7860   16.8070 C.2   222  ASN222      0.2266
    102  O        176.8130   27.7810   16.6820 O.2   222  ASN222     -0.2867
    103  CB       175.6700   30.5290   16.5780 C.3   222  ASN222      0.1155
    104  CG       174.8230   31.5680   17.3260 C.2   222  ASN222      0.2627
    105  OD1      174.6140   31.4600   18.5350 O.2   222  ASN222     -0.2716
    106  ND2      174.3130   32.5630   16.6060 N.am  222  ASN222     -0.0877
    107  N        176.4350   26.0100   19.0040 N.3   225  ALA225     -0.1245
    108  CA       174.9990   25.9500   19.2390 C.3   225  ALA225      0.1562
    109  C        174.4590   24.6300   18.6760 C.2   225  ALA225      0.2260
    110  O        174.8610   24.2350   17.5940 O.2   225  ALA225     -0.2867
    111  CB       174.3060   27.1340   18.5720 C.3   225  ALA225      0.0290
    112  N        170.8450   23.9070   19.6570 N.3   227  ASP227     -0.1225
    113  CA       169.4360   24.0800   20.0090 C.3   227  ASP227      0.1805
    114  C        168.4620   24.0300   18.8010 C.2   227  ASP227      0.2597
    115  O        167.2550   23.8870   18.9850 O.2   227  ASP227     -0.2718
    116  CB       169.2470   25.3610   20.8570 C.3   227  ASP227      0.1424
    117  CG       169.3990   26.6860   20.0580 C.2   227  ASP227      0.3668
    118  OD1      170.0410   26.7040   18.9980 O.co2 227  ASP227     -0.2456
    119  OD2      168.9000   27.7400   20.5370 O.co2 227  ASP227     -0.2456
    120  N        169.0020   24.1170   17.5810 N.am  228  TYR228     -0.1976
    121  CA       168.2310   24.0470   16.3190 C.3   228  TYR228      0.1639
    122  C        167.9730   22.6130   15.7300 C.2   228  TYR228      0.2290
    123  O        167.2830   22.4590   14.7160 O.2   228  TYR228     -0.2864
    124  CB       168.8910   24.9550   15.2530 C.3   228  TYR228      0.0560
    125  CG       170.4070   24.8280   15.0430 C.ar  228  TYR228     -0.0198
    126  CD1      170.9580   23.7940   14.2810 C.ar  228  TYR228     -0.0009
    127  CD2      171.2890   25.7780   15.5730 C.ar  228  TYR228     -0.0009
    128  CE1      172.3400   23.6990   14.0790 C.ar  228  TYR228      0.0417
    129  CE2      172.6650   25.6860   15.3800 C.ar  228  TYR228      0.0417
    130  CZ       173.1900   24.6480   14.6280 C.ar  228  TYR228      0.1957
    131  OH       174.5650   24.5760   14.4350 O.3   228  TYR228     -0.2866
    132  N        178.2460   30.6630   22.2210 N.3   255  ASN255     -0.1240
    133  CA       176.9150   30.0980   22.5400 C.3   255  ASN255      0.1653
    134  C        176.9320   28.6120   22.1940 C.2   255  ASN255      0.2266
    135  O        176.8290   28.2490   21.0290 O.2   255  ASN255     -0.2867
    136  CB       175.8230   30.8120   21.7240 C.3   255  ASN255      0.1155
    137  CG       174.4180   30.3140   22.0400 C.2   255  ASN255      0.2627
    138  OD1      174.1230   29.8520   23.1560 O.2   255  ASN255     -0.2716
    139  ND2      173.5310   30.4280   21.0550 N.am  255  ASN255     -0.0877
@<TRIPOS>BOND
     1    78    79    1
     2    79    82    1
     3    79    80    1
     4    84    82    1
     5    82    83    1
     6    80    81    2
     7    59    60    1
     8    61    62    2
     9    61    60    1
    10    74    73    2
    11    73    72    1
    12    76    75    1
    13    60    63    1
    14   128   126   ar
    15   128   130   ar
    16   126   125   ar
    17   131   130    1
    18   130   129   ar
    19   123   122    2
    20    72    75    1
    21    72    71    1
    22    75    77    1
    23    70    69    1
    24   125   124    1
    25   125   127   ar
    26    69    67   ar
    27    69    68   ar
    28    67    65   ar
    29    68    66   ar
    30    65    64   ar
    31    66    64   ar
    32   124   121    1
    33    64    63    1
    34   129   127   ar
    35    51    50    2
    36   122   121    1
    37   121   120    1
    38    46    45    1
    39    46    47    1
    40    46    49    1
    41   103   104    1
    42   103   100    1
    43   106   104   am
    44    50    49    1
    45    50    52   am
    46   102   101    2
    47    45    39   am
    48   101   100    1
    49    47    48    2
    50   104   105    2
    51   100    99    1
    52   120   114   am
    53   110   109    2
    54    88    87    2
    55    39    38    1
    56    39    40    2
    57    38    41    1
    58    38    37    1
    59    41    42    1
    60   111   108    1
    61   109   108    1
    62    87    86    1
    63   114   115    2
    64   114   113    1
    65   118   117   ar
    66   107   108    1
    67    58    57    1
    68    85    86    1
    69    55    56    2
    70    55    54    1
    71    89    86    1
    72    89    90    1
    73    27    26    1
    74    91    90   ar
    75    91    93   ar
    76   112   113    1
    77    42    44   ar
    78    42    43   ar
    79    25    26   ar
    80    25    23   ar
    81   113   116    1
    82   117   119   ar
    83   117   116    1
    84    90    92   ar
    85    54    57    1
    86    54    53    1
    87    26    24   ar
    88    93    94   ar
    89    23    21   ar
    90   135   134    2
    91   139   137   am
    92    92    94   ar
    93    92    95   ar
    94    94    96   ar
    95    24    22   ar
    96    21    22   ar
    97    21    20    1
    98   136   137    1
    99   136   133    1
   100    35    36    1
   101    35    34    1
   102    95    97   ar
   103   137   138    2
   104    20    17    1
   105    96    98   ar
   106   134   133    1
   107   132   133    1
   108    97    98   ar
   109    34    33    1
   110    16    17    1
   111    16     7   am
   112     4     3    2
   113    17    18    1
   114    33    32    1
   115     6     9    1
   116     6     7    1
   117     6     5    1
   118     9    10    1
   119    19    18    2
   120     7     8    2
   121     3     5   am
   122     3     2    1
   123    32    29    1
   124     2     1    1
   125    10    12   ar
   126    10    11   ar
   127    12    14   ar
   128    29    28    1
   129    29    30    1
   130    11    13   ar
   131    31    30    2
   132    14    15   ar
   133    13    15   ar
