@<TRIPOS>MOLECULE
tmp/5vw9A01.pdb
 67 60 0 0 0
SMALL
GASTEIGER

@<TRIPOS>ATOM
      1  N         21.4270  -23.8050   13.8900 N.3    87  SER87      -0.1217
      2  CA        22.4830  -22.9000   14.3310 C.3    87  SER87       0.1889
      3  C         23.1980  -22.3190   13.1270 C.2    87  SER87       0.2288
      4  O         23.7130  -23.0560   12.2880 O.2    87  SER87      -0.2866
      5  CB        23.4900  -23.6480   15.1860 C.3    87  SER87       0.2089
      6  OG        22.8340  -24.3390   16.2000 O.3    87  SER87      -0.2183
      7  N         24.6080  -25.8920    8.9030 N.3   105  CYS105     -0.1235
      8  CA        25.3940  -27.1200    9.0090 C.3   105  CYS105      0.1677
      9  C         24.3850  -28.1620    9.4550 C.2   105  CYS105      0.2270
     10  O         24.0060  -28.1880   10.6310 O.2   105  CYS105     -0.2867
     11  CB        26.5320  -26.9520   10.0130 C.3   105  CYS105      0.0956
     12  SG        27.4800  -28.4380   10.3130 S.3   105  CYS105     -0.0801
     13  N         29.7450  -31.2300   19.7840 N.3   166  THR166     -0.1218
     14  CA        29.5810  -32.5220   19.1510 C.3   166  THR166      0.1862
     15  C         28.8200  -32.3270   17.8430 C.2   166  THR166      0.2287
     16  O         27.8200  -31.6000   17.7990 O.2   166  THR166     -0.2866
     17  CB        28.8230  -33.5110   20.0600 C.3   166  THR166      0.1770
     18  OG1       27.6770  -32.8590   20.6470 O.3   166  THR166     -0.2211
     19  CG2       29.7410  -34.0320   21.1650 C.3   166  THR166      0.0375
     20  N         27.1390  -31.3180   14.5550 N.3   168  THR168     -0.1203
     21  CA        26.7360  -30.0160   14.0240 C.3   168  THR168      0.1994
     22  C         26.7530  -28.9300   15.0780 C.2   168  THR168      0.2618
     23  O         26.5480  -27.7580   14.7390 O.2   168  THR168     -0.2717
     24  CB        25.3310  -30.1280   13.4160 C.3   168  THR168      0.1784
     25  OG1       24.4550  -30.7160   14.3890 O.3   168  THR168     -0.2211
     26  CG2       25.3730  -31.0310   12.1760 C.3   168  THR168      0.0376
     27  N         26.9570  -29.2850   16.3440 N.am  169  GLY169     -0.1956
     28  CA        27.1770  -28.2740   17.3560 C.3   169  GLY169      0.1869
     29  C         28.3830  -27.3930   17.0870 C.2   169  GLY169      0.2309
     30  O         28.5220  -26.3470   17.7310 O.2   169  GLY169     -0.2863
     31  N         28.7030  -25.5700   14.5840 N.3   171  ALA171     -0.1245
     32  CA        28.2390  -24.4330   13.7730 C.3   171  ALA171      0.1562
     33  C         28.5420  -23.0410   14.3420 C.2   171  ALA171      0.2260
     34  O         29.1760  -22.2340   13.6520 O.2   171  ALA171     -0.2867
     35  CB        26.7380  -24.5590   13.5280 C.3   171  ALA171      0.0290
     36  N         27.6340  -26.9940   22.6580 N.3   267  CYS267     -0.1221
     37  CA        26.6880  -26.9610   21.5600 C.3   267  CYS267      0.1808
     38  C         26.6590  -28.3080   20.8600 C.2   267  CYS267      0.2601
     39  O         27.6960  -28.9240   20.5930 O.2   267  CYS267     -0.2717
     40  CB        27.0260  -25.8330   20.5800 C.3   267  CYS267      0.0970
     41  SG        25.6830  -25.5130   19.3340 S.3   267  CYS267     -0.0800
     42  N         25.4470  -28.7580   20.5600 N.am  268  GLY268     -0.1957
     43  CA        25.2800  -30.0200   19.8930 C.3   268  GLY268      0.1869
     44  C         24.3520  -30.9570   20.6290 C.2   268  GLY268      0.2309
     45  O         23.2700  -30.5520   21.0540 O.2   268  GLY268     -0.2863
     46  N         23.7440  -24.5770   24.4920 N.3   307  GLU307     -0.1231
     47  CA        22.6120  -24.7350   23.5700 C.3   307  GLU307      0.1699
     48  C         22.7310  -26.1320   22.9630 C.2   307  GLU307      0.2592
     49  O         23.5030  -26.3570   22.0230 O.2   307  GLU307     -0.2718
     50  CB        22.5470  -23.6340   22.4960 C.3   307  GLU307      0.0402
     51  CG        21.0960  -23.3610   22.0380 C.3   307  GLU307      0.1161
     52  CD        20.8400  -21.9330   21.5790 C.2   307  GLU307      0.3649
     53  OE1       21.5550  -21.4510   20.6780 O.co2 307  GLU307     -0.2457
     54  OE2       19.9040  -21.2980   22.1100 O.co2 307  GLU307     -0.2457
     55  N         21.9850  -27.0790   23.5380 N.am  308  VAL308     -0.1966
     56  CA        22.0020  -28.4690   23.1040 C.3   308  VAL308      0.1727
     57  C         20.5690  -28.9660   22.9600 C.2   308  VAL308      0.2616
     58  O         19.6220  -28.3770   23.4870 O.2   308  VAL308     -0.2715
     59  CB        22.7740  -29.3730   24.0860 C.3   308  VAL308      0.0290
     60  CG1       24.2360  -28.9200   24.2340 C.3   308  VAL308      0.0023
     61  CG2       22.1040  -29.3780   25.4650 C.3   308  VAL308      0.0023
     62  N         20.4270  -30.0770   22.2430 N.am  309  SER309     -0.1950
     63  CA        19.1210  -30.7300   22.0820 C.3   309  SER309      0.1924
     64  C         19.2860  -32.1970   21.6920 C.2   309  SER309      0.2314
     65  O         20.3890  -32.6910   21.4230 O.2   309  SER309     -0.2863
     66  CB        18.2780  -30.0200   21.0270 C.3   309  SER309      0.2116
     67  OG        18.7880  -30.3130   19.7350 O.3   309  SER309     -0.2180
@<TRIPOS>BOND
     1     7     8    1
     2     8     9    1
     3     8    11    1
     4     9    10    2
     5    11    12    1
     6    26    24    1
     7     4     3    2
     8     3     2    1
     9    24    21    1
    10    24    25    1
    11    35    32    1
    12    34    33    2
    13    32    33    1
    14    32    31    1
    15     1     2    1
    16    21    20    1
    17    21    22    1
    18     2     5    1
    19    23    22    2
    20    22    27   am
    21     5     6    1
    22    27    28    1
    23    29    28    1
    24    29    30    2
    25    16    15    2
    26    15    14    1
    27    14    13    1
    28    14    17    1
    29    41    40    1
    30    67    66    1
    31    43    42    1
    32    43    44    1
    33    17    18    1
    34    17    19    1
    35    42    38   am
    36    40    37    1
    37    39    38    2
    38    44    45    2
    39    53    52   ar
    40    38    37    1
    41    66    63    1
    42    65    64    2
    43    37    36    1
    44    52    51    1
    45    52    54   ar
    46    64    63    1
    47    49    48    2
    48    51    50    1
    49    63    62    1
    50    62    57   am
    51    50    47    1
    52    57    56    1
    53    57    58    2
    54    48    55   am
    55    48    47    1
    56    56    55    1
    57    56    59    1
    58    47    46    1
    59    59    60    1
    60    59    61    1
