@<TRIPOS>MOLECULE
tmp/5vwbA01.pdb
 180 170 0 0 0
SMALL
GASTEIGER

@<TRIPOS>ATOM
      1  N         30.0870  -41.4840   21.2680 N.3    43  PRO43      -0.2116
      2  CA        31.3540  -42.2010   21.0880 C.3    43  PRO43       0.1372
      3  C         32.5200  -41.5520   21.8110 C.2    43  PRO43       0.2244
      4  O         33.5270  -42.2300   22.0490 O.2    43  PRO43      -0.2868
      5  CB        31.5550  -42.1880   19.5610 C.3    43  PRO43       0.0268
      6  CG        30.6740  -41.0660   19.0520 C.3    43  PRO43       0.0207
      7  CD        29.5010  -41.0580   19.9830 C.3    43  PRO43       0.0892
      8  N         32.6990  -34.4780   24.2020 N.3    46  THR46      -0.1218
      9  CA        32.8870  -33.1250   23.7200 C.3    46  THR46       0.1862
     10  C         32.5330  -32.2180   24.8820 C.2    46  THR46       0.2287
     11  O         31.4970  -32.4190   25.5230 O.2    46  THR46      -0.2866
     12  CB        32.0240  -32.8130   22.4900 C.3    46  THR46       0.1770
     13  OG1       32.4050  -33.6930   21.4150 O.3    46  THR46      -0.2211
     14  CG2       32.2340  -31.3770   22.0150 C.3    46  THR46       0.0375
     15  N         36.2460  -31.6260   21.2020 N.3   107  ARG107     -0.1231
     16  CA        36.1940  -33.0860   21.2340 C.3   107  ARG107      0.1694
     17  C         37.5260  -33.6580   21.7120 C.2   107  ARG107      0.2592
     18  O         38.5890  -33.3570   21.1450 O.2   107  ARG107     -0.2718
     19  CB        35.8390  -33.6210   19.8530 C.3   107  ARG107      0.0321
     20  CG        35.8960  -35.1350   19.7180 C.3   107  ARG107      0.0489
     21  CD        34.7440  -35.7950   20.4070 C.3   107  ARG107      0.2205
     22  NE        34.8330  -37.2520   20.2580 N.pl3 107  ARG107     -0.0865
     23  CZ        34.2510  -37.9430   19.2920 C.cat 107  ARG107      0.5346
     24  NH1       34.4100  -39.2660   19.2700 N.pl3 107  ARG107      0.1354
     25  NH2       33.5120  -37.3080   18.3620 N.pl3 107  ARG107      0.1354
     26  N         37.4620  -34.4830   22.7550 N.am  108  ARG108     -0.1966
     27  CA        38.6440  -35.2110   23.2130 C.3   108  ARG108      0.1729
     28  C         39.1410  -36.1450   22.1370 C.2   108  ARG108      0.2616
     29  O         38.4070  -37.0210   21.6710 O.2   108  ARG108     -0.2715
     30  CB        38.3190  -36.0560   24.4260 C.3   108  ARG108      0.0348
     31  CG        38.3390  -35.3690   25.7130 C.3   108  ARG108      0.0492
     32  CD        38.1460  -36.4500   26.7470 C.3   108  ARG108      0.2205
     33  NE        37.7940  -35.8430   28.0130 N.pl3 108  ARG108     -0.0865
     34  CZ        38.6680  -35.4530   28.9260 C.cat 108  ARG108      0.5346
     35  NH1       39.9720  -35.6160   28.7210 N.pl3 108  ARG108      0.1354
     36  NH2       38.2280  -34.9200   30.0630 N.pl3 108  ARG108      0.1354
     37  N         40.4010  -36.0140   21.7890 N.am  109  ALA109     -0.1963
     38  CA        41.0100  -36.9490   20.8600 C.3   109  ALA109      0.1728
     39  C         41.6890  -38.0580   21.6380 C.2   109  ALA109      0.2616
     40  O         42.6500  -37.8180   22.3730 O.2   109  ALA109     -0.2715
     41  CB        41.9840  -36.2340   19.9360 C.3   109  ALA109      0.0334
     42  N         41.2000  -39.2760   21.4520 N.am  110  VAL110     -0.1977
     43  CA        41.6370  -40.4430   22.2000 C.3   110  VAL110      0.1596
     44  C         42.0730  -41.5180   21.2120 C.2   110  VAL110      0.2287
     45  O         41.5000  -41.6510   20.1290 O.2   110  VAL110     -0.2864
     46  CB        40.5200  -40.9730   23.1080 C.3   110  VAL110      0.0276
     47  CG1       40.9680  -42.2100   23.8140 C.3   110  VAL110      0.0022
     48  CG2       40.1480  -39.8960   24.1150 C.3   110  VAL110      0.0022
     49  N         29.4710  -30.6520   10.9710 N.3   166  THR166     -0.1203
     50  CA        29.6340  -31.9640   11.5830 C.3   166  THR166      0.1994
     51  C         30.4140  -31.8170   12.8930 C.2   166  THR166      0.2618
     52  O         31.4160  -31.0940   12.9490 O.2   166  THR166     -0.2717
     53  CB        30.3320  -32.9280   10.6270 C.3   166  THR166      0.1784
     54  OG1       31.4630  -32.3030   10.0040 O.3   166  THR166     -0.2211
     55  CG2       29.3780  -33.3620    9.5360 C.3   166  THR166      0.0376
     56  N         29.9140  -32.4550   13.9540 N.am  167  GLY167     -0.1942
     57  CA        30.5370  -32.3870   15.2760 C.3   167  GLY167      0.2014
     58  C         30.8350  -30.9680   15.7640 C.2   167  GLY167      0.2639
     59  O         29.9920  -30.0560   15.7140 O.2   167  GLY167     -0.2714
     60  N         32.0590  -30.7830   16.2620 N.am  168  THR168     -0.1950
     61  CA        32.4950  -29.5010   16.7810 C.3   168  THR168      0.1897
     62  C         32.4640  -28.4160   15.7280 C.2   168  THR168      0.2313
     63  O         32.6030  -27.2340   16.0710 O.2   168  THR168     -0.2863
     64  CB        33.9090  -29.5930   17.3550 C.3   168  THR168      0.1794
     65  OG1       34.8080  -29.9900   16.3170 O.3   168  THR168     -0.2208
     66  CG2       33.9790  -30.6100   18.5010 C.3   168  THR168      0.0378
     67  N         25.3710  -32.6920   11.7560 N.3   199  GLY199     -0.1210
     68  CA        25.6390  -34.1150   11.7140 C.3   199  GLY199      0.1956
     69  C         26.4420  -34.5420   12.9190 C.2   199  GLY199      0.2612
     70  O         27.5400  -34.0210   13.1370 O.2   199  GLY199     -0.2717
     71  N         25.8820  -35.4510   13.7230 N.am  200  VAL200     -0.1965
     72  CA        26.5610  -36.0480   14.8610 C.3   200  VAL200      0.1727
     73  C         26.1700  -37.5200   14.9250 C.2   200  VAL200      0.2616
     74  O         25.2460  -37.9780   14.2490 O.2   200  VAL200     -0.2715
     75  CB        26.2210  -35.3510   16.2020 C.3   200  VAL200      0.0290
     76  CG1       26.5030  -33.8890   16.1260 C.3   200  VAL200      0.0023
     77  CG2       24.7840  -35.5710   16.5680 C.3   200  VAL200      0.0023
     78  N         26.8530  -38.2630   15.7990 N.am  201  ALA201     -0.1977
     79  CA        26.7650  -39.7180   15.7460 C.3   201  ALA201      0.1597
     80  C         25.3980  -40.2290   16.1780 C.2   201  ALA201      0.2287
     81  O         24.8580  -41.1680   15.5770 O.2   201  ALA201     -0.2864
     82  CB        27.8430  -40.3530   16.6340 C.3   201  ALA201      0.0319
     83  N         24.7990  -31.3700   20.1870 N.3   207  LEU207     -0.1245
     84  CA        25.5220  -30.2650   20.7970 C.3   207  LEU207      0.1561
     85  C         24.6480  -29.0230   20.7530 C.2   207  LEU207      0.2260
     86  O         24.2750  -28.5620   19.6740 O.2   207  LEU207     -0.2867
     87  CB        26.8490  -30.0140   20.0870 C.3   207  LEU207      0.0270
     88  CG        27.7530  -31.2270   19.8380 C.3   207  LEU207      0.0019
     89  CD1       28.9330  -30.8380   18.9730 C.3   207  LEU207      0.0001
     90  CD2       28.2720  -31.8370   21.1550 C.3   207  LEU207      0.0001
     91  N         21.3550  -34.9220   11.0730 N.3   228  ALA228     -0.1245
     92  CA        21.7560  -36.2130   10.5490 C.3   228  ALA228      0.1562
     93  C         22.4420  -36.9680   11.6890 C.2   228  ALA228      0.2260
     94  O         23.5890  -36.6580   12.0300 O.2   228  ALA228     -0.2867
     95  CB        22.6890  -36.0190    9.3550 C.3   228  ALA228      0.0290
     96  N         24.1630  -40.0890   12.4540 N.3   230  SER230     -0.1202
     97  CA        24.7280  -41.0620   11.5210 C.3   230  SER230      0.2020
     98  C         24.5370  -42.5000   11.9760 C.2   230  SER230      0.2618
     99  O         24.3670  -43.3840   11.1310 O.2   230  SER230     -0.2717
    100  CB        26.2200  -40.7750   11.3070 C.3   230  SER230      0.2103
    101  OG        26.9160  -40.8050   12.5410 O.3   230  SER230     -0.2182
    102  N         24.5410  -42.7670   13.2840 N.am  231  ARG231     -0.1979
    103  CA        24.4220  -44.1450   13.7600 C.3   231  ARG231      0.1597
    104  C         23.0260  -44.5060   14.2260 C.2   231  ARG231      0.2287
    105  O         22.8330  -45.6220   14.7360 O.2   231  ARG231     -0.2864
    106  CB        25.4190  -44.4100   14.8980 C.3   231  ARG231      0.0334
    107  CG        26.7960  -43.8550   14.5830 C.3   231  ARG231      0.0492
    108  CD        27.9000  -44.2650   15.5550 C.3   231  ARG231      0.2205
    109  NE        29.1640  -43.6870   15.1070 N.pl3 231  ARG231     -0.0865
    110  CZ        30.3380  -43.9030   15.6820 C.cat 231  ARG231      0.5346
    111  NH1       30.4370  -44.6910   16.7420 N.pl3 231  ARG231      0.1354
    112  NH2       31.4200  -43.3330   15.1850 N.pl3 231  ARG231      0.1354
    113  N         24.7730  -44.8350    6.2650 N.3   240  LYS240     -0.1245
    114  CA        24.6450  -43.9000    7.3760 C.3   240  LYS240      0.1561
    115  C         24.1500  -42.5440    6.8920 C.2   240  LYS240      0.2260
    116  O         24.6430  -42.0120    5.8910 O.2   240  LYS240     -0.2867
    117  CB        25.9930  -43.7190    8.0690 C.3   240  LYS240      0.0271
    118  CG        26.4360  -44.9100    8.9110 C.3   240  LYS240      0.0035
    119  CD        27.8620  -44.6600    9.4370 C.3   240  LYS240      0.0206
    120  CE        27.9820  -44.9960   10.9030 C.3   240  LYS240      0.1093
    121  NZ        29.3930  -45.0220   11.3470 N.3   240  LYS240     -0.1314
    122  N         24.2440  -38.9050    6.7130 N.3   242  TYR242     -0.1227
    123  CA        25.2260  -37.8500    6.8480 C.3   242  TYR242      0.1736
    124  C         24.6010  -36.5410    6.3840 C.2   242  TYR242      0.2595
    125  O         23.5430  -36.5370    5.7580 O.2   242  TYR242     -0.2718
    126  CB        26.4700  -38.1550    6.0220 C.3   242  TYR242      0.0548
    127  CG        27.4510  -39.1490    6.6280 C.ar  242  TYR242     -0.0200
    128  CD1       27.4450  -39.4460    7.9750 C.ar  242  TYR242     -0.0009
    129  CD2       28.4150  -39.7470    5.8430 C.ar  242  TYR242     -0.0009
    130  CE1       28.3730  -40.3260    8.5250 C.ar  242  TYR242      0.0417
    131  CE2       29.3400  -40.6310    6.3840 C.ar  242  TYR242      0.0417
    132  CZ        29.3180  -40.9110    7.7170 C.ar  242  TYR242      0.1957
    133  OH        30.2230  -41.8140    8.2400 O.3   242  TYR242     -0.2866
    134  N         25.2830  -35.4260    6.6720 N.am  243  VAL243     -0.1966
    135  CA        24.7410  -34.1090    6.3520 C.3   243  VAL243      0.1727
    136  C         24.5060  -33.9520    4.8520 C.2   243  VAL243      0.2616
    137  O         23.5720  -33.2490    4.4340 O.2   243  VAL243     -0.2715
    138  CB        25.6780  -33.0170    6.9180 C.3   243  VAL243      0.0290
    139  CG1       26.7890  -32.6510    5.9350 C.3   243  VAL243      0.0023
    140  CG2       24.8930  -31.7910    7.3340 C.3   243  VAL243      0.0023
    141  N         25.3380  -34.5940    4.0100 N.am  244  GLN244     -0.1977
    142  CA        25.1410  -34.4350    2.5700 C.3   244  GLN244      0.1601
    143  C         23.8370  -35.0770    2.1300 C.2   244  GLN244      0.2287
    144  O         23.2110  -34.6170    1.1700 O.2   244  GLN244     -0.2864
    145  CB        26.3150  -35.0080    1.7620 C.3   244  GLN244      0.0394
    146  CG        26.8390  -36.4160    2.1620 C.3   244  GLN244      0.0908
    147  CD        27.9300  -36.3670    3.2610 C.2   244  GLN244      0.2608
    148  OE1       27.8770  -35.5480    4.1740 O.2   244  GLN244     -0.2717
    149  NE2       28.9230  -37.2380    3.1470 N.am  244  GLN244     -0.0878
    150  N         34.4390  -31.7200    9.8260 N.3   269  LEU269     -0.1245
    151  CA        35.2910  -32.7490    9.2310 C.3   269  LEU269      0.1561
    152  C         35.6100  -32.4170    7.7900 C.2   269  LEU269      0.2260
    153  O         34.7050  -32.2760    6.9520 O.2   269  LEU269     -0.2867
    154  CB        34.6110  -34.1140    9.2720 C.3   269  LEU269      0.0270
    155  CG        34.1640  -34.7940   10.5700 C.3   269  LEU269      0.0019
    156  CD1       33.2590  -36.0210   10.2410 C.3   269  LEU269      0.0001
    157  CD2       35.3480  -35.2420   11.3040 C.3   269  LEU269      0.0001
    158  N         36.5170  -34.4590    5.7790 N.3   271  GLY271     -0.1210
    159  CA        36.0670  -35.6020    5.0050 C.3   271  GLY271      0.1956
    160  C         34.6300  -35.5300    4.5490 C.2   271  GLY271      0.2611
    161  O         34.1950  -36.3890    3.7680 O.2   271  GLY271     -0.2717
    162  N         33.8780  -34.5450    5.0210 N.am  272  MET272     -0.1979
    163  CA        32.5090  -34.3990    4.5540 C.3   272  MET272      0.1605
    164  C         32.4170  -33.6800    3.2140 C.2   272  MET272      0.2287
    165  O         31.3980  -33.8070    2.5280 O.2   272  MET272     -0.2864
    166  CB        31.6890  -33.6540    5.5950 C.3   272  MET272      0.0413
    167  CG        31.8890  -32.1550    5.6670 C.3   272  MET272      0.0598
    168  SD        30.7520  -31.4010    6.8530 S.3   272  MET272     -0.1393
    169  CE        31.3050  -29.7140    6.8430 C.3   272  MET272      0.0692
    170  N         38.5220  -29.3370    8.9320 N.3   309  PHE309     -0.1241
    171  CA        39.7830  -29.7020    9.5440 C.3   309  PHE309      0.1605
    172  C         39.7510  -31.1470    9.9570 C.2   309  PHE309      0.2264
    173  O         38.7110  -31.7860    9.8230 O.2   309  PHE309     -0.2867
    174  CB        40.0640  -28.7840   10.7350 C.3   309  PHE309      0.0534
    175  CG        38.9140  -28.6780   11.7060 C.ar  309  PHE309     -0.0203
    176  CD1       38.7170  -29.6410   12.6820 C.ar  309  PHE309     -0.0042
    177  CD2       38.0250  -27.6220   11.6270 C.ar  309  PHE309     -0.0042
    178  CE1       37.6480  -29.5380   13.5710 C.ar  309  PHE309     -0.0003
    179  CE2       36.9490  -27.5200   12.5060 C.ar  309  PHE309     -0.0003
    180  CZ        36.7650  -28.4830   13.4750 C.ar  309  PHE309     -0.0000
@<TRIPOS>BOND
     1   144   143    2
     2   145   146    1
     3   145   142    1
     4   143   142    1
     5   146   147    1
     6   165   164    2
     7   142   141    1
     8   149   147   am
     9   164   163    1
    10   147   148    2
    11   161   160    2
    12   141   136   am
    13   137   136    2
    14   160   159    1
    15   160   162   am
    16   163   162    1
    17   163   166    1
    18   136   135    1
    19   159   158    1
    20   166   167    1
    21   167   168    1
    22   125   124    2
    23   129   131   ar
    24   129   127   ar
    25   116   115    2
    26   139   138    1
    27   126   127    1
    28   126   123    1
    29   113   114    1
    30   135   134    1
    31   135   138    1
    32   131   132   ar
    33   124   134   am
    34   124   123    1
    35   127   128   ar
    36   122   123    1
    37   169   168    1
    38   115   114    1
    39   138   140    1
    40   153   152    2
    41   114   117    1
    42   132   133    1
    43   132   130   ar
    44   152   151    1
    45   128   130   ar
    46   117   118    1
    47   118   119    1
    48   170   171    1
    49   151   154    1
    50   151   150    1
    51   154   155    1
    52    95    92    1
    53   119   120    1
    54    55    53    1
    55   171   172    1
    56   171   174    1
    57   173   172    2
    58    54    53    1
    59   156   155    1
    60    92    91    1
    61    92    93    1
    62   155   157    1
    63    53    50    1
    64   174   175    1
    65   120   121    1
    66    49    50    1
    67    99    98    2
    68   100    97    1
    69   100   101    1
    70    97    98    1
    71    97    96    1
    72    50    51    1
    73   177   175   ar
    74   177   179   ar
    75    93    94    2
    76   175   176   ar
    77    68    67    1
    78    68    69    1
    79    98   102   am
    80   179   180   ar
    81   176   178   ar
    82    51    52    2
    83    51    56   am
    84    69    70    2
    85    69    71   am
    86   102   103    1
    87   180   178   ar
    88    71    72    1
    89   103   104    1
    90   103   106    1
    91    56    57    1
    92   104   105    2
    93    74    73    2
    94   107   106    1
    95   107   108    1
    96    72    73    1
    97    72    75    1
    98    73    78   am
    99   109   108    1
   100   109   110    2
   101   112   110    1
   102    57    58    1
   103    81    80    2
   104   110   111    1
   105    59    58    2
   106    62    63    2
   107    62    61    1
   108    79    78    1
   109    79    80    1
   110    79    82    1
   111    58    60   am
   112    76    75    1
   113    75    77    1
   114    60    61    1
   115    65    64    1
   116    61    64    1
   117    64    66    1
   118    25    23    1
   119    89    88    1
   120     6     5    1
   121     6     7    1
   122    24    23    1
   123    23    22    2
   124     5     2    1
   125    86    85    2
   126    20    19    1
   127    20    21    1
   128    88    87    1
   129    88    90    1
   130    19    16    1
   131    41    38    1
   132     7     1    1
   133    87    84    1
   134    45    44    2
   135    83    84    1
   136    22    21    1
   137    85    84    1
   138    38    39    1
   139    38    37    1
   140     2     1    1
   141     2     3    1
   142    18    17    2
   143    15    16    1
   144    44    43    1
   145    16    17    1
   146    13    12    1
   147    42    39   am
   148    42    43    1
   149    39    40    2
   150    29    28    2
   151    17    26   am
   152    37    28   am
   153     3     4    2
   154    14    12    1
   155    28    27    1
   156    43    46    1
   157    12     9    1
   158    26    27    1
   159    46    47    1
   160    46    48    1
   161    27    30    1
   162     9     8    1
   163     9    10    1
   164    30    31    1
   165    10    11    2
   166    31    32    1
   167    32    33    1
   168    33    34    2
   169    35    34    1
   170    34    36    1
