@<TRIPOS>MOLECULE
tmp/5vwmA00.pdb
 205 196 0 0 0
SMALL
GASTEIGER

@<TRIPOS>ATOM
      1  N         -6.8770   13.2880    5.2370 N.3    19  LEU19      -0.1231
      2  CA        -6.8760   13.2540    6.7030 C.3    19  LEU19       0.1693
      3  C         -5.9510   14.3180    7.2840 C.2    19  LEU19       0.2592
      4  O         -6.3260   15.0560    8.2080 O.2    19  LEU19      -0.2718
      5  CB        -6.4590   11.8660    7.2020 C.3    19  LEU19       0.0284
      6  CG        -6.1300   11.7810    8.7010 C.3    19  LEU19       0.0019
      7  CD1       -7.3300   12.1510    9.5950 C.3    19  LEU19       0.0001
      8  CD2       -5.6130   10.3880    9.0160 C.3    19  LEU19       0.0001
      9  N         -4.7440   14.4250    6.7450 N.am   20  HIS20      -0.1976
     10  CA        -3.7490   15.3070    7.3410 C.3    20  HIS20       0.1656
     11  C         -3.7770   16.7190    6.7710 C.2    20  HIS20       0.2291
     12  O         -3.6530   17.6970    7.5280 O.2    20  HIS20      -0.2864
     13  CB        -2.3660   14.6640    7.1960 C.3    20  HIS20       0.0771
     14  CG        -2.2200   13.4630    8.0710 C.ar   20  HIS20       0.0820
     15  ND1       -2.3310   13.5450    9.4430 N.ar   20  HIS20      -0.2267
     16  CD2       -2.0840   12.1480    7.7810 C.ar   20  HIS20       0.1154
     17  CE1       -2.2240   12.3350    9.9640 C.ar   20  HIS20       0.1986
     18  NE2       -2.0780   11.4680    8.9780 N.ar   20  HIS20      -0.2212
     19  N          3.6070    9.6770   10.1300 N.3    63  MET63      -0.1230
     20  CA         2.1440    9.6590   10.1970 C.3    63  MET63       0.1702
     21  C          1.5360    8.7070    9.1710 C.2    63  MET63       0.2593
     22  O          0.7460    7.8290    9.5360 O.2    63  MET63      -0.2718
     23  CB         1.5460   11.0640   10.0170 C.3    63  MET63       0.0401
     24  CG         2.0880   12.1020   10.9940 C.3    63  MET63       0.0596
     25  SD         1.8220   11.6430   12.7220 S.3    63  MET63      -0.1393
     26  CE         0.0430   11.8140   12.8350 C.3    63  MET63       0.0692
     27  N          1.8760    8.8610    7.8870 N.am   64  SER64      -0.1952
     28  CA         1.2940    8.0040    6.8540 C.3    64  SER64       0.1924
     29  C          2.3720    7.7000    5.8200 C.2    64  SER64       0.2314
     30  O          3.4950    8.2050    5.9050 O.2    64  SER64      -0.2863
     31  CB         0.0560    8.6620    6.2280 C.3    64  SER64       0.2116
     32  OG         0.4120    9.8270    5.4990 O.3    64  SER64      -0.2180
     33  N         -0.4720    9.5020    2.1200 N.3    76  THR76      -0.1218
     34  CA        -1.4520    8.6210    2.7640 C.3    76  THR76       0.1862
     35  C         -2.0520    7.6410    1.7540 C.2    76  THR76       0.2287
     36  O         -3.2630    7.5950    1.5150 O.2    76  THR76      -0.2866
     37  CB        -2.5440    9.4350    3.4740 C.3    76  THR76       0.1770
     38  OG1       -1.9340   10.4920    4.2220 O.3    76  THR76      -0.2211
     39  CG2       -3.3240    8.5540    4.4640 C.3    76  THR76       0.0375
     40  N         -1.8100    4.2890    2.0550 N.3    78  GLU78      -0.1231
     41  CA        -1.8330    2.9240    2.5760 C.3    78  GLU78       0.1699
     42  C         -3.2400    2.3210    2.6030 C.2    78  GLU78       0.2592
     43  O         -3.3940    1.1180    2.3690 O.2    78  GLU78      -0.2718
     44  CB        -1.1950    2.8790    3.9710 C.3    78  GLU78       0.0402
     45  CG        -1.7980    3.8300    5.0000 C.3    78  GLU78       0.1161
     46  CD        -1.0540    5.1630    5.1240 C.2    78  GLU78       0.3649
     47  OE1       -0.4020    5.5940    4.1450 O.co2  78  GLU78      -0.2457
     48  OE2       -1.1280    5.7740    6.2120 O.co2  78  GLU78      -0.2457
     49  N         -4.2770    3.1190    2.8850 N.am   79  HIS79      -0.1976
     50  CA        -5.6200    2.5400    2.9900 C.3    79  HIS79       0.1656
     51  C         -6.1750    2.1900    1.6190 C.2    79  HIS79       0.2291
     52  O         -6.8190    1.1440    1.4540 O.2    79  HIS79      -0.2864
     53  CB        -6.5730    3.4900    3.7160 C.3    79  HIS79       0.0771
     54  CG        -6.1090    3.8570    5.0870 C.ar   79  HIS79       0.0820
     55  ND1       -6.6340    4.9140    5.7970 N.ar   79  HIS79      -0.2267
     56  CD2       -5.1660    3.2990    5.8810 C.ar   79  HIS79       0.1154
     57  CE1       -6.0200    5.0030    6.9640 C.ar   79  HIS79       0.1986
     58  NE2       -5.1270    4.0330    7.0410 N.ar   79  HIS79      -0.2212
     59  N         -8.8580    4.0430   11.0680 N.3   191  THR191     -0.1203
     60  CA        -7.7080    4.6760   11.6860 C.3   191  THR191      0.1994
     61  C         -8.1050    5.3000   13.0230 C.2   191  THR191      0.2618
     62  O         -9.2870    5.4610   13.3420 O.2   191  THR191     -0.2717
     63  CB        -7.1200    5.7300   10.7480 C.3   191  THR191      0.1784
     64  OG1       -5.8110    6.1030   11.1980 O.3   191  THR191     -0.2211
     65  CG2       -8.0190    6.9660   10.6760 C.3   191  THR191      0.0376
     66  N         -7.0990    5.6210   13.8300 N.am  192  PHE192     -0.1961
     67  CA        -7.3890    6.1340   15.1560 C.3   192  PHE192      0.1771
     68  C         -6.3090    7.1090   15.5780 C.2   192  PHE192      0.2620
     69  O         -5.1590    7.0360   15.1280 O.2   192  PHE192     -0.2715
     70  CB        -7.5210    5.0140   16.2000 C.3   192  PHE192      0.0574
     71  CG        -6.3070    4.1230   16.3280 C.ar  192  PHE192     -0.0200
     72  CD1       -6.1150    3.0450   15.4660 C.ar  192  PHE192     -0.0042
     73  CD2       -5.3960    4.3200   17.3510 C.ar  192  PHE192     -0.0042
     74  CE1       -5.0090    2.2060   15.6170 C.ar  192  PHE192     -0.0003
     75  CE2       -4.2930    3.4850   17.5060 C.ar  192  PHE192     -0.0003
     76  CZ        -4.1070    2.4230   16.6400 C.ar  192  PHE192     -0.0000
     77  N         -6.7030    8.0280   16.4520 N.am  193  GLY193     -0.1940
     78  CA        -5.7670    8.9670   17.0270 C.3   193  GLY193      0.2014
     79  C         -6.2170    9.3210   18.4250 C.2   193  GLY193      0.2639
     80  O         -7.3160    8.9680   18.8620 O.2   193  GLY193     -0.2714
     81  N         -5.3520   10.0430   19.1220 N.am  194  PHE194     -0.1959
     82  CA        -5.5570   10.3610   20.5290 C.3   194  PHE194      0.1771
     83  C         -5.9320   11.8270   20.6890 C.2   194  PHE194      0.2619
     84  O         -5.2490   12.7060   20.1520 O.2   194  PHE194     -0.2715
     85  CB        -4.3050   10.0330   21.3380 C.3   194  PHE194      0.0574
     86  CG        -4.0470    8.5610   21.4330 C.ar  194  PHE194     -0.0200
     87  CD1       -3.3320    7.9020   20.4440 C.ar  194  PHE194     -0.0042
     88  CD2       -4.5760    7.8270   22.4810 C.ar  194  PHE194     -0.0042
     89  CE1       -3.1220    6.5260   20.5240 C.ar  194  PHE194     -0.0003
     90  CE2       -4.3620    6.4710   22.5790 C.ar  194  PHE194     -0.0003
     91  CZ        -3.6380    5.8130   21.5980 C.ar  194  PHE194     -0.0000
     92  N         -7.0170   12.0750   21.4280 N.am  195  MET195     -0.1977
     93  CA        -7.4860   13.4360   21.6790 C.3   195  MET195      0.1605
     94  C         -6.3710   14.3350   22.2010 C.2   195  MET195      0.2287
     95  O         -6.2620   15.5060   21.8110 O.2   195  MET195     -0.2864
     96  CB        -8.6510   13.3920   22.6750 C.3   195  MET195      0.0413
     97  CG        -9.2870   14.7390   22.9660 C.3   195  MET195      0.0598
     98  SD       -10.0990   15.4340   21.5140 S.3   195  MET195     -0.1393
     99  CE        -9.5040   17.1300   21.5670 C.3   195  MET195      0.0692
    100  N         -4.3110   16.1290   19.3680 N.3   198  ILE198     -0.1245
    101  CA        -4.9280   16.7480   18.1920 C.3   198  ILE198      0.1561
    102  C         -4.4660   18.1920   18.0140 C.2   198  ILE198      0.2260
    103  O         -4.1400   18.6140   16.8940 O.2   198  ILE198     -0.2867
    104  CB        -6.4620   16.6460   18.2740 C.3   198  ILE198      0.0252
    105  CG1       -6.8970   15.1980   18.0600 C.3   198  ILE198      0.0019
    106  CG2       -7.1200   17.5570   17.2410 C.3   198  ILE198      0.0019
    107  CD1       -8.4000   14.9720   18.1790 C.3   198  ILE198      0.0001
    108  N         -0.9230   18.0920   16.7130 N.3   201  LEU201     -0.1231
    109  CA        -0.8970   17.6790   15.3130 C.3   201  LEU201      0.1693
    110  C         -1.3300   18.8180   14.3980 C.2   201  LEU201      0.2591
    111  O         -0.6750   19.1070   13.3830 O.2   201  LEU201     -0.2718
    112  CB        -1.7900   16.4550   15.1150 C.3   201  LEU201      0.0284
    113  CG        -1.2210   15.1880   15.7730 C.3   201  LEU201      0.0019
    114  CD1       -2.1620   14.0150   15.5900 C.3   201  LEU201      0.0001
    115  CD2        0.1500   14.8780   15.2000 C.3   201  LEU201      0.0001
    116  N         -2.4240   19.4920   14.7510 N.am  202  ARG202     -0.1980
    117  CA        -2.9050   20.5920   13.9180 C.3   202  ARG202      0.1597
    118  C         -1.8660   21.7000   13.8120 C.2   202  ARG202      0.2287
    119  O         -1.7110   22.3130   12.7470 O.2   202  ARG202     -0.2864
    120  CB        -4.2160   21.1460   14.4680 C.3   202  ARG202      0.0334
    121  CG        -5.4270   20.2480   14.2110 C.3   202  ARG202      0.0492
    122  CD        -6.7410   20.9550   14.5720 C.3   202  ARG202      0.2205
    123  NE        -7.1210   21.9840   13.6010 N.pl3 202  ARG202     -0.0865
    124  CZ        -6.8610   23.2850   13.7370 C.cat 202  ARG202      0.5346
    125  NH1       -6.2130   23.7300   14.8070 N.pl3 202  ARG202      0.1354
    126  NH2       -7.2480   24.1450   12.8010 N.pl3 202  ARG202      0.1354
    127  N         -3.4660   16.0130   10.6880 N.3   207  ALA207     -0.1245
    128  CA        -4.8280   15.6690   11.1130 C.3   207  ALA207      0.1562
    129  C         -5.8180   16.8050   10.8760 C.2   207  ALA207      0.2260
    130  O         -6.8500   16.8960   11.5530 O.2   207  ALA207     -0.2867
    131  CB        -4.8580   15.2420   12.5880 C.3   207  ALA207      0.0290
    132  N         -9.2470   15.5790   10.1110 N.3   210  GLY210     -0.1210
    133  CA        -9.7770   14.5510   10.9850 C.3   210  GLY210      0.1956
    134  C        -11.1130   14.9450   11.5870 C.2   210  GLY210      0.2613
    135  O        -11.3970   16.1180   11.8300 O.2   210  GLY210     -0.2717
    136  N        -11.9460   13.9350   11.8170 N.am  211  SER211     -0.1938
    137  CA       -13.2260   14.1040   12.4920 C.3   211  SER211      0.2055
    138  C        -13.6370   12.7320   12.9950 C.2   211  SER211      0.2642
    139  O        -13.0680   11.7190   12.5950 O.2   211  SER211     -0.2714
    140  CB       -14.2950   14.6850   11.5680 C.3   211  SER211      0.2130
    141  OG       -14.8180   13.6790   10.7300 O.3   211  SER211     -0.2179
    142  N        -14.6400   12.7010   13.8760 N.am  212  VAL212     -0.1977
    143  CA       -15.1500   11.3990   14.3030 C.3   212  VAL212      0.1596
    144  C        -15.7980   10.6540   13.1550 C.2   212  VAL212      0.2287
    145  O        -16.0270    9.4420   13.2580 O.2   212  VAL212     -0.2864
    146  CB       -16.1370   11.5340   15.4780 C.3   212  VAL212      0.0276
    147  CG1      -15.4060   12.0690   16.7090 C.3   212  VAL212      0.0022
    148  CG2      -17.3220   12.4090   15.0940 C.3   212  VAL212      0.0022
    149  N        -12.3390    8.8540   11.8180 N.3   215  ALA215     -0.1245
    150  CA       -11.2960    8.3520   12.7010 C.3   215  ALA215      0.1562
    151  C        -11.9000    8.0320   14.0580 C.2   215  ALA215      0.2260
    152  O        -12.8360    8.7020   14.5080 O.2   215  ALA215     -0.2867
    153  CB       -10.1580    9.3730   12.8820 C.3   215  ALA215      0.0290
    154  N        -11.4000    8.5160   17.7620 N.3   217  VAL217     -0.1245
    155  CA       -10.6660    9.4500   18.6060 C.3   217  VAL217      0.1561
    156  C        -10.6450    8.8810   20.0090 C.2   217  VAL217      0.2260
    157  O        -11.6990    8.7170   20.6350 O.2   217  VAL217     -0.2867
    158  CB       -11.2980   10.8460   18.5920 C.3   217  VAL217      0.0252
    159  CG1      -10.4900   11.7830   19.4920 C.3   217  VAL217      0.0019
    160  CG2      -11.3690   11.3690   17.1560 C.3   217  VAL217      0.0019
    161  N        -14.1320    8.4710   22.1230 N.3   224  LEU224     -0.1245
    162  CA       -15.0630    9.5940   22.0040 C.3   224  LEU224      0.1561
    163  C        -16.2330    9.3100   21.0700 C.2   224  LEU224      0.2260
    164  O        -17.3380    9.8120   21.3130 O.2   224  LEU224     -0.2867
    165  CB       -14.3370   10.8500   21.5240 C.3   224  LEU224      0.0270
    166  CG       -13.4800   11.5110   22.6010 C.3   224  LEU224      0.0019
    167  CD1      -12.9150   12.8310   22.0840 C.3   224  LEU224      0.0001
    168  CD2      -14.2970   11.7230   23.8620 C.3   224  LEU224      0.0001
    169  N         -6.8350   -2.3680   12.3830 N.3   238  HIS238     -0.1226
    170  CA        -6.4550   -1.2930   11.4710 C.3   238  HIS238      0.1752
    171  C         -4.9570   -1.3210   11.1900 C.2   238  HIS238      0.2595
    172  O         -4.5230   -0.9920   10.0780 O.2   238  HIS238     -0.2718
    173  CB        -6.8470    0.0850   12.0040 C.3   238  HIS238      0.0759
    174  CG        -6.5180    1.1680   11.0260 C.ar  238  HIS238      0.0818
    175  ND1       -7.3130    1.4320    9.9340 N.ar  238  HIS238     -0.2268
    176  CD2       -5.4220    1.9540   10.8960 C.ar  238  HIS238      0.1154
    177  CE1       -6.7400    2.3620    9.1870 C.ar  238  HIS238      0.1986
    178  NE2       -5.5930    2.7000    9.7530 N.ar  238  HIS238     -0.2212
    179  N         -4.1500   -1.6910   12.1940 N.am  239  LYS239     -0.1980
    180  CA        -2.7120   -1.8500   11.9730 C.3   239  LYS239      0.1596
    181  C         -2.4390   -2.9440   10.9460 C.2   239  LYS239      0.2287
    182  O         -1.5200   -2.8250   10.1240 O.2   239  LYS239     -0.2864
    183  CB        -2.0100   -2.1650   13.2950 C.3   239  LYS239      0.0298
    184  CG        -1.9190   -0.9840   14.2740 C.3   239  LYS239      0.0038
    185  CD        -1.0070    0.1160   13.7130 C.3   239  LYS239      0.0206
    186  CE        -0.8960    1.2990   14.6620 C.3   239  LYS239      0.1093
    187  NZ         0.0260    2.3480   14.1370 N.3   239  LYS239     -0.1314
    188  N         -3.2030   -1.3750    7.5950 N.3   242  ASP242     -0.1239
    189  CA        -2.0530   -0.5520    7.2230 C.3   242  ASP242      0.1674
    190  C         -0.9170   -1.4110    6.6780 C.2   242  ASP242      0.2266
    191  O         -0.2790   -1.0590    5.6790 O.2   242  ASP242     -0.2867
    192  CB        -1.5450    0.2250    8.4410 C.3   242  ASP242      0.1410
    193  CG        -2.3320    1.4920    8.7370 C.2   242  ASP242      0.3668
    194  OD1       -3.1430    1.9650    7.9060 O.co2 242  ASP242     -0.2456
    195  OD2       -2.0950    2.0370    9.8400 O.co2 242  ASP242     -0.2456
    196  N          4.7700    2.7450    9.5230 N.3   265  HIS265     -0.1241
    197  CA         5.0170    2.8530    8.0850 C.3   265  HIS265      0.1621
    198  C          6.5040    2.8460    7.7750 C.2   265  HIS265      0.2264
    199  O          6.9300    2.2660    6.7690 O.2   265  HIS265     -0.2867
    200  CB         4.3570    4.1180    7.5370 C.3   265  HIS265      0.0745
    201  CG         2.9010    4.2070    7.8590 C.ar  265  HIS265      0.0817
    202  ND1        1.9900    3.2640    7.4360 N.ar  265  HIS265     -0.2268
    203  CD2        2.2050    5.0970    8.6030 C.ar  265  HIS265      0.1154
    204  CE1        0.7880    3.5870    7.8800 C.ar  265  HIS265      0.1986
    205  NE2        0.8940    4.6910    8.5960 N.ar  265  HIS265     -0.2212
@<TRIPOS>BOND
     1    52    51    2
     2    36    35    2
     3    51    50    1
     4    35    34    1
     5    40    41    1
     6    33    34    1
     7    43    42    2
     8    41    42    1
     9    41    44    1
    10    42    49   am
    11    34    37    1
    12    49    50    1
    13    50    53    1
    14    37    38    1
    15    37    39    1
    16    53    54    1
    17    44    45    1
    18    47    46   ar
    19    45    46    1
    20    54    55   ar
    21    54    56   ar
    22    46    48   ar
    23     1     2    1
    24    32    31    1
    25   191   190    2
    26    55    57   ar
    27    29    30    2
    28    29    28    1
    29    56    58   ar
    30    31    28    1
    31   190   189    1
    32     2     5    1
    33     2     3    1
    34     9     3   am
    35     9    10    1
    36   199   198    2
    37    11    10    1
    38    11    12    2
    39    28    27    1
    40    57    58   ar
    41    13    10    1
    42    13    14    1
    43     5     6    1
    44   189   188    1
    45   189   192    1
    46     3     4    2
    47   202   201   ar
    48   202   204   ar
    49   200   201    1
    50   200   197    1
    51   198   197    1
    52    16    14   ar
    53    16    18   ar
    54   201   203   ar
    55   204   205   ar
    56    27    21   am
    57   194   193   ar
    58    14    15   ar
    59   197   196    1
    60   192   193    1
    61   205   203   ar
    62     6     8    1
    63     6     7    1
    64   193   195   ar
    65    18    17   ar
    66    21    22    2
    67    21    20    1
    68   177   178   ar
    69   177   175   ar
    70    15    17   ar
    71   178   176   ar
    72   175   174   ar
    73    23    20    1
    74    23    24    1
    75   172   171    2
    76   132   133    1
    77   182   181    2
    78    19    20    1
    79    65    63    1
    80   127   128    1
    81   141   140    1
    82    63    64    1
    83    63    60    1
    84   129   128    1
    85   129   130    2
    86   176   174   ar
    87   181   180    1
    88   133   134    1
    89    24    25    1
    90   174   173    1
    91    59    60    1
    92   128   131    1
    93   171   170    1
    94   171   179   am
    95   170   173    1
    96   170   169    1
    97   140   137    1
    98   134   136   am
    99   134   135    2
   100    60    61    1
   101   136   137    1
   102   149   150    1
   103   180   179    1
   104   180   183    1
   105   137   138    1
   106   139   138    2
   107   150   153    1
   108   150   151    1
   109    25    26    1
   110   119   118    2
   111   126   124    1
   112   138   142   am
   113    61    62    2
   114    61    66   am
   115   144   145    2
   116   144   143    1
   117   183   184    1
   118   111   110    2
   119   123   124    2
   120   123   122    1
   121   185   184    1
   122   185   186    1
   123   124   125    1
   124   118   117    1
   125    66    67    1
   126   142   143    1
   127   117   120    1
   128   117   116    1
   129   151   152    2
   130   187   186    1
   131   121   120    1
   132   121   122    1
   133   143   146    1
   134   110   116   am
   135   110   109    1
   136   148   146    1
   137   112   109    1
   138   112   113    1
   139    69    68    2
   140    67    68    1
   141    67    70    1
   142   115   113    1
   143   109   108    1
   144    72    74   ar
   145    72    71   ar
   146   146   147    1
   147    68    77   am
   148   114   113    1
   149    74    76   ar
   150    70    71    1
   151    71    73   ar
   152    77    78    1
   153    76    75   ar
   154   103   102    2
   155    78    79    1
   156   160   158    1
   157   106   104    1
   158    73    75   ar
   159   154   155    1
   160   102   101    1
   161   105   107    1
   162   105   104    1
   163   101   104    1
   164   101   100    1
   165    79    80    2
   166    79    81   am
   167   158   155    1
   168   158   159    1
   169   155   156    1
   170    81    82    1
   171   156   157    2
   172    84    83    2
   173    87    89   ar
   174    87    86   ar
   175    89    91   ar
   176    82    83    1
   177    82    85    1
   178    83    92   am
   179   163   164    2
   180   163   162    1
   181    85    86    1
   182    92    93    1
   183    86    88   ar
   184    98    99    1
   185    98    97    1
   186   165   162    1
   187   165   166    1
   188    91    90   ar
   189    93    94    1
   190    93    96    1
   191    95    94    2
   192   162   161    1
   193   167   166    1
   194    88    90   ar
   195   166   168    1
   196    96    97    1
