@<TRIPOS>MOLECULE
tmp/5vwoC00.pdb
 135 130 0 0 0
SMALL
GASTEIGER

@<TRIPOS>ATOM
      1  N         18.3590    0.4160   -0.5680 N.3    50  TYR50      -0.1241
      2  CA        18.9300    1.4750    0.2610 C.3    50  TYR50       0.1605
      3  C         18.5010    1.3470    1.7110 C.2    50  TYR50       0.2264
      4  O         18.3370    2.3460    2.4200 O.2    50  TYR50      -0.2867
      5  CB        18.5460    2.8480   -0.2870 C.3    50  TYR50       0.0534
      6  CG        19.1370    3.1390   -1.6500 C.ar   50  TYR50      -0.0201
      7  CD1       18.4580    2.7970   -2.8170 C.ar   50  TYR50      -0.0009
      8  CD2       20.3820    3.7490   -1.7690 C.ar   50  TYR50      -0.0009
      9  CE1       19.0090    3.0580   -4.0680 C.ar   50  TYR50       0.0417
     10  CE2       20.9330    4.0130   -3.0040 C.ar   50  TYR50       0.0417
     11  CZ        20.2470    3.6690   -4.1510 C.ar   50  TYR50       0.1957
     12  OH        20.8020    3.9440   -5.3850 O.3    50  TYR50      -0.2866
     13  N          8.1290   10.5300    3.1480 N.3   106  THR106     -0.1203
     14  CA         9.4420   10.1580    2.6500 C.3   106  THR106      0.1994
     15  C         10.5320   10.6670    3.5920 C.2   106  THR106      0.2618
     16  O         10.2690   11.4640    4.4890 O.2   106  THR106     -0.2717
     17  CB         9.6780   10.6930    1.2250 C.3   106  THR106      0.1784
     18  OG1        9.7220   12.1280    1.2480 O.3   106  THR106     -0.2211
     19  CG2        8.5570   10.2420    0.3020 C.3   106  THR106      0.0376
     20  N         11.7490   10.1670    3.4000 N.am  107  GLY107     -0.1942
     21  CA        12.8750   10.5450    4.2360 C.3   107  GLY107      0.2014
     22  C         13.1830   12.0210    4.1570 C.2   107  GLY107      0.2638
     23  O         13.4230   12.6750    5.1800 O.2   107  GLY107     -0.2714
     24  N         13.1800   12.5610    2.9450 N.am  108  VAL108     -0.1977
     25  CA        13.5360   13.9720    2.7850 C.3   108  VAL108      0.1596
     26  C         12.4860   14.8750    3.4650 C.2   108  VAL108      0.2287
     27  O         12.8040   15.9460    3.9660 O.2   108  VAL108     -0.2864
     28  CB        13.6910   14.3410    1.2940 C.3   108  VAL108      0.0276
     29  CG1       12.3280   14.3180    0.5640 C.3   108  VAL108      0.0022
     30  CG2       14.3730   15.6810    1.1510 C.3   108  VAL108      0.0022
     31  N         23.8590   12.9400    2.9250 N.3   142  PHE142     -0.1227
     32  CA        22.8120   12.7380    1.9320 C.3   142  PHE142      0.1736
     33  C         21.4910   12.6190    2.6780 C.2   142  PHE142      0.2595
     34  O         21.3350   11.7320    3.5080 O.2   142  PHE142     -0.2718
     35  CB        23.0640   11.4830    1.0920 C.3   142  PHE142      0.0547
     36  CG        24.1390   11.6440    0.0440 C.ar  142  PHE142     -0.0202
     37  CD1       25.4890   11.6090    0.3920 C.ar  142  PHE142     -0.0042
     38  CD2       23.8030   11.7950   -1.2940 C.ar  142  PHE142     -0.0042
     39  CE1       26.4770   11.7470   -0.5670 C.ar  142  PHE142     -0.0003
     40  CE2       24.7950   11.9300   -2.2710 C.ar  142  PHE142     -0.0003
     41  CZ        26.1350   11.9130   -1.9050 C.ar  142  PHE142     -0.0000
     42  N         20.5370   13.5100    2.4300 N.am  143  TRP143     -0.1962
     43  CA        19.2310   13.2700    3.0280 C.3   143  TRP143      0.1771
     44  C         18.0560   13.5670    2.0940 C.2   143  TRP143      0.2620
     45  O         16.9450   13.8120    2.5550 O.2   143  TRP143     -0.2715
     46  CB        19.0690   14.0500    4.3430 C.3   143  TRP143      0.0590
     47  CG        19.3070   15.5520    4.3130 C.ar  143  TRP143      0.0006
     48  CD1       20.5110   16.1920    4.3130 C.ar  143  TRP143      0.0946
     49  CD2       18.3070   16.5870    4.3620 C.ar  143  TRP143      0.0152
     50  NE1       20.3260   17.5540    4.3330 N.ar  143  TRP143     -0.2442
     51  CE2       18.9830   17.8220    4.3650 C.ar  143  TRP143      0.0810
     52  CE3       16.9070   16.5870    4.3840 C.ar  143  TRP143      0.0012
     53  CZ2       18.3090   19.0510    4.3910 C.ar  143  TRP143      0.0191
     54  CZ3       16.2350   17.8210    4.4190 C.ar  143  TRP143      0.0001
     55  CH2       16.9380   19.0240    4.4070 C.ar  143  TRP143      0.0015
     56  N         18.2970   13.4960    0.7920 N.am  144  GLY144     -0.1940
     57  CA        17.2260   13.6590   -0.1720 C.3   144  GLY144      0.2014
     58  C         17.5090   14.7160   -1.2150 C.2   144  GLY144      0.2638
     59  O         18.6010   15.2820   -1.2680 O.2   144  GLY144     -0.2714
     60  N         16.5080   15.0110   -2.0370 N.am  145  ARG145     -0.1977
     61  CA        16.7590   15.7700   -3.2580 C.3   145  ARG145      0.1597
     62  C         15.8460   16.9930   -3.4580 C.2   145  ARG145      0.2287
     63  O         15.7330   17.5010   -4.5700 O.2   145  ARG145     -0.2864
     64  CB        16.6350   14.8520   -4.4720 C.3   145  ARG145      0.0334
     65  CG        17.6200   13.6920   -4.4920 C.3   145  ARG145      0.0492
     66  CD        19.0510   14.1920   -4.5140 C.3   145  ARG145      0.2205
     67  NE        19.9750   13.0670   -4.6700 N.pl3 145  ARG145     -0.0865
     68  CZ        20.7690   12.8720   -5.7190 C.cat 145  ARG145      0.5346
     69  NH1       20.7940   13.7420   -6.7280 N.pl3 145  ARG145      0.1354
     70  NH2       21.5590   11.8020   -5.7450 N.pl3 145  ARG145      0.1354
     71  N         24.6270   16.3790   -6.9130 N.3   158  SER158     -0.1217
     72  CA        23.3460   16.6870   -6.2730 C.3   158  SER158      0.1889
     73  C         22.9010   18.1430   -6.4650 C.2   158  SER158      0.2288
     74  O         21.7040   18.4020   -6.6260 O.2   158  SER158     -0.2866
     75  CB        23.4020   16.3680   -4.7730 C.3   158  SER158      0.2089
     76  OG        23.3540   14.9640   -4.5480 O.3   158  SER158     -0.2183
     77  N         24.3390   12.1330   10.2830 N.3   195  GLU195     -0.1245
     78  CA        24.1390   10.6880   10.2340 C.3   195  GLU195      0.1567
     79  C         25.1480   10.0030   11.1490 C.2   195  GLU195      0.2260
     80  O         26.3270   10.3520   11.1270 O.2   195  GLU195     -0.2867
     81  CB        24.3020   10.1700    8.8040 C.3   195  GLU195      0.0388
     82  CG        23.3610   10.8360    7.7930 C.3   195  GLU195      0.1160
     83  CD        23.8740   10.7550    6.3620 C.2   195  GLU195      0.3649
     84  OE1       23.8750    9.6460    5.7780 O.co2 195  GLU195     -0.2457
     85  OE2       24.2730   11.8080    5.8190 O.co2 195  GLU195     -0.2457
     86  N         25.2360    7.0830    2.0360 N.3   200  GLU200     -0.1245
     87  CA        25.5020    7.2900    0.6110 C.3   200  GLU200      0.1567
     88  C         26.8980    7.8350    0.3470 C.2   200  GLU200      0.2260
     89  O         27.3890    7.7670   -0.7740 O.2   200  GLU200     -0.2867
     90  CB        24.4600    8.2270   -0.0070 C.3   200  GLU200      0.0388
     91  CG        23.0380    7.7040    0.1290 C.3   200  GLU200      0.1160
     92  CD        22.9150    6.2510   -0.3230 C.2   200  GLU200      0.3649
     93  OE1       23.3880    5.9300   -1.4430 O.co2 200  GLU200     -0.2457
     94  OE2       22.3670    5.4290    0.4530 O.co2 200  GLU200     -0.2457
     95  N         19.9870   11.7680   11.9430 N.3   228  ASP228     -0.1239
     96  CA        19.2970   11.1900   10.8050 C.3   228  ASP228      0.1674
     97  C         19.5590    9.6780   10.7720 C.2   228  ASP228      0.2266
     98  O         20.6160    9.2320   10.3310 O.2   228  ASP228     -0.2867
     99  CB        19.7500   11.8680    9.5110 C.3   228  ASP228      0.1410
    100  CG        19.0240   11.3460    8.2820 C.2   228  ASP228      0.3668
    101  OD1       18.2650   10.3520    8.3900 O.co2 228  ASP228     -0.2456
    102  OD2       19.2200   11.9260    7.1900 O.co2 228  ASP228     -0.2456
    103  N         17.5440    7.5050    9.1530 N.3   230  ILE230     -0.1231
    104  CA        16.6470    7.0120    8.1130 C.3   230  ILE230      0.1692
    105  C         17.2520    5.7920    7.4220 C.2   230  ILE230      0.2592
    106  O         16.5330    4.8820    7.0150 O.2   230  ILE230     -0.2718
    107  CB        16.3090    8.1360    7.0990 C.3   230  ILE230      0.0266
    108  CG1       15.3210    9.1170    7.7520 C.3   230  ILE230      0.0019
    109  CG2       15.7140    7.5830    5.8290 C.3   230  ILE230      0.0020
    110  CD1       15.2980   10.5090    7.1210 C.3   230  ILE230      0.0001
    111  N         18.5800    5.7430    7.3340 N.am  231  GLN231     -0.1966
    112  CA        19.2360    4.5590    6.7920 C.3   231  GLN231      0.1733
    113  C         19.8690    3.6870    7.8890 C.2   231  GLN231      0.2617
    114  O         19.8350    2.4680    7.8000 O.2   231  GLN231     -0.2715
    115  CB        20.2950    4.9530    5.7590 C.3   231  GLN231      0.0408
    116  CG        20.6900    3.7960    4.8770 C.3   231  GLN231      0.0908
    117  CD        21.6090    4.1940    3.7600 C.2   231  GLN231      0.2608
    118  OE1       22.5580    3.4770    3.4500 O.2   231  GLN231     -0.2717
    119  NE2       21.3460    5.3390    3.1450 N.am  231  GLN231     -0.0878
    120  N         20.4270    4.2990    8.9290 N.am  232  THR232     -0.1951
    121  CA        21.1440    3.5220    9.9440 C.3   232  THR232      0.1897
    122  C         20.2610    2.9280   11.0350 C.2   232  THR232      0.2313
    123  O         20.7110    2.0620   11.7780 O.2   232  THR232     -0.2863
    124  CB        22.2270    4.3600   10.6390 C.3   232  THR232      0.1794
    125  OG1       21.6200    5.4720   11.3170 O.3   232  THR232     -0.2208
    126  CG2       23.2530    4.8550    9.6100 C.3   232  THR232      0.0378
    127  N         12.5200    4.8710    5.4680 N.3   257  LYS257     -0.1245
    128  CA        12.9520    3.6760    4.6930 C.3   257  LYS257      0.1561
    129  C         12.3890    2.3720    5.2400 C.2   257  LYS257      0.2260
    130  O         11.2950    1.9800    4.8440 O.2   257  LYS257     -0.2867
    131  CB        14.4780    3.7060    4.5070 C.3   257  LYS257      0.0271
    132  CG        14.7910    4.7140    3.3930 C.3   257  LYS257      0.0035
    133  CD        16.2770    4.9880    3.0780 C.3   257  LYS257      0.0206
    134  CE        16.3960    6.3410    2.3510 C.3   257  LYS257      0.1093
    135  NZ        17.7500    6.6550    1.8310 N.3   257  LYS257     -0.1314
@<TRIPOS>BOND
     1    71    72    1
     2    69    68    1
     3    74    73    2
     4    73    72    1
     5    72    75    1
     6    70    68    1
     7    68    67    2
     8    12    11    1
     9    75    76    1
    10    67    66    1
    11    63    62    2
    12    66    65    1
    13    65    64    1
    14    64    61    1
    15    11     9   ar
    16    11    10   ar
    17     9     7   ar
    18    62    61    1
    19    61    60    1
    20    10     8   ar
    21     7     6   ar
    22    40    41   ar
    23    40    38   ar
    24    60    58   am
    25    41    39   ar
    26     8     6   ar
    27     6     5    1
    28    93    92   ar
    29    38    36   ar
    30    59    58    2
    31    58    57    1
    32    89    88    2
    33     1     2    1
    34    39    37   ar
    35    92    91    1
    36    92    94   ar
    37     5     2    1
    38    57    56    1
    39    90    91    1
    40    90    87    1
    41    36    37   ar
    42    36    35    1
    43     2     3    1
    44    19    17    1
    45    88    87    1
    46    29    28    1
    47    87    86    1
    48    56    44   am
    49    35    32    1
    50    30    28    1
    51    17    18    1
    52    17    14    1
    53    28    25    1
    54     3     4    2
    55   135   134    1
    56    32    33    1
    57    32    31    1
    58    44    45    2
    59    44    43    1
    60   134   133    1
    61    42    33   am
    62    42    43    1
    63    14    13    1
    64    14    15    1
    65    33    34    2
    66    25    24    1
    67    25    26    1
    68    24    22   am
    69    43    46    1
    70   133   132    1
    71   119   117   am
    72   132   131    1
    73    20    15   am
    74    20    21    1
    75   118   117    2
    76    26    27    2
    77    15    16    2
    78   117   116    1
    79    22    21    1
    80    22    23    2
    81    48    47   ar
    82    48    50   ar
    83    47    46    1
    84    47    49   ar
    85    50    51   ar
    86    49    51   ar
    87    49    52   ar
    88    51    53   ar
    89    52    54   ar
    90    53    55   ar
    91    55    54   ar
    92   131   128    1
    93   128   129    1
    94   128   127    1
    95   130   129    2
    96   116   115    1
    97   115   112    1
    98    84    83   ar
    99    85    83   ar
   100   109   107    1
   101    83    82    1
   102   112   111    1
   103   112   113    1
   104   106   105    2
   105   107   108    1
   106   107   104    1
   107   110   108    1
   108   102   100   ar
   109   111   105   am
   110   105   104    1
   111    82    81    1
   112   114   113    2
   113   113   120   am
   114   104   103    1
   115   100   101   ar
   116   100    99    1
   117    81    78    1
   118   120   121    1
   119    99    96    1
   120   126   124    1
   121   121   124    1
   122   121   122    1
   123    78    77    1
   124    78    79    1
   125    98    97    2
   126   124   125    1
   127    97    96    1
   128    96    95    1
   129   122   123    2
   130    80    79    2
