@<TRIPOS>MOLECULE
tmp/5vwtB01.pdb
 177 173 0 0 0
SMALL
GASTEIGER

@<TRIPOS>ATOM
      1  N         17.7150   96.9760  210.7730 N.3    63  ILE63      -0.1231
      2  CA        16.7960   96.2810  209.8760 C.3    63  ILE63       0.1692
      3  C         16.8370   94.7770  210.0660 C.2    63  ILE63       0.2592
      4  O         15.9590   94.0820  209.5310 O.2    63  ILE63      -0.2718
      5  CB        17.0590   96.6310  208.3910 C.3    63  ILE63       0.0266
      6  CG1       18.3760   96.0240  207.8720 C.3    63  ILE63       0.0019
      7  CG2       17.0190   98.1370  208.2090 C.3    63  ILE63       0.0020
      8  CD1       18.5100   95.9420  206.3400 C.3    63  ILE63       0.0001
      9  N         17.8280   94.2560  210.7980 N.am   64  PHE64      -0.1976
     10  CA        17.9550   92.8400  211.1060 C.3    64  PHE64       0.1639
     11  C         18.7520   92.6900  212.3940 C.2    64  PHE64       0.2290
     12  O         19.7160   93.4330  212.6100 O.2    64  PHE64      -0.2864
     13  CB        18.6440   92.1170  209.9390 C.3    64  PHE64       0.0560
     14  CG        18.8360   90.6410  210.1470 C.ar   64  PHE64      -0.0200
     15  CD1       17.8430   89.7370  209.7490 C.ar   64  PHE64      -0.0042
     16  CD2       20.0140   90.1400  210.6890 C.ar   64  PHE64      -0.0042
     17  CE1       17.9980   88.3520  209.9240 C.ar   64  PHE64      -0.0003
     18  CE2       20.1820   88.7640  210.8670 C.ar   64  PHE64      -0.0003
     19  CZ        19.1630   87.8680  210.4850 C.ar   64  PHE64      -0.0000
     20  N         20.9710   90.1820  214.8700 N.3    66  HIS66      -0.1241
     21  CA        21.7260   88.9320  214.7910 C.3    66  HIS66       0.1621
     22  C         21.7660   88.1540  216.0980 C.2    66  HIS66       0.2264
     23  O         22.2930   87.0400  216.1080 O.2    66  HIS66      -0.2867
     24  CB        23.1840   89.1830  214.3700 C.3    66  HIS66       0.0745
     25  CG        23.3530   89.7070  212.9800 C.ar   66  HIS66       0.0817
     26  ND1       23.3520   91.0520  212.6910 N.ar   66  HIS66      -0.2268
     27  CD2       23.5680   89.0700  211.8050 C.ar   66  HIS66       0.1154
     28  CE1       23.5450   91.2220  211.3960 C.ar   66  HIS66       0.1986
     29  NE2       23.6730   90.0350  210.8330 N.ar   66  HIS66      -0.2212
     30  N         11.5960   95.0000  205.0480 N.3    89  ARG89      -0.1231
     31  CA        13.0000   95.3290  204.8290 C.3    89  ARG89       0.1694
     32  C         13.2440   95.3840  203.3300 C.2    89  ARG89       0.2592
     33  O         12.9020   94.4410  202.6120 O.2    89  ARG89      -0.2718
     34  CB        13.8790   94.2750  205.4960 C.3    89  ARG89       0.0321
     35  CG        15.3770   94.4530  205.3910 C.3    89  ARG89       0.0489
     36  CD        16.0400   93.0790  205.5530 C.3    89  ARG89       0.2205
     37  NE        15.5540   92.4450  206.7780 N.pl3  89  ARG89      -0.0865
     38  CZ        15.3800   91.1360  206.9470 C.cat  89  ARG89       0.5346
     39  NH1       15.6530   90.2930  205.9480 N.pl3  89  ARG89       0.1354
     40  NH2       14.9170   90.6820  208.1170 N.pl3  89  ARG89       0.1354
     41  N         13.8060   96.4920  202.8550 N.am   90  ILE90      -0.1966
     42  CA        13.9680   96.7290  201.4240 C.3    90  ILE90       0.1727
     43  C         14.7240   98.0370  201.2180 C.2    90  ILE90       0.2616
     44  O         14.8260   98.8530  202.1380 O.2    90  ILE90      -0.2715
     45  CB        12.6030   96.7440  200.7100 C.3    90  ILE90       0.0290
     46  CG1       12.7980   96.4680  199.2040 C.3    90  ILE90       0.0022
     47  CG2       11.8140   98.0380  201.0630 C.3    90  ILE90       0.0023
     48  CD1       11.5160   96.1400  198.4380 C.3    90  ILE90       0.0001
     49  N         15.3510   98.2060  200.0570 N.am   91  SER91      -0.1950
     50  CA        15.9990   99.4650  199.7210 C.3    91  SER91       0.1924
     51  C         16.0070   99.6310  198.2040 C.2    91  SER91       0.2314
     52  O         15.7010   98.6950  197.4610 O.2    91  SER91      -0.2863
     53  CB        17.4060   99.5280  200.3080 C.3    91  SER91       0.2116
     54  OG        18.2370   98.4950  199.7900 O.3    91  SER91      -0.2180
     55  N         16.6900   96.5410  195.5660 N.3   102  TYR102     -0.1241
     56  CA        17.8380   95.8280  196.0960 C.3   102  TYR102      0.1605
     57  C         17.5800   94.3330  196.0410 C.2   102  TYR102      0.2264
     58  O         16.4610   93.8840  196.3190 O.2   102  TYR102     -0.2867
     59  CB        18.1040   96.2450  197.5400 C.3   102  TYR102      0.0534
     60  CG        19.2030   95.4910  198.2830 C.ar  102  TYR102     -0.0201
     61  CD1       18.8900   94.3160  198.9900 C.ar  102  TYR102     -0.0009
     62  CD2       20.5290   95.9630  198.3250 C.ar  102  TYR102     -0.0009
     63  CE1       19.8580   93.6050  199.6940 C.ar  102  TYR102      0.0417
     64  CE2       21.5160   95.2560  199.0360 C.ar  102  TYR102      0.0417
     65  CZ        21.1680   94.0690  199.7230 C.ar  102  TYR102      0.1957
     66  OH        22.1020   93.3270  200.4410 O.3   102  TYR102     -0.2866
     67  N         15.4700  102.7550  202.9900 N.3   302  TRP302     -0.1241
     68  CA        16.5850  103.6100  202.6260 C.3   302  TRP302      0.1605
     69  C         16.6570  103.6820  201.1080 C.2   302  TRP302      0.2264
     70  O         16.2170  102.7760  200.4000 O.2   302  TRP302     -0.2867
     71  CB        17.9330  103.0660  203.1430 C.3   302  TRP302      0.0550
     72  CG        18.2900  103.2870  204.6190 C.ar  302  TRP302      0.0003
     73  CD1       18.5270  102.3180  205.5570 C.ar  302  TRP302      0.0946
     74  CD2       18.4700  104.5450  205.3020 C.ar  302  TRP302      0.0152
     75  NE1       18.8220  102.8880  206.7790 N.ar  302  TRP302     -0.2442
     76  CE2       18.7810  104.2500  206.6540 C.ar  302  TRP302      0.0810
     77  CE3       18.3740  105.8900  204.9100 C.ar  302  TRP302      0.0012
     78  CZ2       19.0080  105.2510  207.6090 C.ar  302  TRP302      0.0191
     79  CZ3       18.6040  106.8740  205.8560 C.ar  302  TRP302      0.0001
     80  CH2       18.9150  106.5510  207.1910 C.ar  302  TRP302      0.0015
     81  N         19.4910  104.7770  197.9180 N.3   304  TYR304     -0.1241
     82  CA        20.9030  105.0110  197.6600 C.3   304  TYR304      0.1605
     83  C         21.0670  105.8370  196.3980 C.2   304  TYR304      0.2264
     84  O         20.3720  105.6130  195.4080 O.2   304  TYR304     -0.2867
     85  CB        21.6650  103.6860  197.5360 C.3   304  TYR304      0.0534
     86  CG        21.3820  102.7850  198.7050 C.ar  304  TYR304     -0.0201
     87  CD1       21.8190  103.1260  199.9720 C.ar  304  TYR304     -0.0009
     88  CD2       20.6680  101.6060  198.5480 C.ar  304  TYR304     -0.0009
     89  CE1       21.5520  102.3300  201.0530 C.ar  304  TYR304      0.0417
     90  CE2       20.4130  100.7840  199.6310 C.ar  304  TYR304      0.0417
     91  CZ        20.8570  101.1550  200.8830 C.ar  304  TYR304      0.1957
     92  OH        20.6150  100.3750  201.9890 O.3   304  TYR304     -0.2866
     93  N         22.6150  108.5710  200.9470 N.3   314  ARG314     -0.1245
     94  CA        21.3800  107.8590  201.2240 C.3   314  ARG314      0.1563
     95  C         20.3260  108.8150  201.7630 C.2   314  ARG314      0.2260
     96  O         20.6270  109.8130  202.4240 O.2   314  ARG314     -0.2867
     97  CB        21.5790  106.6820  202.1960 C.3   314  ARG314      0.0307
     98  CG        21.6380  107.0020  203.6610 C.3   314  ARG314      0.0489
     99  CD        21.8640  105.7090  204.4410 C.3   314  ARG314      0.2205
    100  NE        22.1940  105.9630  205.8390 N.pl3 314  ARG314     -0.0865
    101  CZ        22.3040  105.0270  206.7740 C.cat 314  ARG314      0.5346
    102  NH1       22.1180  103.7550  206.4660 N.pl3 314  ARG314      0.1354
    103  NH2       22.5790  105.3760  208.0240 N.pl3 314  ARG314      0.1354
    104  N         31.5320  107.9130  210.3880 N.3   406  TYR406     -0.1241
    105  CA        31.8160  106.5710  209.9460 C.3   406  TYR406      0.1605
    106  C         33.2850  106.2480  210.1870 C.2   406  TYR406      0.2264
    107  O         34.1550  107.0480  209.8130 O.2   406  TYR406     -0.2867
    108  CB        31.4860  106.4080  208.4630 C.3   406  TYR406      0.0534
    109  CG        30.0210  106.2960  208.1500 C.ar  406  TYR406     -0.0201
    110  CD1       29.1410  107.3270  208.4420 C.ar  406  TYR406     -0.0009
    111  CD2       29.5050  105.1370  207.5650 C.ar  406  TYR406     -0.0009
    112  CE1       27.7920  107.2140  208.1480 C.ar  406  TYR406      0.0417
    113  CE2       28.1530  105.0170  207.2710 C.ar  406  TYR406      0.0417
    114  CZ        27.3060  106.0610  207.5600 C.ar  406  TYR406      0.1957
    115  OH        25.9650  105.9650  207.2610 O.3   406  TYR406     -0.2866
    116  N         31.6190  101.4700  217.9070 N.3   434  ARG434     -0.1245
    117  CA        31.7330  101.9940  216.5450 C.3   434  ARG434      0.1563
    118  C         33.0040  102.8160  216.3590 C.2   434  ARG434      0.2260
    119  O         33.6710  102.7140  215.3220 O.2   434  ARG434     -0.2867
    120  CB        30.5060  102.8380  216.1950 C.3   434  ARG434      0.0307
    121  CG        30.5370  103.4280  214.7720 C.3   434  ARG434      0.0489
    122  CD        29.2890  104.2410  214.4980 C.3   434  ARG434      0.2205
    123  NE        29.2200  104.8390  213.1690 N.pl3 434  ARG434     -0.0865
    124  CZ        28.5840  104.2940  212.1420 C.cat 434  ARG434      0.5346
    125  NH1       27.9900  103.1160  212.2930 N.pl3 434  ARG434      0.1354
    126  NH2       28.5340  104.9150  210.9660 N.pl3 434  ARG434      0.1354
    127  N         33.6580   99.3630  211.1960 N.3   440  TYR440     -0.1227
    128  CA        32.3390   99.6790  210.6720 C.3   440  TYR440      0.1736
    129  C         31.4400   98.4530  210.6310 C.2   440  TYR440      0.2595
    130  O         30.2810   98.5080  211.0520 O.2   440  TYR440     -0.2718
    131  CB        32.4890  100.2700  209.2810 C.3   440  TYR440      0.0548
    132  CG        31.2110  100.3880  208.4980 C.ar  440  TYR440     -0.0200
    133  CD1       30.3170  101.4190  208.7570 C.ar  440  TYR440     -0.0009
    134  CD2       30.9150   99.5190  207.4580 C.ar  440  TYR440     -0.0009
    135  CE1       29.1630  101.5690  208.0330 C.ar  440  TYR440      0.0417
    136  CE2       29.7450   99.6630  206.7180 C.ar  440  TYR440      0.0417
    137  CZ        28.8730  100.6920  207.0170 C.ar  440  TYR440      0.1957
    138  OH        27.7020  100.8650  206.3020 O.3   440  TYR440     -0.2866
    139  N         31.9780   97.3210  210.1850 N.am  441  GLU441     -0.1979
    140  CA        31.1650   96.1370  209.9590 C.3   441  GLU441      0.1602
    141  C         30.5400   95.6100  211.2400 C.2   441  GLU441      0.2287
    142  O         29.5520   94.8690  211.1730 O.2   441  GLU441     -0.2864
    143  CB        32.0070   95.0500  209.2730 C.3   441  GLU441      0.0415
    144  CG        33.1570   94.5360  210.1180 C.3   441  GLU441      0.1163
    145  CD        34.4760   95.2820  209.8650 C.2   441  GLU441      0.3649
    146  OE1       34.4570   96.4920  209.5330 O.co2 441  GLU441     -0.2457
    147  OE2       35.5390   94.6480  210.0070 O.co2 441  GLU441     -0.2457
    148  N         29.5730   98.0460  213.4780 N.3   443  GLY443     -0.1210
    149  CA        29.3230   99.3770  213.9850 C.3   443  GLY443      0.1956
    150  C         27.8600   99.7720  213.9420 C.2   443  GLY443      0.2611
    151  O         27.5060  100.9250  214.2470 O.2   443  GLY443     -0.2717
    152  N         27.0020   98.8510  213.5030 N.am  444  ASN444     -0.1974
    153  CA        25.5890   99.1360  213.6060 C.3   444  ASN444      0.1688
    154  C         25.1090   98.7180  215.0030 C.2   444  ASN444      0.2292
    155  O         25.8800   98.2050  215.8180 O.2   444  ASN444     -0.2864
    156  CB        24.8350   98.4950  212.4460 C.3   444  ASN444      0.1181
    157  CG        25.1660   97.0470  212.2530 C.2   444  ASN444      0.2629
    158  OD1       25.8500   96.4270  213.0710 O.2   444  ASN444     -0.2716
    159  ND2       24.6110   96.4660  211.2020 N.am  444  ASN444     -0.0877
    160  N         25.3150   94.8900  216.5670 N.3   447  HIS447     -0.1241
    161  CA        26.7180   94.5370  216.7970 C.3   447  HIS447      0.1621
    162  C         27.3340   95.3730  217.9170 C.2   447  HIS447      0.2264
    163  O         28.0540   94.8480  218.7770 O.2   447  HIS447     -0.2867
    164  CB        27.5200   94.6940  215.5150 C.3   447  HIS447      0.0745
    165  CG        27.1510   93.7040  214.4580 C.ar  447  HIS447      0.0817
    166  ND1       26.8180   94.0730  213.1740 N.ar  447  HIS447     -0.2268
    167  CD2       27.0480   92.3540  214.4970 C.ar  447  HIS447      0.1154
    168  CE1       26.5450   92.9930  212.4610 C.ar  447  HIS447      0.1986
    169  NE2       26.6790   91.9350  213.2410 N.ar  447  HIS447     -0.2212
    170  N         27.7260   86.6800  212.0940 N.3   475  ASN475     -0.1240
    171  CA        26.7490   87.0540  211.0730 C.3   475  ASN475      0.1653
    172  C         26.1610   85.8530  210.3500 C.2   475  ASN475      0.2266
    173  O         25.0540   85.9500  209.8140 O.2   475  ASN475     -0.2867
    174  CB        27.3810   87.9780  210.0410 C.3   475  ASN475      0.1155
    175  CG        27.6630   89.3580  210.5850 C.2   475  ASN475      0.2627
    176  OD1       27.0420   89.8140  211.5510 O.2   475  ASN475     -0.2716
    177  ND2       28.6510   90.0130  209.9970 N.am  475  ASN475     -0.0877
@<TRIPOS>BOND
     1    84    83    2
     2    55    56    1
     3    57    56    1
     4    57    58    2
     5    56    59    1
     6    83    82    1
     7    52    51    2
     8    85    82    1
     9    85    86    1
    10    59    60    1
    11    82    81    1
    12    51    50    1
    13    60    62   ar
    14    60    61   ar
    15    62    64   ar
    16    48    46    1
    17    88    86   ar
    18    88    90   ar
    19    86    87   ar
    20    61    63   ar
    21    64    65   ar
    22    46    45    1
    23    90    91   ar
    24    63    65   ar
    25    50    49    1
    26    50    53    1
    27    65    66    1
    28    54    53    1
    29    87    89   ar
    30    49    43   am
    31    70    69    2
    32    45    47    1
    33    45    42    1
    34    91    89   ar
    35    91    92    1
    36    93    94    1
    37    69    68    1
    38    43    42    1
    39    43    44    2
    40    94    95    1
    41    94    97    1
    42    42    41    1
    43    95    96    2
    44    97    98    1
    45    33    32    2
    46    68    67    1
    47    68    71    1
    48    41    32   am
    49    71    72    1
    50    32    31    1
    51    98    99    1
    52    99   100    1
    53    72    74   ar
    54    72    73   ar
    55    31    30    1
    56    31    34    1
    57    77    74   ar
    58    77    79   ar
    59    74    76   ar
    60    35    34    1
    61    35    36    1
    62    36    37    1
    63    73    75   ar
    64   100   101    2
    65    79    80   ar
    66    39    38    1
    67   138   137    1
    68     8     6    1
    69   102   101    1
    70    76    75   ar
    71    76    78   ar
    72   136   137   ar
    73   136   134   ar
    74   101   103    1
    75    37    38    2
    76    38    40    1
    77   137   135   ar
    78    80    78   ar
    79   115   114    1
    80   113   114   ar
    81   113   111   ar
    82   134   132   ar
    83   114   112   ar
    84   111   109   ar
    85     6     5    1
    86   135   133   ar
    87   112   110   ar
    88   109   110   ar
    89   109   108    1
    90     7     5    1
    91     5     2    1
    92   108   105    1
    93   132   133   ar
    94   132   131    1
    95   143   140    1
    96   143   144    1
    97   131   128    1
    98     4     3    2
    99   146   145   ar
   100    15    17   ar
   101    15    14   ar
   102   107   106    2
   103   173   172    2
   104   145   147   ar
   105   145   144    1
   106     2     3    1
   107     2     1    1
   108    17    19   ar
   109    13    14    1
   110    13    10    1
   111   105   106    1
   112   105   104    1
   113   140   139    1
   114   140   141    1
   115   177   175   am
   116   174   175    1
   117   174   171    1
   118     3     9   am
   119    14    16   ar
   120   139   129   am
   121   172   171    1
   122    19    18   ar
   123   175   176    2
   124   129   128    1
   125   129   130    2
   126   128   127    1
   127    16    18   ar
   128     9    10    1
   129    29    28   ar
   130    29    27   ar
   131   126   124    1
   132   171   170    1
   133    10    11    1
   134   142   141    2
   135   159   157   am
   136    28    26   ar
   137    27    25   ar
   138   124   125    1
   139   124   123    2
   140   157   156    1
   141   157   158    2
   142    11    12    2
   143   156   153    1
   144   168   166   ar
   145   168   169   ar
   146    26    25   ar
   147    25    24    1
   148   123   122    1
   149   166   165   ar
   150   169   167   ar
   151   148   149    1
   152   152   153    1
   153   152   150   am
   154   153   154    1
   155   150   149    1
   156   150   151    2
   157    24    21    1
   158   165   167   ar
   159   165   164    1
   160   122   121    1
   161   121   120    1
   162    21    20    1
   163    21    22    1
   164   154   155    2
   165   119   118    2
   166   164   161    1
   167    22    23    2
   168   120   117    1
   169   118   117    1
   170   117   116    1
   171   160   161    1
   172   161   162    1
   173   162   163    2
