@<TRIPOS>MOLECULE
tmp/5vwtD01.pdb
 137 132 0 0 0
SMALL
GASTEIGER

@<TRIPOS>ATOM
      1  N         47.5170   67.2140  223.0430 N.3    61  PHE61      -0.1241
      2  CA        47.9150   68.5080  222.4920 C.3    61  PHE61       0.1605
      3  C         46.7540   69.4190  222.8220 C.2    61  PHE61       0.2264
      4  O         45.6170   69.1270  222.4300 O.2    61  PHE61      -0.2867
      5  CB        48.1500   68.4980  220.9810 C.3    61  PHE61       0.0534
      6  CG        48.3560   69.8810  220.3930 C.ar   61  PHE61      -0.0203
      7  CD1       47.2810   70.6200  219.9420 C.ar   61  PHE61      -0.0042
      8  CD2       49.6070   70.4430  220.2950 C.ar   61  PHE61      -0.0042
      9  CE1       47.4570   71.9040  219.3980 C.ar   61  PHE61      -0.0003
     10  CE2       49.7880   71.7140  219.7470 C.ar   61  PHE61      -0.0003
     11  CZ        48.7120   72.4460  219.3040 C.ar   61  PHE61      -0.0000
     12  N         44.3800   72.7570  223.0080 N.3    63  HIS63      -0.1241
     13  CA        43.8960   73.9050  222.2600 C.3    63  HIS63       0.1621
     14  C         43.3880   75.0010  223.1760 C.2    63  HIS63       0.2264
     15  O         43.0060   76.0760  222.6980 O.2    63  HIS63      -0.2867
     16  CB        42.7900   73.4740  221.3030 C.3    63  HIS63       0.0745
     17  CG        43.2650   72.5680  220.2190 C.ar   63  HIS63       0.0817
     18  ND1       43.3460   71.2010  220.3800 N.ar   63  HIS63      -0.2268
     19  CD2       43.6560   72.8230  218.9480 C.ar   63  HIS63       0.1154
     20  CE1       43.7900   70.6550  219.2610 C.ar   63  HIS63       0.1986
     21  NE2       43.9860   71.6170  218.3750 N.ar   63  HIS63      -0.2212
     22  N         57.3950   65.5480  219.3840 N.3    86  ARG86      -0.1245
     23  CA        56.3280   64.8470  218.6680 C.3    86  ARG86       0.1563
     24  C         56.9000   64.0260  217.5150 C.2    86  ARG86       0.2260
     25  O         56.9290   64.4950  216.3750 O.2    86  ARG86      -0.2867
     26  CB        55.2910   65.8510  218.1330 C.3    86  ARG86       0.0307
     27  CG        54.3080   66.3610  219.1910 C.3    86  ARG86       0.0489
     28  CD        53.0270   66.9240  218.5590 C.3    86  ARG86       0.2205
     29  NE        52.0750   65.8650  218.1910 N.pl3  86  ARG86      -0.0865
     30  CZ        51.2710   65.2580  219.0670 C.cat  86  ARG86       0.5346
     31  NH1       51.2850   65.6080  220.3490 N.pl3  86  ARG86       0.1354
     32  NH2       50.4420   64.2990  218.6540 N.pl3  86  ARG86       0.1354
     33  N         56.8060   60.6620  215.1570 N.3    88  SER88      -0.1217
     34  CA        56.0320   59.5500  214.6470 C.3    88  SER88       0.1889
     35  C         56.5300   59.1610  213.2690 C.2    88  SER88       0.2288
     36  O         57.0430   59.9970  212.5240 O.2    88  SER88      -0.2866
     37  CB        54.5620   59.9090  214.5550 C.3    88  SER88       0.2089
     38  OG        54.3810   60.9740  213.6630 O.3    88  SER88      -0.2183
     39  N         57.3410   61.1930  209.7110 N.3    99  TYR99      -0.1228
     40  CA        56.0720   61.8190  209.3690 C.3    99  TYR99       0.1721
     41  C         56.2830   63.3210  209.1710 C.2    99  TYR99       0.2437
     42  O         57.1040   63.9190  209.8590 O.2    99  TYR99      -0.2733
     43  CB        55.0430   61.5470  210.4620 C.3    99  TYR99       0.0547
     44  CG        53.6430   62.0030  210.1300 C.ar   99  TYR99      -0.0200
     45  CD1       52.7650   61.1370  209.4640 C.ar   99  TYR99      -0.0009
     46  CD2       53.1880   63.2800  210.4800 C.ar   99  TYR99      -0.0009
     47  CE1       51.4860   61.5280  209.1350 C.ar   99  TYR99       0.0417
     48  CE2       51.9010   63.6760  210.1690 C.ar   99  TYR99       0.0417
     49  CZ        51.0500   62.7970  209.4910 C.ar   99  TYR99       0.1957
     50  OH        49.7610   63.1790  209.1670 O.3    99  TYR99      -0.2866
     51  N         55.6120   64.0080  208.2360 N.am  100  PRO100     -0.2729
     52  CA        54.5700   63.5220  207.3230 C.3   100  PRO100      0.1401
     53  C         55.1030   62.7480  206.1150 C.2   100  PRO100      0.2269
     54  O         56.0480   63.1520  205.4590 O.2   100  PRO100     -0.2865
     55  CB        53.8840   64.8130  206.8810 C.3   100  PRO100      0.0296
     56  CG        54.9810   65.8310  206.9180 C.3   100  PRO100      0.0237
     57  CD        55.8630   65.4520  208.0710 C.3   100  PRO100      0.0939
     58  N         40.7760   73.2750  205.7710 N.3   177  ARG177     -0.1245
     59  CA        41.9830   73.3570  204.9530 C.3   177  ARG177      0.1563
     60  C         41.7280   72.7810  203.5570 C.2   177  ARG177      0.2260
     61  O         41.2540   71.6470  203.4230 O.2   177  ARG177     -0.2867
     62  CB        43.1370   72.6250  205.6430 C.3   177  ARG177      0.0307
     63  CG        43.3780   73.0800  207.0820 C.3   177  ARG177      0.0489
     64  CD        44.4850   72.2630  207.7130 C.3   177  ARG177      0.2205
     65  NE        44.1180   70.8540  207.7000 N.pl3 177  ARG177     -0.0865
     66  CZ        44.6400   69.9430  208.5020 C.cat 177  ARG177      0.5346
     67  NH1       45.5600   70.2910  209.3920 N.pl3 177  ARG177      0.1354
     68  NH2       44.2240   68.6910  208.4210 N.pl3 177  ARG177      0.1354
     69  N         58.0460   66.4120  211.4840 N.3   198  ASN198     -0.1240
     70  CA        57.4160   67.5910  212.0840 C.3   198  ASN198      0.1653
     71  C         57.6540   67.6600  213.6030 C.2   198  ASN198      0.2266
     72  O         56.7180   67.7610  214.4010 O.2   198  ASN198     -0.2867
     73  CB        55.9210   67.6150  211.7540 C.3   198  ASN198      0.1155
     74  CG        55.2310   66.2450  211.9170 C.2   198  ASN198      0.2627
     75  OD1       55.8540   65.2610  212.3150 O.2   198  ASN198     -0.2716
     76  ND2       53.9350   66.1900  211.6080 N.am  198  ASN198     -0.0877
     77  N         54.7750   57.3280  218.4890 N.3   308  TRP308     -0.1241
     78  CA        53.7730   56.4950  217.8380 C.3   308  TRP308      0.1605
     79  C         54.2230   56.1360  216.4230 C.2   308  TRP308      0.2264
     80  O         54.8940   56.9150  215.7500 O.2   308  TRP308     -0.2867
     81  CB        52.3830   57.1440  217.8260 C.3   308  TRP308      0.0550
     82  CG        52.3160   58.5450  217.3750 C.ar  308  TRP308      0.0003
     83  CD1       51.8030   58.9910  216.1990 C.ar  308  TRP308      0.0946
     84  CD2       52.7280   59.7090  218.1000 C.ar  308  TRP308      0.0152
     85  NE1       51.8730   60.3660  216.1340 N.ar  308  TRP308     -0.2442
     86  CE2       52.4420   60.8290  217.2900 C.ar  308  TRP308      0.0810
     87  CE3       53.3070   59.9140  219.3560 C.ar  308  TRP308      0.0012
     88  CZ2       52.7260   62.1250  217.6870 C.ar  308  TRP308      0.0191
     89  CZ3       53.5900   61.2070  219.7520 C.ar  308  TRP308      0.0001
     90  CH2       53.3030   62.2960  218.9160 C.ar  308  TRP308      0.0015
     91  N         52.8430   54.2630  212.6300 N.3   310  TYR310     -0.1241
     92  CA        51.6530   53.9510  211.8540 C.3   310  TYR310      0.1605
     93  C         51.9550   52.8220  210.8940 C.2   310  TYR310      0.2264
     94  O         53.0010   52.8280  210.2490 O.2   310  TYR310     -0.2867
     95  CB        51.1630   55.1520  211.0380 C.3   310  TYR310      0.0534
     96  CG        50.9260   56.4110  211.8190 C.ar  310  TYR310     -0.0201
     97  CD1       49.8560   56.5140  212.6870 C.ar  310  TYR310     -0.0009
     98  CD2       51.7790   57.5040  211.6880 C.ar  310  TYR310     -0.0009
     99  CE1       49.6350   57.6690  213.3900 C.ar  310  TYR310      0.0417
    100  CE2       51.5680   58.6730  212.3980 C.ar  310  TYR310      0.0417
    101  CZ        50.4930   58.7440  213.2480 C.ar  310  TYR310      0.1957
    102  OH        50.2650   59.8880  213.9760 O.3   310  TYR310     -0.2866
    103  N         36.2270   64.0430  215.7100 N.3   447  GLU447     -0.1245
    104  CA        37.1970   65.1250  215.5900 C.3   447  GLU447      0.1567
    105  C         37.2530   66.0280  216.8160 C.2   447  GLU447      0.2260
    106  O         38.2140   66.7900  216.9480 O.2   447  GLU447     -0.2867
    107  CB        36.8680   65.9720  214.3660 C.3   447  GLU447      0.0388
    108  CG        35.5470   66.7170  214.4900 C.3   447  GLU447      0.1160
    109  CD        34.3470   65.9560  213.9200 C.2   447  GLU447      0.3649
    110  OE1       34.2750   64.7090  214.0030 O.co2 447  GLU447     -0.2457
    111  OE2       33.4770   66.6270  213.3370 O.co2 447  GLU447     -0.2457
    112  N         39.1110   63.6210  221.3800 N.3   450  ASN450     -0.1240
    113  CA        40.2690   63.3690  222.2180 C.3   450  ASN450      0.1653
    114  C         40.1670   64.1940  223.5120 C.2   450  ASN450      0.2266
    115  O         39.1610   64.8610  223.7740 O.2   450  ASN450     -0.2867
    116  CB        41.5450   63.5860  221.4060 C.3   450  ASN450      0.1155
    117  CG        41.5670   64.8760  220.6830 C.2   450  ASN450      0.2627
    118  OD1       40.7410   65.7580  220.9180 O.2   450  ASN450     -0.2716
    119  ND2       42.5140   65.0070  219.7730 N.am  450  ASN450     -0.0877
    120  N         39.6520   68.2650  223.7180 N.3   453  HIS453     -0.1241
    121  CA        38.3310   68.5980  223.1960 C.3   453  HIS453      0.1621
    122  C         37.2220   68.0830  224.1110 C.2   453  HIS453      0.2264
    123  O         36.2930   68.8180  224.4560 O.2   453  HIS453     -0.2867
    124  CB        38.1580   68.0320  221.7890 C.3   453  HIS453      0.0745
    125  CG        39.0490   68.6550  220.7570 C.ar  453  HIS453      0.0817
    126  ND1       39.8800   67.9080  219.9470 N.ar  453  HIS453     -0.2268
    127  CD2       39.2210   69.9450  220.3820 C.ar  453  HIS453      0.1154
    128  CE1       40.5380   68.7130  219.1310 C.ar  453  HIS453      0.1986
    129  NE2       40.1560   69.9560  219.3730 N.ar  453  HIS453     -0.2212
    130  N         39.9340   74.8000  216.8080 N.3   481  ASN481     -0.1240
    131  CA        41.2470   74.2450  216.5120 C.3   481  ASN481      0.1653
    132  C         42.1550   75.2550  215.8230 C.2   481  ASN481      0.2266
    133  O         43.3790   75.1390  215.9210 O.2   481  ASN481     -0.2867
    134  CB        41.1200   72.9980  215.6330 C.3   481  ASN481      0.1155
    135  CG        40.5490   71.8110  216.3700 C.2   481  ASN481      0.2627
    136  OD1       40.6070   71.7170  217.5970 O.2   481  ASN481     -0.2716
    137  ND2       39.9720   70.8950  215.6160 N.am  481  ASN481     -0.0877
@<TRIPOS>BOND
     1    61    60    2
     2    60    59    1
     3    59    62    1
     4    59    58    1
     5    54    53    2
     6    62    63    1
     7    53    52    1
     8    55    56    1
     9    55    52    1
    10    56    57    1
    11    63    64    1
    12    52    51    1
    13    65    64    1
    14    65    66    2
    15    57    51    1
    16    51    41   am
    17    68    66    1
    18    66    67    1
    19    47    45   ar
    20    47    49   ar
    21    50    49    1
    22    41    40    1
    23    41    42    2
    24    40    39    1
    25    40    43    1
    26    45    44   ar
    27    49    48   ar
    28    44    43    1
    29    44    46   ar
    30    48    46   ar
    31    94    93    2
    32    93    92    1
    33    95    96    1
    34    95    92    1
    35    69    70    1
    36    76    74   am
    37    98    96   ar
    38    98   100   ar
    39    73    74    1
    40    73    70    1
    41    96    97   ar
    42    92    91    1
    43    74    75    2
    44    70    71    1
    45   100   101   ar
    46    36    35    2
    47    97    99   ar
    48   101    99   ar
    49   101   102    1
    50    35    34    1
    51   111   109   ar
    52    71    72    2
    53    38    37    1
    54   109   110   ar
    55   109   108    1
    56   107   108    1
    57   107   104    1
    58    37    34    1
    59    34    33    1
    60   104   103    1
    61   104   105    1
    62   137   135   am
    63   134   135    1
    64   134   131    1
    65    80    79    2
    66   132   133    2
    67   132   131    1
    68    85    83   ar
    69    85    86   ar
    70    83    82   ar
    71   135   136    2
    72    25    24    2
    73    79    78    1
    74   131   130    1
    75   105   106    2
    76    86    88   ar
    77    86    84   ar
    78    82    81    1
    79    82    84   ar
    80    24    23    1
    81    88    90   ar
    82    81    78    1
    83    78    77    1
    84    84    87   ar
    85    26    23    1
    86    26    27    1
    87    29    28    1
    88    29    30    2
    89    21    19   ar
    90    21    20   ar
    91    28    27    1
    92    32    30    1
    93    23    22    1
    94    90    89   ar
    95    19    17   ar
    96    30    31    1
    97   128   129   ar
    98   128   126   ar
    99    20    18   ar
   100    11     9   ar
   101    11    10   ar
   102    87    89   ar
   103   129   127   ar
   104     9     7   ar
   105    10     8   ar
   106   119   117   am
   107     7     6   ar
   108   126   125   ar
   109    17    18   ar
   110    17    16    1
   111     8     6   ar
   112   127   125   ar
   113     6     5    1
   114   117   118    2
   115   117   116    1
   116   125   124    1
   117     5     2    1
   118    16    13    1
   119   112   113    1
   120   116   113    1
   121   124   121    1
   122   113   114    1
   123    13    12    1
   124    13    14    1
   125     4     3    2
   126     2     3    1
   127     2     1    1
   128    15    14    2
   129   121   120    1
   130   121   122    1
   131   114   115    2
   132   122   123    2
