@<TRIPOS>MOLECULE
tmp/5vwuB01.pdb
 188 183 0 0 0
SMALL
GASTEIGER

@<TRIPOS>ATOM
      1  N         17.6080   97.2220  210.0010 N.3    63  ILE63      -0.1231
      2  CA        16.6670   96.5120  209.1450 C.3    63  ILE63       0.1692
      3  C         16.7120   95.0090  209.3820 C.2    63  ILE63       0.2592
      4  O         15.8000   94.3000  208.9250 O.2    63  ILE63      -0.2718
      5  CB        16.8830   96.8400  207.6490 C.3    63  ILE63       0.0266
      6  CG1       18.2610   96.3810  207.1590 C.3    63  ILE63       0.0019
      7  CG2       16.7130   98.3550  207.4280 C.3    63  ILE63       0.0020
      8  CD1       18.3810   96.2400  205.6160 C.3    63  ILE63       0.0001
      9  N         17.7640   94.5040  210.0380 N.am   64  PHE64      -0.1976
     10  CA        17.9180   93.1000  210.3940 C.3    64  PHE64       0.1639
     11  C         18.7130   93.0000  211.6880 C.2    64  PHE64       0.2290
     12  O         19.7240   93.6910  211.8340 O.2    64  PHE64      -0.2864
     13  CB        18.6220   92.3520  209.2590 C.3    64  PHE64       0.0560
     14  CG        18.7610   90.8840  209.4910 C.ar   64  PHE64      -0.0200
     15  CD1       17.8170   90.0000  208.9600 C.ar   64  PHE64      -0.0042
     16  CD2       19.8380   90.3680  210.2080 C.ar   64  PHE64      -0.0042
     17  CE1       17.9240   88.6120  209.1600 C.ar   64  PHE64      -0.0003
     18  CE2       19.9550   88.9990  210.4200 C.ar   64  PHE64      -0.0003
     19  CZ        18.9880   88.1180  209.8980 C.ar   64  PHE64      -0.0000
     20  N         20.8870   90.5210  214.2740 N.3    66  HIS66      -0.1241
     21  CA        21.6260   89.2620  214.2190 C.3    66  HIS66       0.1621
     22  C         21.6710   88.4900  215.5310 C.2    66  HIS66       0.2264
     23  O         22.2830   87.4190  215.5700 O.2    66  HIS66      -0.2867
     24  CB        23.0640   89.4940  213.7890 C.3    66  HIS66       0.0745
     25  CG        23.2190   90.0080  212.3980 C.ar   66  HIS66       0.0817
     26  ND1       23.2770   91.3500  212.1090 N.ar   66  HIS66      -0.2268
     27  CD2       23.3430   89.3600  211.2170 C.ar   66  HIS66       0.1154
     28  CE1       23.4460   91.5080  210.8090 C.ar   66  HIS66       0.1986
     29  NE2       23.4810   90.3170  210.2440 N.ar   66  HIS66      -0.2212
     30  N         11.5070   95.1310  204.2800 N.3    89  ARG89      -0.1231
     31  CA        12.9370   95.3890  204.1160 C.3    89  ARG89       0.1694
     32  C         13.2070   95.4780  202.6200 C.2    89  ARG89       0.2592
     33  O         13.2840   94.4710  201.9170 O.2    89  ARG89      -0.2718
     34  CB        13.7510   94.2930  204.7950 C.3    89  ARG89       0.0321
     35  CG        15.2140   94.5940  205.0290 C.3    89  ARG89       0.0489
     36  CD        15.9500   93.2840  205.2910 C.3    89  ARG89       0.2205
     37  NE        15.2940   92.5230  206.3620 N.pl3  89  ARG89      -0.0865
     38  CZ        15.2130   91.1900  206.4180 C.cat  89  ARG89       0.5346
     39  NH1       14.5950   90.6090  207.4460 N.pl3  89  ARG89       0.1354
     40  NH2       15.7290   90.4410  205.4430 N.pl3  89  ARG89       0.1354
     41  N         13.2210   96.7020  202.1080 N.am   90  ILE90      -0.1966
     42  CA        13.4080   96.9750  200.6900 C.3    90  ILE90       0.1727
     43  C         14.3730   98.1570  200.5680 C.2    90  ILE90       0.2616
     44  O         14.7120   98.8020  201.5590 O.2    90  ILE90      -0.2715
     45  CB        12.0340   97.2240  200.0020 C.3    90  ILE90       0.0290
     46  CG1       11.8200   96.3210  198.7460 C.3    90  ILE90       0.0022
     47  CG2       11.7390   98.7080  199.8110 C.3    90  ILE90       0.0023
     48  CD1       12.8860   96.3800  197.6730 C.3    90  ILE90       0.0001
     49  N         14.9290   98.3610  199.3730 N.am   91  SER91      -0.1950
     50  CA        15.6820   99.5830  199.0770 C.3    91  SER91       0.1924
     51  C         15.7030   99.7850  197.5640 C.2    91  SER91       0.2314
     52  O         15.4230   98.8610  196.7990 O.2    91  SER91      -0.2863
     53  CB        17.0950   99.5590  199.6680 C.3    91  SER91       0.2116
     54  OG        17.8940   98.5250  199.1370 O.3    91  SER91      -0.2180
     55  N         16.5100   96.7290  194.9500 N.3   102  TYR102     -0.1241
     56  CA        17.6170   95.9620  195.4760 C.3   102  TYR102      0.1605
     57  C         17.2930   94.4830  195.3670 C.2   102  TYR102      0.2264
     58  O         16.1490   94.0850  195.5890 O.2   102  TYR102     -0.2867
     59  CB        17.8690   96.3180  196.9450 C.3   102  TYR102      0.0534
     60  CG        18.8290   95.4050  197.6990 C.ar  102  TYR102     -0.0201
     61  CD1       20.1950   95.7010  197.8070 C.ar  102  TYR102     -0.0009
     62  CD2       18.3420   94.2470  198.3350 C.ar  102  TYR102     -0.0009
     63  CE1       21.0510   94.8500  198.5160 C.ar  102  TYR102      0.0417
     64  CE2       19.1750   93.3920  199.0330 C.ar  102  TYR102      0.0417
     65  CZ        20.5320   93.6860  199.1290 C.ar  102  TYR102      0.1957
     66  OH        21.3530   92.8050  199.8400 O.3   102  TYR102     -0.2866
     67  N         32.0090   85.6680  201.5420 N.3   180  ARG180     -0.1245
     68  CA        31.4090   85.2810  200.2700 C.3   180  ARG180      0.1563
     69  C         32.3970   85.5430  199.1320 C.2   180  ARG180      0.2260
     70  O         32.9550   86.6410  199.0130 O.2   180  ARG180     -0.2867
     71  CB        30.0900   86.0450  200.0440 C.3   180  ARG180      0.0307
     72  CG        29.1050   85.9250  201.2060 C.3   180  ARG180      0.0489
     73  CD        27.8700   86.7560  200.9370 C.3   180  ARG180      0.2205
     74  NE        28.2510   88.1500  200.7600 N.pl3 180  ARG180     -0.0865
     75  CZ        27.4250   89.1710  200.9110 C.cat 180  ARG180      0.5346
     76  NH1       26.1590   88.9560  201.2450 N.pl3 180  ARG180      0.1354
     77  NH2       27.8770   90.4020  200.7440 N.pl3 180  ARG180      0.1354
     78  N         15.2320  102.9570  202.3030 N.3   302  TRP302     -0.1241
     79  CA        16.3520  103.7970  201.9320 C.3   302  TRP302      0.1605
     80  C         16.4320  103.8640  200.4130 C.2   302  TRP302      0.2264
     81  O         16.0800  102.9150  199.7080 O.2   302  TRP302     -0.2867
     82  CB        17.6980  103.2270  202.4350 C.3   302  TRP302      0.0550
     83  CG        18.1180  103.4170  203.9080 C.ar  302  TRP302      0.0003
     84  CD1       18.4400  102.4250  204.8060 C.ar  302  TRP302      0.0946
     85  CD2       18.2870  104.6600  204.6240 C.ar  302  TRP302      0.0152
     86  NE1       18.7790  102.9690  206.0320 N.ar  302  TRP302     -0.2442
     87  CE2       18.6900  104.3330  205.9500 C.ar  302  TRP302      0.0810
     88  CE3       18.1210  106.0110  204.2820 C.ar  302  TRP302      0.0012
     89  CZ2       18.9330  105.3090  206.9220 C.ar  302  TRP302      0.0191
     90  CZ3       18.3650  106.9800  205.2520 C.ar  302  TRP302      0.0001
     91  CH2       18.7630  106.6210  206.5570 C.ar  302  TRP302      0.0015
     92  N         19.2890  104.9000  197.2740 N.3   304  TYR304     -0.1241
     93  CA        20.7100  105.1020  197.0180 C.3   304  TYR304      0.1605
     94  C         20.9060  105.9290  195.7590 C.2   304  TYR304      0.2264
     95  O         20.1570  105.7850  194.7990 O.2   304  TYR304     -0.2867
     96  CB        21.4400  103.7620  196.8600 C.3   304  TYR304      0.0534
     97  CG        21.2000  102.8690  198.0340 C.ar  304  TYR304     -0.0201
     98  CD1       21.6720  103.2270  199.2910 C.ar  304  TYR304     -0.0009
     99  CD2       20.4970  101.6760  197.8980 C.ar  304  TYR304     -0.0009
    100  CE1       21.4410  102.4430  200.3790 C.ar  304  TYR304      0.0417
    101  CE2       20.2740  100.8690  198.9890 C.ar  304  TYR304      0.0417
    102  CZ        20.7430  101.2640  200.2330 C.ar  304  TYR304      0.1957
    103  OH        20.5260  100.4960  201.3470 O.3   304  TYR304     -0.2866
    104  N         22.4160  108.7890  200.2360 N.3   314  ARG314     -0.1245
    105  CA        21.2050  108.0570  200.5310 C.3   314  ARG314      0.1563
    106  C         20.1450  108.9940  201.0990 C.2   314  ARG314      0.2260
    107  O         20.4470  109.9920  201.7610 O.2   314  ARG314     -0.2867
    108  CB        21.4750  106.8860  201.4770 C.3   314  ARG314      0.0307
    109  CG        21.6010  107.2330  202.9240 C.3   314  ARG314      0.0489
    110  CD        21.8700  105.9760  203.6950 C.3   314  ARG314      0.2205
    111  NE        22.0360  106.2250  205.1130 N.pl3 314  ARG314     -0.0865
    112  CZ        22.2250  105.2670  206.0050 C.cat 314  ARG314      0.5346
    113  NH1       22.2900  104.0130  205.6030 N.pl3 314  ARG314      0.1354
    114  NH2       22.3300  105.5770  207.2910 N.pl3 314  ARG314      0.1354
    115  N         31.4630  108.2010  209.6330 N.3   406  TYR406     -0.1241
    116  CA        31.7750  106.8510  209.2300 C.3   406  TYR406      0.1605
    117  C         33.2500  106.5370  209.4760 C.2   406  TYR406      0.2264
    118  O         34.1260  107.2870  209.0200 O.2   406  TYR406     -0.2867
    119  CB        31.4320  106.6580  207.7460 C.3   406  TYR406      0.0534
    120  CG        29.9670  106.5310  207.4510 C.ar  406  TYR406     -0.0201
    121  CD1       29.4590  105.3630  206.8970 C.ar  406  TYR406     -0.0009
    122  CD2       29.0800  107.5590  207.7250 C.ar  406  TYR406     -0.0009
    123  CE1       28.1210  105.2210  206.6150 C.ar  406  TYR406      0.0417
    124  CE2       27.7210  107.4200  207.4480 C.ar  406  TYR406      0.0417
    125  CZ        27.2560  106.2440  206.8880 C.ar  406  TYR406      0.1957
    126  OH        25.9230  106.0790  206.6020 O.3   406  TYR406     -0.2866
    127  N         31.5720  101.7440  217.2510 N.3   434  ARG434     -0.1245
    128  CA        31.6750  102.2870  215.8970 C.3   434  ARG434      0.1563
    129  C         32.9740  103.0480  215.7060 C.2   434  ARG434      0.2260
    130  O         33.6730  102.8700  214.6990 O.2   434  ARG434     -0.2867
    131  CB        30.5010  103.2110  215.5950 C.3   434  ARG434      0.0307
    132  CG        30.5090  103.7870  214.1680 C.3   434  ARG434      0.0489
    133  CD        29.2740  104.6140  213.9130 C.3   434  ARG434      0.2205
    134  NE        29.1720  105.1730  212.5650 N.pl3 434  ARG434     -0.0865
    135  CZ        28.5300  104.5770  211.5680 C.cat 434  ARG434      0.5346
    136  NH1       27.9680  103.3880  211.7700 N.pl3 434  ARG434      0.1354
    137  NH2       28.4500  105.1500  210.3740 N.pl3 434  ARG434      0.1354
    138  N         33.6360   99.6120  210.5310 N.3   440  TYR440     -0.1227
    139  CA        32.3120   99.9100  210.0010 C.3   440  TYR440      0.1736
    140  C         31.4100   98.6870  210.0040 C.2   440  TYR440      0.2595
    141  O         30.2660   98.7420  210.4680 O.2   440  TYR440     -0.2718
    142  CB        32.4390  100.4550  208.5870 C.3   440  TYR440      0.0548
    143  CG        31.1360  100.5850  207.8200 C.ar  440  TYR440     -0.0200
    144  CD1       30.2710  101.6450  208.0700 C.ar  440  TYR440     -0.0009
    145  CD2       30.8040   99.6970  206.7960 C.ar  440  TYR440     -0.0009
    146  CE1       29.1050  101.8140  207.3410 C.ar  440  TYR440      0.0417
    147  CE2       29.6410   99.8530  206.0610 C.ar  440  TYR440      0.0417
    148  CZ        28.7870  100.9120  206.3400 C.ar  440  TYR440      0.1957
    149  OH        27.6140  101.0750  205.6180 O.3   440  TYR440     -0.2866
    150  N         31.9310   97.5570  209.5240 N.am  441  GLU441     -0.1979
    151  CA        31.1080   96.3770  209.3310 C.3   441  GLU441      0.1602
    152  C         30.4660   95.9040  210.6220 C.2   441  GLU441      0.2287
    153  O         29.4450   95.2130  210.5710 O.2   441  GLU441     -0.2864
    154  CB        31.9470   95.2570  208.7110 C.3   441  GLU441      0.0415
    155  CG        33.1030   94.7970  209.5680 C.3   441  GLU441      0.1163
    156  CD        34.3840   95.5850  209.2980 C.2   441  GLU441      0.3649
    157  OE1       34.3110   96.8020  209.0410 O.co2 441  GLU441     -0.2457
    158  OE2       35.4690   94.9840  209.3680 O.co2 441  GLU441     -0.2457
    159  N         29.5930   98.3800  212.8830 N.3   443  GLY443     -0.1210
    160  CA        29.2890   99.6880  213.4110 C.3   443  GLY443      0.1956
    161  C         27.8280  100.0750  213.3840 C.2   443  GLY443      0.2611
    162  O         27.4750  101.1850  213.8120 O.2   443  GLY443     -0.2717
    163  N         26.9630   99.2130  212.8630 N.am  444  ASN444     -0.1974
    164  CA        25.5500   99.4910  213.0050 C.3   444  ASN444      0.1688
    165  C         25.0940   99.0750  214.4030 C.2   444  ASN444      0.2292
    166  O         25.8600   98.5240  215.2010 O.2   444  ASN444     -0.2864
    167  CB        24.7860   98.8290  211.8650 C.3   444  ASN444      0.1181
    168  CG        25.1280   97.3820  211.7000 C.2   444  ASN444      0.2629
    169  OD1       26.0310   96.8670  212.3620 O.2   444  ASN444     -0.2716
    170  ND2       24.4680   96.7290  210.7460 N.am  444  ASN444     -0.0877
    171  N         25.2390   95.0950  215.8680 N.3   447  HIS447     -0.1241
    172  CA        26.6340   94.7260  216.1110 C.3   447  HIS447      0.1621
    173  C         27.2520   95.5610  217.2330 C.2   447  HIS447      0.2264
    174  O         27.9600   95.0210  218.0970 O.2   447  HIS447     -0.2867
    175  CB        27.4650   94.8680  214.8350 C.3   447  HIS447      0.0745
    176  CG        27.1160   93.8750  213.7700 C.ar  447  HIS447      0.0817
    177  ND1       26.5730   94.2400  212.5550 N.ar  447  HIS447     -0.2268
    178  CD2       27.2340   92.5260  213.7400 C.ar  447  HIS447      0.1154
    179  CE1       26.3730   93.1580  211.8230 C.ar  447  HIS447      0.1986
    180  NE2       26.7640   92.1030  212.5190 N.ar  447  HIS447     -0.2212
    181  N         27.6020   86.9750  211.5510 N.3   475  ASN475     -0.1240
    182  CA        26.6150   87.3120  210.5250 C.3   475  ASN475      0.1653
    183  C         26.0540   86.0700  209.8440 C.2   475  ASN475      0.2266
    184  O         24.9050   86.0760  209.3870 O.2   475  ASN475     -0.2867
    185  CB        27.2260   88.2510  209.5000 C.3   475  ASN475      0.1155
    186  CG        27.4100   89.6530  210.0400 C.2   475  ASN475      0.2627
    187  OD1       26.8180   90.0370  211.0560 O.2   475  ASN475     -0.2716
    188  ND2       28.2610   90.4200  209.3790 N.am  475  ASN475     -0.0877
@<TRIPOS>BOND
     1    95    94    2
     2    55    56    1
     3    57    56    1
     4    57    58    2
     5    56    59    1
     6    94    93    1
     7    52    51    2
     8    96    93    1
     9    96    97    1
    10    59    60    1
    11    93    92    1
    12    51    50    1
    13    48    46    1
    14    60    61   ar
    15    60    62   ar
    16    61    63   ar
    17    99    97   ar
    18    99   101   ar
    19    97    98   ar
    20    62    64   ar
    21    63    65   ar
    22    46    45    1
    23   101   102   ar
    24    70    69    2
    25    64    65   ar
    26    50    49    1
    27    50    53    1
    28    65    66    1
    29    69    68    1
    30    54    53    1
    31    98   100   ar
    32    49    43   am
    33    81    80    2
    34    47    45    1
    35    45    42    1
    36    71    68    1
    37    71    72    1
    38   102   100   ar
    39   102   103    1
    40   104   105    1
    41    68    67    1
    42    80    79    1
    43   105   106    1
    44   105   108    1
    45    43    42    1
    46    43    44    2
    47    42    41    1
    48    77    75    1
    49    74    75    2
    50    74    73    1
    51    75    76    1
    52    73    72    1
    53   106   107    2
    54   108   109    1
    55    33    32    2
    56    79    78    1
    57    79    82    1
    58    41    32   am
    59    82    83    1
    60    32    31    1
    61   109   110    1
    62   110   111    1
    63    83    85   ar
    64    83    84   ar
    65    31    30    1
    66    31    34    1
    67    88    85   ar
    68    88    90   ar
    69    85    87   ar
    70    34    35    1
    71    84    86   ar
    72    35    36    1
    73   111   112    2
    74    90    91   ar
    75    36    37    1
    76    40    38    1
    77   113   112    1
    78     8     6    1
    79   149   148    1
    80    87    86   ar
    81    87    89   ar
    82   112   114    1
    83   147   148   ar
    84   147   145   ar
    85   148   146   ar
    86    37    38    2
    87    38    39    1
    88    91    89   ar
    89   126   125    1
    90   123   125   ar
    91   123   121   ar
    92   145   143   ar
    93   125   124   ar
    94   121   120   ar
    95     6     5    1
    96   146   144   ar
    97     7     5    1
    98   124   122   ar
    99   120   122   ar
   100   120   119    1
   101     5     2    1
   102   119   116    1
   103   143   144   ar
   104   143   142    1
   105   142   139    1
   106   154   151    1
   107   154   155    1
   108     4     3    2
   109    15    17   ar
   110    15    14   ar
   111   118   117    2
   112   157   156   ar
   113     2     3    1
   114     2     1    1
   115    17    19   ar
   116   116   117    1
   117   116   115    1
   118    13    14    1
   119    13    10    1
   120   156   158   ar
   121   156   155    1
   122   151   150    1
   123   151   152    1
   124   188   186   am
   125     3     9   am
   126   184   183    2
   127    14    16   ar
   128   185   186    1
   129   185   182    1
   130   150   140   am
   131   183   182    1
   132    19    18   ar
   133   139   140    1
   134   139   138    1
   135   140   141    2
   136     9    10    1
   137   186   187    2
   138    16    18   ar
   139    29    28   ar
   140    29    27   ar
   141   137   135    1
   142    10    11    1
   143   182   181    1
   144   153   152    2
   145   170   168   am
   146    28    26   ar
   147    27    25   ar
   148   135   136    1
   149   135   134    2
   150    11    12    2
   151   168   167    1
   152   168   169    2
   153   179   180   ar
   154   179   177   ar
   155   167   164    1
   156    26    25   ar
   157    25    24    1
   158   180   178   ar
   159   177   176   ar
   160   134   133    1
   161   163   164    1
   162   163   161   am
   163   159   160    1
   164   164   165    1
   165   161   160    1
   166   161   162    2
   167   178   176   ar
   168   176   175    1
   169    24    21    1
   170   133   132    1
   171   132   131    1
   172    21    20    1
   173    21    22    1
   174   165   166    2
   175   130   129    2
   176   175   172    1
   177    22    23    2
   178   131   128    1
   179   129   128    1
   180   171   172    1
   181   128   127    1
   182   172   173    1
   183   173   174    2
