@<TRIPOS>MOLECULE
tmp/5vwvA00.pdb
 92 88 0 0 0
SMALL
GASTEIGER

@<TRIPOS>ATOM
      1  N         14.8770   27.5280    5.9440 N.3    22  TYR22      -0.1241
      2  CA        14.7620   28.6340    5.0020 C.3    22  TYR22       0.1605
      3  C         14.4170   29.9280    5.7180 C.2    22  TYR22       0.2264
      4  O         15.0560   30.9630    5.5050 O.2    22  TYR22      -0.2867
      5  CB        13.6790   28.3060    3.9690 C.3    22  TYR22       0.0534
      6  CG        13.3710   29.4330    2.9990 C.ar   22  TYR22      -0.0201
      7  CD1       14.2480   29.7310    1.9610 C.ar   22  TYR22      -0.0009
      8  CD2       12.2160   30.1900    3.1240 C.ar   22  TYR22      -0.0009
      9  CE1       13.9720   30.7680    1.0590 C.ar   22  TYR22       0.0417
     10  CE2       11.9260   31.2320    2.2250 C.ar   22  TYR22       0.0417
     11  CZ        12.8100   31.5050    1.1960 C.ar   22  TYR22       0.1957
     12  OH        12.5360   32.5210    0.3070 O.3    22  TYR22      -0.2866
     13  N         16.8810   33.1000    5.9310 N.3    26  ARG26      -0.1245
     14  CA        16.4540   34.2870    5.2070 C.3    26  ARG26       0.1563
     15  C         16.3090   35.4710    6.1540 C.2    26  ARG26       0.2260
     16  O         16.7550   36.5840    5.8470 O.2    26  ARG26      -0.2867
     17  CB        15.1400   34.0210    4.4640 C.3    26  ARG26       0.0307
     18  CG        14.5910   35.2740    3.7810 C.3    26  ARG26       0.0489
     19  CD        13.5110   34.9700    2.7260 C.3    26  ARG26       0.2205
     20  NE        12.9210   36.2000    2.2290 N.pl3  26  ARG26      -0.0865
     21  CZ        12.0140   36.2550    1.2640 C.cat  26  ARG26       0.5346
     22  NH1       11.5200   37.4290    0.8810 N.pl3  26  ARG26       0.1354
     23  NH2       11.6200   35.1330    0.6750 N.pl3  26  ARG26       0.1354
     24  N         15.2490   38.5950   -3.6820 N.3    70  ASN70      -0.1240
     25  CA        14.0120   38.7480   -2.9210 C.3    70  ASN70       0.1653
     26  C         13.7880   40.1820   -2.4880 C.2    70  ASN70       0.2266
     27  O         12.6450   40.6500   -2.4090 O.2    70  ASN70      -0.2867
     28  CB        14.0550   37.8530   -1.6870 C.3    70  ASN70       0.1155
     29  CG        13.8530   36.4160   -2.0240 C.2    70  ASN70       0.2627
     30  OD1       13.2460   36.0930   -3.0440 O.2    70  ASN70      -0.2716
     31  ND2       14.3640   35.5300   -1.1730 N.am   70  ASN70      -0.0877
     32  N         11.6750   42.6120   -4.5010 N.3    73  TYR73      -0.1241
     33  CA        10.2270   42.4920   -4.4940 C.3    73  TYR73       0.1605
     34  C          9.6030   42.9670   -3.1920 C.2    73  TYR73       0.2264
     35  O          8.3800   42.9000   -3.0560 O.2    73  TYR73      -0.2867
     36  CB         9.8300   41.0400   -4.7790 C.3    73  TYR73       0.0534
     37  CG        10.4150   40.5310   -6.0840 C.ar   73  TYR73      -0.0201
     38  CD1       10.1170   41.1630   -7.2790 C.ar   73  TYR73      -0.0009
     39  CD2       11.2560   39.4220   -6.1180 C.ar   73  TYR73      -0.0009
     40  CE1       10.6410   40.7240   -8.4750 C.ar   73  TYR73       0.0417
     41  CE2       11.7870   38.9680   -7.3220 C.ar   73  TYR73       0.0417
     42  CZ        11.4720   39.6290   -8.4950 C.ar   73  TYR73       0.1957
     43  OH        11.9780   39.2070   -9.7030 O.3    73  TYR73      -0.2866
     44  N          5.4390   43.4600   -2.4390 N.3    77  PHE77      -0.1241
     45  CA         4.7350   42.5530   -1.5320 C.3    77  PHE77       0.1605
     46  C          4.2680   43.2680   -0.2790 C.2    77  PHE77       0.2264
     47  O          3.2150   42.9160    0.2680 O.2    77  PHE77      -0.2867
     48  CB         5.6050   41.3380   -1.1770 C.3    77  PHE77       0.0534
     49  CG         5.5420   40.2640   -2.2140 C.ar   77  PHE77      -0.0203
     50  CD1        4.4710   39.3810   -2.2470 C.ar   77  PHE77      -0.0042
     51  CD2        6.5230   40.1580   -3.1840 C.ar   77  PHE77      -0.0042
     52  CE1        4.3890   38.4020   -3.2340 C.ar   77  PHE77      -0.0003
     53  CE2        6.4490   39.1760   -4.1710 C.ar   77  PHE77      -0.0003
     54  CZ         5.3710   38.3020   -4.1960 C.ar   77  PHE77      -0.0000
     55  N          9.7880   27.1170   -4.7330 N.3   113  VAL113     -0.1231
     56  CA        10.5810   28.0650   -3.9530 C.3   113  VAL113      0.1692
     57  C          9.7700   29.3270   -3.6750 C.2   113  VAL113      0.2591
     58  O          9.8340   29.9000   -2.5820 O.2   113  VAL113     -0.2718
     59  CB        11.9060   28.3830   -4.6780 C.3   113  VAL113      0.0266
     60  CG1       12.6820   29.4730   -3.9400 C.3   113  VAL113      0.0020
     61  CG2       12.7700   27.1180   -4.8160 C.3   113  VAL113      0.0020
     62  N          8.9910   29.7790   -4.6570 N.am  114  ALA114     -0.1980
     63  CA         8.1470   30.9500   -4.4270 C.3   114  ALA114      0.1597
     64  C          7.0950   30.6820   -3.3540 C.2   114  ALA114      0.2287
     65  O          6.7170   31.5910   -2.6040 O.2   114  ALA114     -0.2864
     66  CB         7.4760   31.3740   -5.7340 C.3   114  ALA114      0.0319
     67  N          8.8900   31.2650   -0.1640 N.3   117  GLY117     -0.1210
     68  CA         9.0660   32.7000    0.0090 C.3   117  GLY117      0.1956
     69  C          7.7810   33.3830    0.4500 C.2   117  GLY117      0.2611
     70  O          7.7940   34.2740    1.3010 O.2   117  GLY117     -0.2717
     71  N          6.6520   32.9710   -0.1170 N.am  118  PHE118     -0.1976
     72  CA         5.3920   33.5680    0.3150 C.3   118  PHE118      0.1639
     73  C          5.0650   33.1840    1.7550 C.2   118  PHE118      0.2290
     74  O          4.6150   34.0290    2.5450 O.2   118  PHE118     -0.2864
     75  CB         4.2500   33.1540   -0.5980 C.3   118  PHE118      0.0560
     76  CG         2.9130   33.5980   -0.0730 C.ar  118  PHE118     -0.0200
     77  CD1        2.6140   34.9480    0.0090 C.ar  118  PHE118     -0.0042
     78  CD2        1.9960   32.6730    0.3890 C.ar  118  PHE118     -0.0042
     79  CE1        1.3940   35.3750    0.5270 C.ar  118  PHE118     -0.0003
     80  CE2        0.7690   33.0940    0.8970 C.ar  118  PHE118     -0.0003
     81  CZ         0.4840   34.4360    0.9660 C.ar  118  PHE118     -0.0000
     82  N          7.0140   35.5500    3.8730 N.3   121  ARG121     -0.1245
     83  CA         6.4680   36.9050    3.9180 C.3   121  ARG121      0.1563
     84  C          5.1700   36.9570    4.7110 C.2   121  ARG121      0.2260
     85  O          4.9010   37.9370    5.4250 O.2   121  ARG121     -0.2867
     86  CB         6.2430   37.4390    2.5010 C.3   121  ARG121      0.0307
     87  CG         7.5320   37.7270    1.7160 C.3   121  ARG121      0.0489
     88  CD         7.1880   38.4320    0.3910 C.3   121  ARG121      0.2205
     89  NE         8.3730   38.6520   -0.4380 N.pl3 121  ARG121     -0.0865
     90  CZ         9.1820   39.7000   -0.3240 C.cat 121  ARG121      0.5346
     91  NH1        8.9520   40.6290    0.5980 N.pl3 121  ARG121      0.1354
     92  NH2       10.2380   39.8120   -1.1250 N.pl3 121  ARG121      0.1354
@<TRIPOS>BOND
     1    43    42    1
     2    42    40   ar
     3    42    41   ar
     4    40    38   ar
     5    41    39   ar
     6    38    37   ar
     7    39    37   ar
     8    37    36    1
     9    66    63    1
    10    61    59    1
    11    36    33    1
    12    55    56    1
    13    59    56    1
    14    59    60    1
    15    62    63    1
    16    62    57   am
    17    32    33    1
    18    33    34    1
    19    63    64    1
    20    54    53   ar
    21    54    52   ar
    22    53    51   ar
    23    56    57    1
    24    24    25    1
    25    57    58    2
    26    64    65    2
    27    52    50   ar
    28    34    35    2
    29    51    49   ar
    30    30    29    2
    31    25    26    1
    32    25    28    1
    33    26    27    2
    34    44    45    1
    35    50    49   ar
    36    49    48    1
    37    29    28    1
    38    29    31   am
    39    45    48    1
    40    45    46    1
    41    92    90    1
    42    75    76    1
    43    75    72    1
    44    89    90    2
    45    89    88    1
    46    90    91    1
    47    46    47    2
    48    67    68    1
    49    71    72    1
    50    71    69   am
    51    76    77   ar
    52    76    78   ar
    53    77    79   ar
    54    68    69    1
    55    12    11    1
    56    72    73    1
    57    78    80   ar
    58    88    87    1
    59    69    70    2
    60    79    81   ar
    61    23    21    1
    62    22    21    1
    63    80    81   ar
    64     9    11   ar
    65     9     7   ar
    66    11    10   ar
    67    21    20    2
    68    87    86    1
    69    73    74    2
    70     7     6   ar
    71    10     8   ar
    72    20    19    1
    73    86    83    1
    74    19    18    1
    75     6     8   ar
    76     6     5    1
    77    18    17    1
    78    82    83    1
    79    83    84    1
    80     5     2    1
    81    17    14    1
    82    84    85    2
    83     2     3    1
    84     2     1    1
    85    14    13    1
    86    14    15    1
    87     4     3    2
    88    16    15    2
