@<TRIPOS>MOLECULE
tmp/5vwwA00.pdb
 100 95 0 0 0
SMALL
GASTEIGER

@<TRIPOS>ATOM
      1  N        -28.5130   14.3540   -9.1200 N.3    24  ARG24      -0.1245
      2  CA       -28.4510   13.1900   -8.2410 C.3    24  ARG24       0.1563
      3  C        -27.8230   13.5670   -6.9070 C.2    24  ARG24       0.2260
      4  O        -28.3500   13.2400   -5.8380 O.2    24  ARG24      -0.2867
      5  CB       -27.6670   12.0570   -8.9020 C.3    24  ARG24       0.0307
      6  CG       -28.4620   11.2350   -9.9070 C.3    24  ARG24       0.0489
      7  CD       -29.6330   10.4950   -9.2710 C.3    24  ARG24       0.2205
      8  NE       -29.2290    9.6820   -8.1270 N.pl3  24  ARG24      -0.0865
      9  CZ       -28.6530    8.4870   -8.2190 C.cat  24  ARG24       0.5346
     10  NH1      -28.3270    7.8220   -7.1190 N.pl3  24  ARG24       0.1354
     11  NH2      -28.3770    7.9680   -9.4090 N.pl3  24  ARG24       0.1354
     12  N        -33.5530    8.3200  -11.7380 N.3    48  GLY48      -0.1225
     13  CA       -32.4780    7.5760  -11.1030 C.3    48  GLY48       0.1811
     14  C        -32.5300    7.6160   -9.5880 C.2    48  GLY48       0.2280
     15  O        -32.1180    6.6620   -8.9230 O.2    48  GLY48      -0.2866
     16  N        -35.1620    4.9830   -8.4580 N.3    51  ILE51      -0.1231
     17  CA       -34.5820    3.6540   -8.5830 C.3    51  ILE51       0.1692
     18  C        -33.5320    3.4380   -7.5070 C.2    51  ILE51       0.2592
     19  O        -33.3700    2.3220   -6.9970 O.2    51  ILE51      -0.2718
     20  CB       -33.9960    3.4710   -9.9960 C.3    51  ILE51       0.0266
     21  CG1      -35.0840    3.6610  -11.0530 C.3    51  ILE51       0.0019
     22  CG2      -33.3570    2.1100  -10.1360 C.3    51  ILE51       0.0020
     23  CD1      -36.2680    2.7410  -10.8620 C.3    51  ILE51       0.0001
     24  N        -32.8300    4.5060   -7.1190 N.am   52  ASN52      -0.1974
     25  CA       -31.7870    4.3940   -6.1060 C.3    52  ASN52       0.1688
     26  C        -32.3810    4.1360   -4.7260 C.2    52  ASN52       0.2292
     27  O        -31.9730    3.1980   -4.0360 O.2    52  ASN52      -0.2864
     28  CB       -30.9260    5.6590   -6.1030 C.3    52  ASN52       0.1181
     29  CG       -29.7520    5.5670   -5.1460 C.2    52  ASN52       0.2629
     30  OD1      -28.6770    5.0940   -5.5110 O.2    52  ASN52      -0.2716
     31  ND2      -29.9540    6.0200   -3.9140 N.am   52  ASN52      -0.0877
     32  N        -33.2070    0.4200   -4.7090 N.3    55  TYR55      -0.1227
     33  CA       -32.2020   -0.6150   -4.9200 C.3    55  TYR55       0.1736
     34  C        -30.7870   -0.2020   -4.5320 C.2    55  TYR55       0.2595
     35  O        -29.8380   -0.9120   -4.8830 O.2    55  TYR55      -0.2718
     36  CB       -32.2150   -1.0700   -6.3830 C.3    55  TYR55       0.0548
     37  CG       -33.5640   -1.5500   -6.8650 C.ar   55  TYR55      -0.0200
     38  CD1      -34.1050   -2.7320   -6.3850 C.ar   55  TYR55      -0.0009
     39  CD2      -34.2780   -0.8450   -7.8250 C.ar   55  TYR55      -0.0009
     40  CE1      -35.3300   -3.1860   -6.8210 C.ar   55  TYR55       0.0417
     41  CE2      -35.5090   -1.2960   -8.2720 C.ar   55  TYR55       0.0417
     42  CZ       -36.0280   -2.4700   -7.7650 C.ar   55  TYR55       0.1957
     43  OH       -37.2500   -2.9370   -8.1970 O.3    55  TYR55      -0.2866
     44  N        -30.6050    0.9020   -3.8100 N.am   56  ASP56      -0.1974
     45  CA       -29.2460    1.3200   -3.4770 C.3    56  ASP56       0.1709
     46  C        -28.6110    0.3990   -2.4420 C.2    56  ASP56       0.2293
     47  O        -27.4410    0.0250   -2.5770 O.2    56  ASP56      -0.2864
     48  CB       -29.2440    2.7580   -2.9650 C.3    56  ASP56       0.1436
     49  CG       -27.8500    3.2850   -2.7150 C.2    56  ASP56       0.3671
     50  OD1      -26.9520    3.0160   -3.5440 O.co2  56  ASP56      -0.2456
     51  OD2      -27.6560    3.9680   -1.6850 O.co2  56  ASP56      -0.2456
     52  N        -26.7000   -2.5340   -3.7160 N.3    59  PHE59      -0.1241
     53  CA       -25.4800   -2.2190   -4.4520 C.3    59  PHE59       0.1605
     54  C        -24.3660   -1.7510   -3.5270 C.2    59  PHE59       0.2264
     55  O        -23.1860   -1.9340   -3.8440 O.2    59  PHE59      -0.2867
     56  CB       -25.7680   -1.1670   -5.5190 C.3    59  PHE59       0.0534
     57  CG       -26.3780   -1.7300   -6.7690 C.ar   59  PHE59      -0.0203
     58  CD1      -25.5760   -2.1790   -7.8030 C.ar   59  PHE59      -0.0042
     59  CD2      -27.7510   -1.8190   -6.9080 C.ar   59  PHE59      -0.0042
     60  CE1      -26.1340   -2.6990   -8.9550 C.ar   59  PHE59      -0.0003
     61  CE2      -28.3130   -2.3420   -8.0570 C.ar   59  PHE59      -0.0003
     62  CZ       -27.5030   -2.7820   -9.0800 C.ar   59  PHE59      -0.0000
     63  N        -30.5020    3.8610  -18.3450 N.3    95  VAL95      -0.1231
     64  CA       -30.6850    4.5540  -17.0700 C.3    95  VAL95       0.1692
     65  C        -29.9000    3.8580  -15.9660 C.2    95  VAL95       0.2591
     66  O        -29.2720    4.5120  -15.1250 O.2    95  VAL95      -0.2718
     67  CB       -32.1810    4.6490  -16.7180 C.3    95  VAL95       0.0266
     68  CG1      -32.3660    5.2260  -15.3240 C.3    95  VAL95       0.0020
     69  CG2      -32.9120    5.4970  -17.7390 C.3    95  VAL95       0.0020
     70  N        -29.9310    2.5220  -15.9410 N.am   96  ALA96      -0.1980
     71  CA       -29.1650    1.7830  -14.9410 C.3    96  ALA96       0.1597
     72  C        -27.6700    2.0430  -15.0820 C.2    96  ALA96       0.2287
     73  O        -26.9500    2.1330  -14.0810 O.2    96  ALA96      -0.2864
     74  CB       -29.4660    0.2890  -15.0550 C.3    96  ALA96       0.0319
     75  N        -26.8670    5.3200  -13.3720 N.3    99  GLY99      -0.1210
     76  CA       -26.9240    5.1370  -11.9310 C.3    99  GLY99       0.1956
     77  C        -25.7390    4.3660  -11.3850 C.2    99  GLY99       0.2611
     78  O        -25.2340    4.6700  -10.3020 O.2    99  GLY99      -0.2717
     79  N        -25.2780    3.3580  -12.1230 N.am  100  PHE100     -0.1976
     80  CA       -24.1170    2.6070  -11.6660 C.3   100  PHE100      0.1639
     81  C        -22.8430    3.4300  -11.7940 C.2   100  PHE100      0.2290
     82  O        -22.0060    3.4310  -10.8830 O.2   100  PHE100     -0.2864
     83  CB       -23.9950    1.2980  -12.4380 C.3   100  PHE100      0.0560
     84  CG       -22.7590    0.5280  -12.1100 C.ar  100  PHE100     -0.0200
     85  CD1      -22.6320   -0.1060  -10.8870 C.ar  100  PHE100     -0.0042
     86  CD2      -21.7300    0.4230  -13.0270 C.ar  100  PHE100     -0.0042
     87  CE1      -21.4940   -0.8190  -10.5790 C.ar  100  PHE100     -0.0003
     88  CE2      -20.5910   -0.2930  -12.7270 C.ar  100  PHE100     -0.0003
     89  CZ       -20.4730   -0.9160  -11.5000 C.ar  100  PHE100     -0.0000
     90  N        -22.7190    5.9000   -8.9150 N.3   103  ARG103     -0.1245
     91  CA       -22.4140    5.2700   -7.6340 C.3   103  ARG103      0.1563
     92  C        -20.9860    4.7420   -7.5950 C.2   103  ARG103      0.2260
     93  O        -20.3000    4.8730   -6.5740 O.2   103  ARG103     -0.2867
     94  CB       -23.4060    4.1460   -7.3450 C.3   103  ARG103      0.0307
     95  CG       -23.2030    3.4970   -5.9860 C.3   103  ARG103      0.0489
     96  CD       -23.2890    4.5310   -4.8760 C.3   103  ARG103      0.2205
     97  NE       -24.6080    5.1520   -4.8090 N.pl3 103  ARG103     -0.0865
     98  CZ       -24.8860    6.2360   -4.0950 C.cat 103  ARG103      0.5346
     99  NH1      -26.1150    6.7320   -4.0940 N.pl3 103  ARG103      0.1354
    100  NH2      -23.9310    6.8320   -3.3970 N.pl3 103  ARG103      0.1354
@<TRIPOS>BOND
     1    63    64    1
     2    69    67    1
     3    64    67    1
     4    64    65    1
     5    67    68    1
     6    65    70   am
     7    65    66    2
     8    70    71    1
     9    72    71    1
    10    72    73    2
    11    74    71    1
    12    75    76    1
    13    86    88   ar
    14    86    84   ar
    15    88    89   ar
    16    83    84    1
    17    83    80    1
    18    79    80    1
    19    79    77   am
    20    84    85   ar
    21    76    77    1
    22    81    80    1
    23    81    82    2
    24    12    13    1
    25    89    87   ar
    26    77    78    2
    27    13    14    1
    28    21    23    1
    29    21    20    1
    30    85    87   ar
    31    22    20    1
    32    20    17    1
    33     6     7    1
    34     6     5    1
    35    14    15    2
    36    11     9    1
    37     7     8    1
    38     1     2    1
    39    62    60   ar
    40    62    61   ar
    41    60    58   ar
    42    90    91    1
    43     5     2    1
    44    17    16    1
    45    17    18    1
    46    41    39   ar
    47    41    42   ar
    48     2     3    1
    49     9     8    2
    50     9    10    1
    51    43    42    1
    52    61    59   ar
    53    39    37   ar
    54    58    57   ar
    55    42    40   ar
    56    91    92    1
    57    91    94    1
    58    92    93    2
    59    18    24   am
    60    18    19    2
    61    94    95    1
    62    24    25    1
    63    59    57   ar
    64     3     4    2
    65    37    38   ar
    66    37    36    1
    67    40    38   ar
    68    57    56    1
    69    36    33    1
    70    25    28    1
    71    25    26    1
    72    28    29    1
    73    95    96    1
    74    56    53    1
    75    30    29    2
    76    29    31   am
    77    33    32    1
    78    33    34    1
    79    35    34    2
    80    96    97    1
    81    97    98    2
    82    26    27    2
    83    34    44   am
    84    53    52    1
    85    53    54    1
    86    98    99    1
    87    98   100    1
    88    55    54    2
    89    44    45    1
    90    50    49   ar
    91    45    48    1
    92    45    46    1
    93    48    49    1
    94    49    51   ar
    95    47    46    2
