@<TRIPOS>MOLECULE
tmp/5vx6B00.pdb
 155 151 0 0 0
SMALL
GASTEIGER

@<TRIPOS>ATOM
      1  N         31.0120   15.6450  239.5280 N.3   100  ARG100     -0.1231
      2  CA        32.2780   16.1330  238.9840 C.3   100  ARG100      0.1694
      3  C         32.8350   15.2160  237.8920 C.2   100  ARG100      0.2592
      4  O         34.0540   15.1000  237.6930 O.2   100  ARG100     -0.2718
      5  CB        33.2780   16.3450  240.1200 C.3   100  ARG100      0.0321
      6  CG        34.0020   15.1010  240.6170 C.3   100  ARG100      0.0489
      7  CD        34.2170   15.0300  242.1200 C.3   100  ARG100      0.2205
      8  NE        33.1650   14.2700  242.7710 N.pl3 100  ARG100     -0.0865
      9  CZ        33.3290   13.6380  243.9280 C.cat 100  ARG100      0.5346
     10  NH1       34.4980   13.6880  244.5380 N.pl3 100  ARG100      0.1354
     11  NH2       32.3390   12.9490  244.4640 N.pl3 100  ARG100      0.1354
     12  N         31.9460   14.5600  237.1470 N.am  101  ARG101     -0.1966
     13  CA        32.3180   13.6660  236.0550 C.3   101  ARG101      0.1729
     14  C         32.1710   14.4030  234.7300 C.2   101  ARG101      0.2616
     15  O         31.0610   14.7830  234.3390 O.2   101  ARG101     -0.2715
     16  CB        31.4600   12.4040  236.0650 C.3   101  ARG101      0.0348
     17  CG        32.0350   11.2720  236.8900 C.3   101  ARG101      0.0492
     18  CD        31.1830   10.0270  236.7580 C.3   101  ARG101      0.2205
     19  NE        31.5850    8.9840  237.6930 N.pl3 101  ARG101     -0.0865
     20  CZ        30.7530    8.0750  238.1850 C.cat 101  ARG101      0.5346
     21  NH1       29.4760    8.0820  237.8290 N.pl3 101  ARG101      0.1354
     22  NH2       31.1930    7.1590  239.0350 N.pl3 101  ARG101      0.1354
     23  N         33.2910   14.5870  234.0300 N.am  102  GLN102     -0.1963
     24  CA        33.2570   15.2940  232.7550 C.3   102  GLN102      0.1733
     25  C         32.5910   14.4680  231.6630 C.2   102  GLN102      0.2616
     26  O         32.0740   15.0370  230.6940 O.2   102  GLN102     -0.2715
     27  CB        34.6700   15.6860  232.3340 C.3   102  GLN102      0.0408
     28  CG        35.3850   16.6900  233.2360 C.3   102  GLN102      0.0908
     29  CD        34.6200   17.9810  233.3780 C.2   102  GLN102      0.2608
     30  OE1       34.2500   18.5820  232.3500 O.2   102  GLN102     -0.2717
     31  NE2       34.2700   18.3550  234.5680 N.am  102  GLN102     -0.0878
     32  N         32.5650   13.1430  231.8100 N.am  103  TYR103     -0.1974
     33  CA        32.0600   12.2520  230.7710 C.3   103  TYR103      0.1639
     34  C         31.2270   11.1520  231.4100 C.2   103  TYR103      0.2290
     35  O         31.7030   10.4440  232.3050 O.2   103  TYR103     -0.2864
     36  CB        33.2130   11.6540  229.9620 C.3   103  TYR103      0.0560
     37  CG        33.9030   12.6610  229.0670 C.ar  103  TYR103     -0.0198
     38  CD1       33.2630   13.1780  227.9480 C.ar  103  TYR103     -0.0009
     39  CD2       35.1960   13.0920  229.3350 C.ar  103  TYR103     -0.0009
     40  CE1       33.8900   14.0980  227.1210 C.ar  103  TYR103      0.0417
     41  CE2       35.8310   14.0120  228.5120 C.ar  103  TYR103      0.0417
     42  CZ        35.1730   14.5110  227.4080 C.ar  103  TYR103      0.1957
     43  OH        35.8050   15.4230  226.5930 O.3   103  TYR103     -0.2866
     44  N         29.5840    7.7380  232.2110 N.3   105  ARG105     -0.1245
     45  CA        30.1200    6.3880  232.1600 C.3   105  ARG105      0.1563
     46  C         29.0050    5.3750  231.9260 C.2   105  ARG105      0.2260
     47  O         27.8150    5.6830  232.0190 O.2   105  ARG105     -0.2867
     48  CB        30.8580    6.0520  233.4570 C.3   105  ARG105      0.0307
     49  CG        31.9380    7.0370  233.8490 C.3   105  ARG105      0.0489
     50  CD        32.7590    6.4820  234.9950 C.3   105  ARG105      0.2205
     51  NE        33.7690    7.4220  235.4650 N.pl3 105  ARG105     -0.0865
     52  CZ        34.2740    7.4070  236.6930 C.cat 105  ARG105      0.5346
     53  NH1       33.8550    6.5040  237.5680 N.pl3 105  ARG105      0.1354
     54  NH2       35.1890    8.2950  237.0510 N.pl3 105  ARG105      0.1354
     55  N         35.1090   -3.2310  233.0070 N.3   124  TYR124     -0.1227
     56  CA        33.8160   -3.2950  233.6760 C.3   124  TYR124      0.1736
     57  C         33.0430   -1.9810  233.6640 C.2   124  TYR124      0.2595
     58  O         31.8350   -2.0010  233.9230 O.2   124  TYR124     -0.2718
     59  CB        33.9690   -3.7950  235.1270 C.3   124  TYR124      0.0548
     60  CG        34.8570   -2.9790  236.0480 C.ar  124  TYR124     -0.0200
     61  CD1       36.2400   -3.0930  235.9980 C.ar  124  TYR124     -0.0009
     62  CD2       34.3070   -2.1300  237.0000 C.ar  124  TYR124     -0.0009
     63  CE1       37.0510   -2.3650  236.8510 C.ar  124  TYR124      0.0417
     64  CE2       35.1100   -1.3980  237.8560 C.ar  124  TYR124      0.0417
     65  CZ        36.4800   -1.5200  237.7770 C.ar  124  TYR124      0.1957
     66  OH        37.2800   -0.7900  238.6260 O.3   124  TYR124     -0.2866
     67  N         33.6860   -0.8550  233.3600 N.am  125  ASN125     -0.1960
     68  CA        32.9660    0.3550  232.9880 C.3   125  ASN125      0.1819
     69  C         33.8900    1.2330  232.1570 C.2   125  ASN125      0.2621
     70  O         35.1170    1.1230  232.2330 O.2   125  ASN125     -0.2715
     71  CB        32.4190    1.1200  234.2070 C.3   125  ASN125      0.1195
     72  CG        33.5110    1.6620  235.1080 C.2   125  ASN125      0.2630
     73  OD1       34.1850    2.6370  234.7720 O.2   125  ASN125     -0.2716
     74  ND2       33.6710    1.0490  236.2750 N.am  125  ASN125     -0.0877
     75  N         33.2860    2.1040  231.3490 N.am  126  ILE126     -0.1963
     76  CA        34.0340    2.9150  230.3950 C.3   126  ILE126      0.1727
     77  C         33.3060    4.2350  230.1860 C.2   126  ILE126      0.2616
     78  O         32.0940    4.3400  230.3930 O.2   126  ILE126     -0.2715
     79  CB        34.2300    2.1650  229.0550 C.3   126  ILE126      0.0290
     80  CG1       35.3290    2.8210  228.2120 C.3   126  ILE126      0.0022
     81  CG2       32.9200    2.1010  228.2830 C.3   126  ILE126      0.0023
     82  CD1       35.6030    2.1070  226.9090 C.3   126  ILE126      0.0001
     83  N         34.0650    5.2540  229.7860 N.am  127  SER127     -0.1950
     84  CA        33.5130    6.5470  229.4120 C.3   127  SER127      0.1924
     85  C         34.4160    7.1670  228.3540 C.2   127  SER127      0.2314
     86  O         35.4450    6.6000  227.9740 O.2   127  SER127     -0.2863
     87  CB        33.3720    7.4680  230.6270 C.3   127  SER127      0.2116
     88  OG        34.6220    8.0260  230.9890 O.3   127  SER127     -0.2180
     89  N         36.2810    9.6100  228.7530 N.3   129  GLY129     -0.1210
     90  CA        37.4500   10.2010  229.3720 C.3   129  GLY129      0.1956
     91  C         38.3430    9.1810  230.0470 C.2   129  GLY129      0.2612
     92  O         39.5410    9.4200  230.2290 O.2   129  GLY129     -0.2717
     93  N         37.7770    8.0380  230.4140 N.am  130  GLY130     -0.1942
     94  CA        38.5450    7.0080  231.0740 C.3   130  GLY130      0.2014
     95  C         37.8860    5.6540  230.9370 C.2   130  GLY130      0.2639
     96  O         36.8750    5.4990  230.2480 O.2   130  GLY130     -0.2714
     97  N         38.4780    4.6710  231.6110 N.am  131  ILE131     -0.1963
     98  CA        37.9930    3.2960  231.5750 C.3   131  ILE131      0.1727
     99  C         38.6130    2.5440  232.7440 C.2   131  ILE131      0.2616
    100  O         39.7820    2.7480  233.0820 O.2   131  ILE131     -0.2715
    101  CB        38.3200    2.6230  230.2200 C.3   131  ILE131      0.0290
    102  CG1       37.8830    1.1560  230.2200 C.3   131  ILE131      0.0022
    103  CG2       39.8000    2.7580  229.9000 C.3   131  ILE131      0.0023
    104  CD1       38.2110    0.4300  228.9350 C.3   131  ILE131      0.0001
    105  N         37.8150    1.6830  233.3690 N.am  132  ALA132     -0.1977
    106  CA        38.2650    0.8250  234.4570 C.3   132  ALA132      0.1597
    107  C         38.2670   -0.6210  233.9800 C.2   132  ALA132      0.2287
    108  O         37.2610   -1.1040  233.4490 O.2   132  ALA132     -0.2864
    109  CB        37.3700    0.9870  235.6870 C.3   132  ALA132      0.0319
    110  N         45.2710    5.5690  236.9520 N.3   169  ARG169     -0.1231
    111  CA        44.7830    6.4320  238.0210 C.3   169  ARG169      0.1694
    112  C         44.7500    5.7560  239.3810 C.2   169  ARG169      0.2591
    113  O         45.1040    6.3850  240.3800 O.2   169  ARG169     -0.2718
    114  CB        43.3820    6.9530  237.6790 C.3   169  ARG169      0.0321
    115  CG        43.3230    8.4340  237.3600 C.3   169  ARG169      0.0489
    116  CD        44.5050    8.8500  236.5110 C.3   169  ARG169      0.2205
    117  NE        44.5760   10.2970  236.3440 N.pl3 169  ARG169     -0.0865
    118  CZ        45.6380   10.9410  235.8720 C.cat 169  ARG169      0.5346
    119  NH1       46.7270   10.2650  235.5330 N.pl3 169  ARG169      0.1354
    120  NH2       45.6180   12.2610  235.7500 N.pl3 169  ARG169      0.1354
    121  N         44.3410    4.4900  239.4530 N.am  170  ARG170     -0.1980
    122  CA        44.2990    3.7830  240.7260 C.3   170  ARG170      0.1597
    123  C         44.2480    2.2840  240.4710 C.2   170  ARG170      0.2287
    124  O         43.7150    1.8290  239.4550 O.2   170  ARG170     -0.2864
    125  CB        43.1000    4.2270  241.5740 C.3   170  ARG170      0.0334
    126  CG        41.7500    3.8530  240.9910 C.3   170  ARG170      0.0492
    127  CD        40.7200    4.9560  241.2080 C.3   170  ARG170      0.2205
    128  NE        39.3630    4.4980  240.9200 N.pl3 170  ARG170     -0.0865
    129  CZ        38.5820    3.8700  241.7940 C.cat 170  ARG170      0.5346
    130  NH1       39.0170    3.6230  243.0240 N.pl3 170  ARG170      0.1354
    131  NH2       37.3640    3.4880  241.4380 N.pl3 170  ARG170      0.1354
    132  N         42.3690    1.2900  236.7970 N.3   183  THR183     -0.1203
    133  CA        41.6310    2.4630  236.3620 C.3   183  THR183      0.1994
    134  C         42.5600    3.3830  235.5960 C.2   183  THR183      0.2618
    135  O         43.6880    3.6230  236.0380 O.2   183  THR183     -0.2717
    136  CB        41.0440    3.1970  237.5650 C.3   183  THR183      0.1784
    137  OG1       39.8410    2.5830  237.9670 O.3   183  THR183     -0.2211
    138  CG2       40.7920    4.6080  237.2870 C.3   183  THR183      0.0376
    139  N         42.0910    3.8970  234.4570 N.am  184  LEU184     -0.1965
    140  CA        42.9340    4.6870  233.5720 C.3   184  LEU184      0.1728
    141  C         42.1880    5.9280  233.1000 C.2   184  LEU184      0.2616
    142  O         40.9560    5.9810  233.1050 O.2   184  LEU184     -0.2715
    143  CB        43.4160    3.8660  232.3630 C.3   184  LEU184      0.0311
    144  CG        44.1700    2.5540  232.6190 C.3   184  LEU184      0.0022
    145  CD1       43.2210    1.3890  232.8870 C.3   184  LEU184      0.0001
    146  CD2       45.1080    2.2230  231.4660 C.3   184  LEU184      0.0001
    147  N         42.9680    6.9310  232.6910 N.am  185  GLU185     -0.1977
    148  CA        42.4670    8.1740  232.1160 C.3   185  GLU185      0.1602
    149  C         43.1450    8.4080  230.7740 C.2   185  GLU185      0.2287
    150  O         44.3500    8.1840  230.6360 O.2   185  GLU185     -0.2864
    151  CB        42.7250    9.3710  233.0400 C.3   185  GLU185      0.0415
    152  CG        42.1040   10.6770  232.5660 C.3   185  GLU185      0.1163
    153  CD        42.4070   11.8410  233.4930 C.2   185  GLU185      0.3649
    154  OE1       43.5570   11.9360  233.9690 O.co2 185  GLU185     -0.2457
    155  OE2       41.5070   12.6750  233.7260 O.co2 185  GLU185     -0.2457
@<TRIPOS>BOND
     1    43    42    1
     2    82    80    1
     3    40    42   ar
     4    40    38   ar
     5    42    41   ar
     6    38    37   ar
     7    86    85    2
     8    80    79    1
     9    81    79    1
    10    85    84    1
    11    41    39   ar
    12    89    90    1
    13   104   102    1
    14    79    76    1
    15    37    39   ar
    16    37    36    1
    17    90    91    1
    18    84    83    1
    19    84    87    1
    20    83    77   am
    21   103   101    1
    22    36    33    1
    23    91    92    2
    24    91    93   am
    25    77    78    2
    26    77    76    1
    27   102   101    1
    28   101    98    1
    29    96    95    2
    30    76    75    1
    31    93    94    1
    32    87    88    1
    33   150   149    2
    34    26    25    2
    35    33    34    1
    36    33    32    1
    37   149   148    1
    38    95    94    1
    39    95    97   am
    40    75    69   am
    41    34    35    2
    42   146   144    1
    43    98    97    1
    44    98    99    1
    45    25    32   am
    46    25    24    1
    47    46    47    2
    48    46    45    1
    49   148   147    1
    50   148   151    1
    51    69    70    2
    52    69    68    1
    53    45    44    1
    54    45    48    1
    55    27    24    1
    56    27    28    1
    57    30    29    2
    58   143   144    1
    59   143   140    1
    60   152   151    1
    61   152   153    1
    62   144   145    1
    63   147   141   am
    64    99   100    2
    65    99   105   am
    66    24    23    1
    67    68    67    1
    68    68    71    1
    69    55    56    1
    70   141   142    2
    71   141   140    1
    72    28    29    1
    73    67    57   am
    74   105   106    1
    75    29    31   am
    76   108   107    2
    77    48    49    1
    78   153   155   ar
    79   153   154   ar
    80   140   139    1
    81    57    56    1
    82    57    58    2
    83    56    59    1
    84    49    50    1
    85   107   106    1
    86    23    14   am
    87    71    72    1
    88    15    14    2
    89   139   134   am
    90   106   109    1
    91    14    13    1
    92    73    72    2
    93    50    51    1
    94    72    74   am
    95    59    60    1
    96    51    52    2
    97   119   118    1
    98   134   135    2
    99   134   133    1
   100   120   118    1
   101   118   117    2
   102    61    60   ar
   103    61    63   ar
   104    60    62   ar
   105    13    16    1
   106    13    12    1
   107    16    17    1
   108   117   116    1
   109   133   132    1
   110   133   136    1
   111   116   115    1
   112    52    54    1
   113    52    53    1
   114    18    17    1
   115    18    19    1
   116    63    65   ar
   117   110   111    1
   118    62    64   ar
   119    12     3   am
   120   138   136    1
   121   115   114    1
   122   136   137    1
   123   114   111    1
   124    19    20    2
   125     4     3    2
   126    65    64   ar
   127    65    66    1
   128    21    20    1
   129     3     2    1
   130   111   112    1
   131    20    22    1
   132     2     1    1
   133     2     5    1
   134   112   121   am
   135   112   113    2
   136   121   122    1
   137   124   123    2
   138     5     6    1
   139   123   122    1
   140     6     7    1
   141   122   125    1
   142   128   127    1
   143   128   129    2
   144   126   127    1
   145   126   125    1
   146   131   129    1
   147   129   130    1
   148     7     8    1
   149     8     9    2
   150     9    11    1
   151     9    10    1
