@<TRIPOS>MOLECULE
tmp/5vx6B01.pdb
 127 119 0 0 0
SMALL
GASTEIGER

@<TRIPOS>ATOM
      1  N         26.8320    7.6530  253.5730 N.3    10  LEU10      -0.1245
      2  CA        28.2140    7.6950  254.0280 C.3    10  LEU10       0.1561
      3  C         28.4330    8.8570  254.9900 C.2    10  LEU10       0.2260
      4  O         28.0200    9.9900  254.7190 O.2    10  LEU10      -0.2867
      5  CB        29.1640    7.7970  252.8350 C.3    10  LEU10       0.0270
      6  CG        29.0610    6.6480  251.8270 C.3    10  LEU10       0.0019
      7  CD1       28.3080    7.0850  250.5770 C.3    10  LEU10       0.0001
      8  CD2       30.4360    6.1020  251.4730 C.3    10  LEU10       0.0001
      9  N         35.9860    7.7160  258.1370 N.3    21  LYS21      -0.1245
     10  CA        34.8970    7.6740  257.1720 C.3    21  LYS21       0.1561
     11  C         34.1500    6.3610  257.3480 C.2    21  LYS21       0.2260
     12  O         34.7730    5.2970  257.4040 O.2    21  LYS21      -0.2867
     13  CB        35.4160    7.8120  255.7350 C.3    21  LYS21       0.0271
     14  CG        34.2070    7.8760  254.7690 C.3    21  LYS21       0.0035
     15  CD        34.6100    8.0450  253.3260 C.3    21  LYS21       0.0206
     16  CE        33.4150    8.1620  252.4010 C.3    21  LYS21       0.1093
     17  NZ        32.9470    9.5650  252.3140 N.3    21  LYS21      -0.1314
     18  N         26.7880   12.0340  253.1030 N.3    59  GLU59      -0.1245
     19  CA        26.7020   11.8660  251.6580 C.3    59  GLU59       0.1567
     20  C         25.8670   10.6380  251.3370 C.2    59  GLU59       0.2260
     21  O         26.0670    9.5720  251.9280 O.2    59  GLU59      -0.2867
     22  CB        28.0880   11.7330  251.0150 C.3    59  GLU59       0.0388
     23  CG        28.0350   11.5370  249.5010 C.3    59  GLU59       0.1160
     24  CD        29.4020   11.3170  248.8820 C.2    59  GLU59       0.3649
     25  OE1       30.4010   11.8070  249.4490 O.co2  59  GLU59      -0.2457
     26  OE2       29.4780   10.6490  247.8270 O.co2  59  GLU59      -0.2457
     27  N         23.3860    8.8950  247.7500 N.3    61  VAL61      -0.1245
     28  CA        23.0740    8.9780  246.3280 C.3    61  VAL61       0.1561
     29  C         21.5990    9.3290  246.1690 C.2    61  VAL61       0.2260
     30  O         20.7220    8.6050  246.6520 O.2    61  VAL61      -0.2867
     31  CB        23.4120    7.6650  245.6080 C.3    61  VAL61       0.0252
     32  CG1       22.7280    7.6150  244.2530 C.3    61  VAL61       0.0019
     33  CG2       24.9170    7.5210  245.4570 C.3    61  VAL61       0.0019
     34  N         20.8760    9.2160  240.6590 N.3    65  GLU65      -0.1231
     35  CA        22.0540    8.3610  240.7810 C.3    65  GLU65       0.1699
     36  C         23.3160    9.2230  240.8450 C.2    65  GLU65       0.2592
     37  O         24.2410    9.0970  240.0420 O.2    65  GLU65      -0.2718
     38  CB        22.1240    7.3440  239.6380 C.3    65  GLU65       0.0402
     39  CG        20.9630    6.3820  239.6040 C.3    65  GLU65       0.1161
     40  CD        20.8840    5.4380  240.7600 C.2    65  GLU65       0.3649
     41  OE1       21.8800    5.2620  241.5110 O.co2  65  GLU65      -0.2457
     42  OE2       19.8340    4.7830  240.8450 O.co2  65  GLU65      -0.2457
     43  N         23.3250   10.1230  241.8250 N.am   66  VAL66      -0.1966
     44  CA        24.3460   11.1610  241.9170 C.3    66  VAL66       0.1712
     45  C         24.4430   11.5810  243.3830 C.2    66  VAL66       0.2458
     46  O         23.4210   11.6050  244.0840 O.2    66  VAL66      -0.2730
     47  CB        24.0050   12.3290  240.9700 C.3    66  VAL66       0.0289
     48  CG1       23.0100   13.3120  241.6000 C.3    66  VAL66       0.0023
     49  CG2       25.2500   13.0130  240.4350 C.3    66  VAL66       0.0023
     50  N         25.6330   11.8890  243.9040 N.am   67  PRO67      -0.2727
     51  CA        25.7570   12.1220  245.3470 C.3    67  PRO67       0.1402
     52  C         25.2110   13.4780  245.7610 C.2    67  PRO67       0.2269
     53  O         25.3690   14.4780  245.0570 O.2    67  PRO67      -0.2865
     54  CB        27.2690   12.0430  245.6010 C.3    67  PRO67       0.0296
     55  CG        27.8720   11.5710  244.3370 C.3    67  PRO67       0.0237
     56  CD        26.9410   11.9310  243.2370 C.3    67  PRO67       0.0939
     57  N         28.6010   16.2500  241.1660 N.3    99  GLN99      -0.1231
     58  CA        28.6000   15.6320  239.8440 C.3    99  GLN99       0.1698
     59  C         29.8400   16.0970  239.0940 C.2    99  GLN99       0.2592
     60  O         29.7430   16.8590  238.1270 O.2    99  GLN99      -0.2718
     61  CB        27.3360   15.9930  239.0570 C.3    99  GLN99       0.0381
     62  CG        26.9430   15.0110  237.9320 C.3    99  GLN99       0.0905
     63  CD        28.0830   14.6450  236.9930 C.2    99  GLN99       0.2608
     64  OE1       28.5550   13.5140  236.9910 O.2    99  GLN99      -0.2717
     65  NE2       28.5300   15.6050  236.1970 N.am   99  GLN99      -0.0878
     66  N         31.0120   15.6450  239.5280 N.am  100  ARG100     -0.1966
     67  CA        32.2780   16.1330  238.9840 C.3   100  ARG100      0.1729
     68  C         32.8350   15.2160  237.8920 C.2   100  ARG100      0.2616
     69  O         34.0540   15.1000  237.6930 O.2   100  ARG100     -0.2715
     70  CB        33.2780   16.3450  240.1200 C.3   100  ARG100      0.0348
     71  CG        34.0020   15.1010  240.6170 C.3   100  ARG100      0.0492
     72  CD        34.2170   15.0300  242.1200 C.3   100  ARG100      0.2205
     73  NE        33.1650   14.2700  242.7710 N.pl3 100  ARG100     -0.0865
     74  CZ        33.3290   13.6380  243.9280 C.cat 100  ARG100      0.5346
     75  NH1       34.4980   13.6880  244.5380 N.pl3 100  ARG100      0.1354
     76  NH2       32.3390   12.9490  244.4640 N.pl3 100  ARG100      0.1354
     77  N         31.9460   14.5600  237.1470 N.am  101  ARG101     -0.1977
     78  CA        32.3180   13.6660  236.0550 C.3   101  ARG101      0.1597
     79  C         32.1710   14.4030  234.7300 C.2   101  ARG101      0.2287
     80  O         31.0610   14.7830  234.3390 O.2   101  ARG101     -0.2864
     81  CB        31.4600   12.4040  236.0650 C.3   101  ARG101      0.0334
     82  CG        32.0350   11.2720  236.8900 C.3   101  ARG101      0.0492
     83  CD        31.1830   10.0270  236.7580 C.3   101  ARG101      0.2205
     84  NE        31.5850    8.9840  237.6930 N.pl3 101  ARG101     -0.0865
     85  CZ        30.7530    8.0750  238.1850 C.cat 101  ARG101      0.5346
     86  NH1       29.4760    8.0820  237.8290 N.pl3 101  ARG101      0.1354
     87  NH2       31.1930    7.1590  239.0350 N.pl3 101  ARG101      0.1354
     88  N         29.5840    7.7380  232.2110 N.3   105  ARG105     -0.1245
     89  CA        30.1200    6.3880  232.1600 C.3   105  ARG105      0.1563
     90  C         29.0050    5.3750  231.9260 C.2   105  ARG105      0.2260
     91  O         27.8150    5.6830  232.0190 O.2   105  ARG105     -0.2867
     92  CB        30.8580    6.0520  233.4570 C.3   105  ARG105      0.0307
     93  CG        31.9380    7.0370  233.8490 C.3   105  ARG105      0.0489
     94  CD        32.7590    6.4820  234.9950 C.3   105  ARG105      0.2205
     95  NE        33.7690    7.4220  235.4650 N.pl3 105  ARG105     -0.0865
     96  CZ        34.2740    7.4070  236.6930 C.cat 105  ARG105      0.5346
     97  NH1       33.8550    6.5040  237.5680 N.pl3 105  ARG105      0.1354
     98  NH2       35.1890    8.2950  237.0510 N.pl3 105  ARG105      0.1354
     99  N         44.3410    4.4900  239.4530 N.3   170  ARG170     -0.1245
    100  CA        44.2990    3.7830  240.7260 C.3   170  ARG170      0.1563
    101  C         44.2480    2.2840  240.4710 C.2   170  ARG170      0.2260
    102  O         43.7150    1.8290  239.4550 O.2   170  ARG170     -0.2867
    103  CB        43.1000    4.2270  241.5740 C.3   170  ARG170      0.0307
    104  CG        41.7500    3.8530  240.9910 C.3   170  ARG170      0.0489
    105  CD        40.7200    4.9560  241.2080 C.3   170  ARG170      0.2205
    106  NE        39.3630    4.4980  240.9200 N.pl3 170  ARG170     -0.0865
    107  CZ        38.5820    3.8700  241.7940 C.cat 170  ARG170      0.5346
    108  NH1       39.0170    3.6230  243.0240 N.pl3 170  ARG170      0.1354
    109  NH2       37.3640    3.4880  241.4380 N.pl3 170  ARG170      0.1354
    110  N         43.2790   -1.2060  242.7670 N.3   172  PHE172     -0.1241
    111  CA        42.7300   -1.6900  244.0240 C.3   172  PHE172      0.1605
    112  C         42.1630   -3.0880  243.8210 C.2   172  PHE172      0.2264
    113  O         42.1040   -3.6040  242.7030 O.2   172  PHE172     -0.2867
    114  CB        41.6600   -0.7350  244.5710 C.3   172  PHE172      0.0534
    115  CG        40.3940   -0.7030  243.7570 C.ar  172  PHE172     -0.0203
    116  CD1       40.3210    0.0460  242.5940 C.ar  172  PHE172     -0.0042
    117  CD2       39.2710   -1.4050  244.1660 C.ar  172  PHE172     -0.0042
    118  CE1       39.1580    0.0820  241.8470 C.ar  172  PHE172     -0.0003
    119  CE2       38.1040   -1.3710  243.4230 C.ar  172  PHE172     -0.0003
    120  CZ        38.0490   -0.6270  242.2620 C.ar  172  PHE172     -0.0000
    121  N         42.3690    1.2900  236.7970 N.3   183  THR183     -0.1218
    122  CA        41.6310    2.4630  236.3620 C.3   183  THR183      0.1862
    123  C         42.5600    3.3830  235.5960 C.2   183  THR183      0.2287
    124  O         43.6880    3.6230  236.0380 O.2   183  THR183     -0.2866
    125  CB        41.0440    3.1970  237.5650 C.3   183  THR183      0.1770
    126  OG1       39.8410    2.5830  237.9670 O.3   183  THR183     -0.2211
    127  CG2       40.7920    4.6080  237.2870 C.3   183  THR183      0.0375
@<TRIPOS>BOND
     1    90    91    2
     2    90    89    1
     3    89    88    1
     4    89    92    1
     5    92    93    1
     6    93    94    1
     7    80    79    2
     8    79    78    1
     9    94    95    1
    10    95    96    2
    11   123   124    2
    12   123   122    1
    13    78    81    1
    14    78    77    1
    15    81    82    1
    16    65    63   am
    17   122   121    1
    18   122   125    1
    19    96    98    1
    20    96    97    1
    21    83    82    1
    22    83    84    1
    23    64    63    2
    24    63    62    1
    25    77    68   am
    26   127   125    1
    27   125   126    1
    28    84    85    2
    29    69    68    2
    30    86    85    1
    31    68    67    1
    32    62    61    1
    33    60    59    2
    34    85    87    1
    35    67    66    1
    36    67    70    1
    37    61    58    1
    38    59    66   am
    39    59    58    1
    40    99   100    1
    41   102   101    2
    42    39    38    1
    43    39    40    1
    44    38    35    1
    45    58    57    1
    46    37    36    2
    47    70    71    1
    48    49    47    1
    49   101   100    1
    50    71    72    1
    51    34    35    1
    52   100   103    1
    53    40    42   ar
    54    40    41   ar
    55    35    36    1
    56    36    43   am
    57   106   105    1
    58   106   107    2
    59    47    48    1
    60    47    44    1
    61   104   105    1
    62   104   103    1
    63   109   107    1
    64   107   108    1
    65    43    44    1
    66   118   120   ar
    67   118   116   ar
    68    44    45    1
    69    72    73    1
    70   120   119   ar
    71   116   115   ar
    72   113   112    2
    73   110   111    1
    74    73    74    2
    75    56    50    1
    76    56    55    1
    77    45    50   am
    78    45    46    2
    79   119   117   ar
    80   115   117   ar
    81   115   114    1
    82   112   111    1
    83    50    51    1
    84    74    76    1
    85    74    75    1
    86   111   114    1
    87    32    31    1
    88    55    54    1
    89    53    52    2
    90    51    54    1
    91    51    52    1
    92    33    31    1
    93    31    28    1
    94    29    28    1
    95    29    30    2
    96    28    27    1
    97    26    24   ar
    98    24    25   ar
    99    24    23    1
   100    23    22    1
   101     7     6    1
   102    22    19    1
   103    20    19    1
   104    20    21    2
   105     8     6    1
   106    19    18    1
   107     6     5    1
   108    17    16    1
   109    16    15    1
   110     5     2    1
   111    15    14    1
   112     1     2    1
   113     2     3    1
   114     4     3    2
   115    14    13    1
   116    13    10    1
   117    10    11    1
   118    10     9    1
   119    11    12    2
