@<TRIPOS>MOLECULE
tmp/5vxaB00.pdb
 229 219 0 0 0
SMALL
GASTEIGER

@<TRIPOS>ATOM
      1  N          3.4040  -20.4990  -47.1480 N.3    22  ARG22      -0.1231
      2  CA         4.7390  -21.0640  -47.2880 C.3    22  ARG22       0.1694
      3  C          5.2640  -20.7080  -48.6710 C.2    22  ARG22       0.2592
      4  O          4.4990  -20.3500  -49.5770 O.2    22  ARG22      -0.2718
      5  CB         4.7650  -22.5980  -47.1420 C.3    22  ARG22       0.0321
      6  CG         4.0140  -23.1560  -45.9400 C.3    22  ARG22       0.0489
      7  CD         4.5850  -22.6740  -44.5950 C.3    22  ARG22       0.2205
      8  NE         3.8340  -23.2670  -43.4800 N.pl3  22  ARG22      -0.0865
      9  CZ         2.9290  -22.6010  -42.7680 C.cat  22  ARG22       0.5346
     10  NH1        2.6630  -21.3130  -43.0430 N.pl3  22  ARG22       0.1354
     11  NH2        2.2910  -23.2090  -41.7800 N.pl3  22  ARG22       0.1354
     12  N          6.5790  -20.8250  -48.8130 N.am   23  ARG23      -0.1966
     13  CA         7.2860  -20.5790  -50.0580 C.3    23  ARG23       0.1729
     14  C          7.1940  -21.8190  -50.9430 C.2    23  ARG23       0.2616
     15  O          6.7000  -22.8700  -50.5270 O.2    23  ARG23      -0.2715
     16  CB         8.7490  -20.2310  -49.7700 C.3    23  ARG23       0.0348
     17  CG         8.9410  -18.9830  -48.8940 C.3    23  ARG23       0.0492
     18  CD         8.9220  -17.7480  -49.7750 C.3    23  ARG23       0.2205
     19  NE        10.1670  -17.6250  -50.5330 N.pl3  23  ARG23      -0.0865
     20  CZ        10.4040  -16.6530  -51.4120 C.cat  23  ARG23       0.5346
     21  NH1        9.4640  -15.7420  -51.6530 N.pl3  23  ARG23       0.1354
     22  NH2       11.5690  -16.6000  -52.0580 N.pl3  23  ARG23       0.1354
     23  N          7.6880  -21.7020  -52.1670 N.am   24  LYS24      -0.1963
     24  CA         7.6380  -22.8120  -53.1130 C.3    24  LYS24       0.1728
     25  C          8.8250  -23.7780  -53.0600 C.2    24  LYS24       0.2616
     26  O          8.9180  -24.6800  -53.8930 O.2    24  LYS24      -0.2715
     27  CB         7.4680  -22.2820  -54.5400 C.3    24  LYS24       0.0311
     28  CG         6.3920  -21.2770  -54.7060 C.3    24  LYS24       0.0038
     29  CD         6.4250  -20.6240  -56.0760 C.3    24  LYS24       0.0206
     30  CE         5.1660  -20.0570  -56.4450 C.3    24  LYS24       0.1093
     31  NZ         4.0840  -21.0030  -56.4720 N.3    24  LYS24      -0.1314
     32  N          9.7120  -23.6330  -52.0770 N.am   25  ASP25      -0.1971
     33  CA        10.8380  -24.5560  -51.9840 C.3    25  ASP25       0.1709
     34  C         10.3640  -25.9230  -51.4740 C.2    25  ASP25       0.2293
     35  O          9.2870  -26.0370  -50.8890 O.2    25  ASP25      -0.2864
     36  CB        11.9380  -23.9690  -51.0920 C.3    25  ASP25       0.1436
     37  CG        11.4510  -23.5720  -49.6860 C.2    25  ASP25       0.3671
     38  OD1       10.2330  -23.4850  -49.4220 O.co2  25  ASP25      -0.2456
     39  OD2       12.3180  -23.3210  -48.8300 O.co2  25  ASP25      -0.2456
     40  N          6.3850  -18.4020  -45.1040 N.3    31  TYR31      -0.1241
     41  CA         6.5200  -17.2740  -46.0170 C.3    31  TYR31       0.1605
     42  C          7.1500  -16.0690  -45.3240 C.2    31  TYR31       0.2264
     43  O          7.9050  -15.3170  -45.9560 O.2    31  TYR31      -0.2867
     44  CB         5.1620  -16.9150  -46.6330 C.3    31  TYR31       0.0534
     45  CG         5.3270  -15.9860  -47.8220 C.ar   31  TYR31      -0.0201
     46  CD1        5.4150  -14.6210  -47.6260 C.ar   31  TYR31      -0.0009
     47  CD2        5.4490  -16.4810  -49.1260 C.ar   31  TYR31      -0.0009
     48  CE1        5.5940  -13.7390  -48.6880 C.ar   31  TYR31       0.0417
     49  CE2        5.6380  -15.5970  -50.2160 C.ar   31  TYR31       0.0417
     50  CZ         5.7020  -14.2220  -49.9670 C.ar   31  TYR31       0.1957
     51  OH         5.8910  -13.3000  -50.9850 O.3    31  TYR31      -0.2866
     52  N         10.6280  -14.6980  -45.8960 N.3    34  HIS34      -0.1241
     53  CA        10.9800  -13.8790  -47.0550 C.3    34  HIS34       0.1621
     54  C         10.9490  -12.3830  -46.7470 C.2    34  HIS34       0.2264
     55  O         11.9790  -11.7250  -46.9550 O.2    34  HIS34      -0.2867
     56  CB        10.0950  -14.2720  -48.2390 C.3    34  HIS34       0.0745
     57  CG        10.0820  -13.2690  -49.3410 C.ar   34  HIS34       0.0817
     58  ND1       11.1640  -13.0670  -50.1710 N.ar   34  HIS34      -0.2268
     59  CD2        9.1240  -12.4070  -49.7510 C.ar   34  HIS34       0.1154
     60  CE1       10.8710  -12.1260  -51.0530 C.ar   34  HIS34       0.1986
     61  NE2        9.6390  -11.7160  -50.8240 N.ar   34  HIS34      -0.2212
     62  N          4.6090   -7.6840  -48.9190 N.3    61  ASP61      -0.1239
     63  CA         3.8020   -8.7490  -49.5040 C.3    61  ASP61       0.1674
     64  C          2.4560   -8.9310  -48.8100 C.2    61  ASP61       0.2266
     65  O          1.6790   -9.8020  -49.2280 O.2    61  ASP61      -0.2867
     66  CB         4.5790  -10.0870  -49.4870 C.3    61  ASP61       0.1410
     67  CG         5.6670  -10.1730  -50.5980 C.2    61  ASP61       0.3668
     68  OD1        5.3260   -9.8460  -51.7520 O.co2  61  ASP61      -0.2456
     69  OD2        6.8510  -10.5580  -50.3560 O.co2  61  ASP61      -0.2456
     70  N         -0.5130   -7.7610  -51.1940 N.3    64  GLU64      -0.1231
     71  CA        -0.5490   -8.5380  -52.4290 C.3    64  GLU64       0.1699
     72  C         -1.0420   -9.9690  -52.1960 C.2    64  GLU64       0.2592
     73  O         -1.6750  -10.5590  -53.0800 O.2    64  GLU64      -0.2718
     74  CB         0.8470   -8.5310  -53.0480 C.3    64  GLU64       0.0402
     75  CG         0.9180   -8.9540  -54.4850 C.3    64  GLU64       0.1161
     76  CD         2.3500   -8.9050  -54.9840 C.2    64  GLU64       0.3649
     77  OE1        2.7920   -7.8240  -55.4480 O.co2  64  GLU64      -0.2457
     78  OE2        3.0400   -9.9440  -54.8540 O.co2  64  GLU64      -0.2457
     79  N         -0.7920  -10.5360  -51.0110 N.am   65  LYS65      -0.1980
     80  CA        -0.9890  -11.9610  -50.7920 C.3    65  LYS65       0.1596
     81  C         -2.0030  -12.3210  -49.7160 C.2    65  LYS65       0.2287
     82  O         -2.3610  -13.4990  -49.6080 O.2    65  LYS65      -0.2864
     83  CB         0.3550  -12.6280  -50.4690 C.3    65  LYS65       0.0298
     84  CG         1.3150  -12.5300  -51.6620 C.3    65  LYS65       0.0038
     85  CD         2.5990  -13.2630  -51.4560 C.3    65  LYS65       0.0206
     86  CE         3.3770  -13.3100  -52.7820 C.3    65  LYS65       0.1093
     87  NZ         3.7710  -11.9440  -53.2510 N.3    65  LYS65      -0.1314
     88  N          1.7800   -5.6640  -56.6660 N.3    90  ASP90      -0.1239
     89  CA         1.2370   -6.0080  -57.9760 C.3    90  ASP90       0.1674
     90  C         -0.2810   -5.9280  -57.9620 C.2    90  ASP90       0.2266
     91  O         -0.9320   -6.2580  -56.9720 O.2    90  ASP90      -0.2867
     92  CB         1.6590   -7.4190  -58.3870 C.3    90  ASP90       0.1410
     93  CG         3.1010   -7.4920  -58.7970 C.2    90  ASP90       0.3668
     94  OD1        3.5510   -6.5570  -59.4920 O.co2  90  ASP90      -0.2456
     95  OD2        3.7870   -8.4680  -58.4150 O.co2  90  ASP90      -0.2456
     96  N         -3.2630   -7.5750  -58.5690 N.3    92  LYS92      -0.1245
     97  CA        -3.6460   -8.9660  -58.7690 C.3    92  LYS92       0.1561
     98  C         -4.8830   -9.1260  -59.6480 C.2    92  LYS92       0.2260
     99  O         -5.2240  -10.2620  -59.9970 O.2    92  LYS92      -0.2867
    100  CB        -3.8640   -9.6420  -57.4100 C.3    92  LYS92       0.0271
    101  CG        -2.5670  -10.1390  -56.7870 C.3    92  LYS92       0.0035
    102  CD        -1.9030  -11.1310  -57.7170 C.3    92  LYS92       0.0206
    103  CE        -0.5390  -11.6590  -57.3070 C.3    92  LYS92       0.1093
    104  NZ        -0.6090  -12.5300  -56.1290 N.3    92  LYS92      -0.1314
    105  N         -0.9910  -12.5650  -65.2400 N.3    96  LYS96      -0.1245
    106  CA         0.3770  -12.6530  -64.7360 C.3    96  LYS96       0.1561
    107  C          1.3620  -11.9900  -65.6910 C.2    96  LYS96       0.2260
    108  O          2.2670  -11.2710  -65.2550 O.2    96  LYS96      -0.2867
    109  CB         0.7490  -14.1160  -64.4900 C.3    96  LYS96       0.0271
    110  CG         2.2450  -14.4330  -64.5730 C.3    96  LYS96       0.0035
    111  CD         2.4680  -15.9350  -64.7380 C.3    96  LYS96       0.0206
    112  CE         1.8790  -16.4260  -66.0640 C.3    96  LYS96       0.1093
    113  NZ         2.0090  -17.9010  -66.2640 N.3    96  LYS96      -0.1314
    114  N          1.2410   -8.2330  -65.1730 N.3    99  ARG99      -0.1231
    115  CA         1.9230   -7.8730  -63.9350 C.3    99  ARG99       0.1694
    116  C          3.4370   -7.8560  -64.1260 C.2    99  ARG99       0.2591
    117  O          4.1280   -6.9780  -63.5960 O.2    99  ARG99      -0.2718
    118  CB         1.5420   -8.8460  -62.8150 C.3    99  ARG99       0.0321
    119  CG         0.0960   -8.7540  -62.3520 C.3    99  ARG99       0.0489
    120  CD        -0.1270   -9.4780  -61.0210 C.3    99  ARG99       0.2205
    121  NE         0.1490  -10.9070  -61.1100 N.pl3  99  ARG99      -0.0865
    122  CZ        -0.7700  -11.8420  -61.3380 C.cat  99  ARG99       0.5346
    123  NH1       -2.0460  -11.5080  -61.4940 N.pl3  99  ARG99       0.1354
    124  NH2       -0.4100  -13.1200  -61.4020 N.pl3  99  ARG99       0.1354
    125  N          3.9720   -8.8170  -64.8870 N.am  100  LYS100     -0.1980
    126  CA         5.4140   -8.8650  -65.1010 C.3   100  LYS100      0.1596
    127  C          5.8700   -7.7370  -66.0090 C.2   100  LYS100      0.2287
    128  O          6.9260   -7.1430  -65.7800 O.2   100  LYS100     -0.2864
    129  CB         5.8230  -10.2250  -65.6700 C.3   100  LYS100      0.0298
    130  CG         5.8850  -11.3020  -64.5910 C.3   100  LYS100      0.0038
    131  CD         6.5380  -12.5920  -65.0380 C.3   100  LYS100      0.0206
    132  CE         6.2210  -13.7030  -64.0340 C.3   100  LYS100      0.1093
    133  NZ         7.4400  -14.2540  -63.3790 N.3   100  LYS100     -0.1314
    134  N         14.0880   -7.3230  -52.8290 N.3   121  ASP121     -0.1239
    135  CA        13.1150   -8.3780  -53.0810 C.3   121  ASP121      0.1674
    136  C         13.5870   -9.2920  -54.2020 C.2   121  ASP121      0.2266
    137  O         13.5320  -10.5220  -54.0820 O.2   121  ASP121     -0.2867
    138  CB        11.7770   -7.7500  -53.4400 C.3   121  ASP121      0.1410
    139  CG        10.6340   -8.7620  -53.4900 C.2   121  ASP121      0.3668
    140  OD1       10.5230   -9.6480  -52.6250 O.co2 121  ASP121     -0.2456
    141  OD2        9.8160   -8.6590  -54.4190 O.co2 121  ASP121     -0.2456
    142  N         14.7620  -13.3110  -53.8410 N.3   125  ASN125     -0.1240
    143  CA        14.0950  -14.3480  -54.6200 C.3   125  ASN125      0.1653
    144  C         15.0720  -15.0370  -55.5710 C.2   125  ASN125      0.2266
    145  O         15.0000  -16.2550  -55.7680 O.2   125  ASN125     -0.2867
    146  CB        12.9200  -13.7550  -55.3870 C.3   125  ASN125      0.1155
    147  CG        11.7210  -13.4880  -54.4960 C.2   125  ASN125      0.2627
    148  OD1       11.5430  -14.1390  -53.4700 O.2   125  ASN125     -0.2716
    149  ND2       10.8860  -12.5380  -54.8940 N.am  125  ASN125     -0.0877
    150  N         17.1950  -17.3590  -53.5940 N.3   128  ASP128     -0.1225
    151  CA        16.3670  -18.5030  -53.2270 C.3   128  ASP128      0.1805
    152  C         16.2870  -19.5040  -54.3790 C.2   128  ASP128      0.2597
    153  O         16.3830  -20.7210  -54.1650 O.2   128  ASP128     -0.2718
    154  CB        14.9590  -18.0130  -52.8350 C.3   128  ASP128      0.1424
    155  CG        14.3120  -18.8360  -51.7040 C.2   128  ASP128      0.3668
    156  OD1       13.1410  -18.5410  -51.3510 O.co2 128  ASP128     -0.2456
    157  OD2       14.9500  -19.7750  -51.1700 O.co2 128  ASP128     -0.2456
    158  N         16.0780  -19.0090  -55.6040 N.am  129  LEU129     -0.1979
    159  CA        16.0200  -19.8990  -56.7650 C.3   129  LEU129      0.1596
    160  C         17.3280  -20.6490  -56.9470 C.2   129  LEU129      0.2287
    161  O         17.3200  -21.8630  -57.1720 O.2   129  LEU129     -0.2864
    162  CB        15.6940  -19.1110  -58.0350 C.3   129  LEU129      0.0297
    163  CG        14.3060  -18.4710  -58.1380 C.3   129  LEU129      0.0022
    164  CD1       14.2340  -17.7160  -59.4430 C.3   129  LEU129      0.0001
    165  CD2       13.2230  -19.5020  -58.1310 C.3   129  LEU129      0.0001
    166  N         17.5870  -23.3940  -54.0890 N.3   132  CYS132     -0.1235
    167  CA        16.7440  -24.5760  -54.2270 C.3   132  CYS132      0.1677
    168  C         15.6960  -24.3070  -55.2980 C.2   132  CYS132      0.2270
    169  O         14.8690  -23.4000  -55.1440 O.2   132  CYS132     -0.2867
    170  CB        16.0880  -24.9290  -52.8850 C.3   132  CYS132      0.0956
    171  SG        15.7850  -26.6960  -52.6260 S.3   132  CYS132     -0.0801
    172  N         12.4140  -24.2380  -57.0910 N.3   134  PRO134     -0.2116
    173  CA        11.0520  -24.4950  -56.6150 C.3   134  PRO134      0.1372
    174  C         10.5720  -25.8380  -57.1280 C.2   134  PRO134      0.2244
    175  O         10.9280  -26.2670  -58.2310 O.2   134  PRO134     -0.2868
    176  CB        10.2360  -23.3360  -57.1930 C.3   134  PRO134      0.0268
    177  CG        11.2370  -22.2430  -57.4120 C.3   134  PRO134      0.0207
    178  CD        12.5430  -22.9270  -57.7470 C.3   134  PRO134      0.0892
    179  N          9.6220  -26.8490  -60.9010 N.3   137  TRP137     -0.1241
    180  CA        10.2380  -25.9650  -61.8880 C.3   137  TRP137      0.1605
    181  C         11.3640  -26.6800  -62.6230 C.2   137  TRP137      0.2264
    182  O         12.1750  -27.3750  -62.0120 O.2   137  TRP137     -0.2867
    183  CB        10.8040  -24.6930  -61.2460 C.3   137  TRP137      0.0550
    184  CG         9.7780  -23.7060  -60.7950 C.ar  137  TRP137      0.0003
    185  CD1        8.5360  -23.9810  -60.2860 C.ar  137  TRP137      0.0946
    186  CD2        9.9030  -22.2790  -60.8000 C.ar  137  TRP137      0.0152
    187  NE1        7.8790  -22.8070  -59.9750 N.ar  137  TRP137     -0.2442
    188  CE2        8.6970  -21.7480  -60.2780 C.ar  137  TRP137      0.0810
    189  CE3       10.9180  -21.3950  -61.1890 C.ar  137  TRP137      0.0012
    190  CZ2        8.4830  -20.3710  -60.1420 C.ar  137  TRP137      0.0191
    191  CZ3       10.7020  -20.0410  -61.0610 C.ar  137  TRP137      0.0001
    192  CH2        9.4920  -19.5360  -60.5410 C.ar  137  TRP137      0.0015
    193  N         12.5750  -22.8430  -66.6460 N.3   141  ARG141     -0.1245
    194  CA        11.7040  -21.8810  -65.9800 C.3   141  ARG141      0.1563
    195  C         12.4930  -20.9630  -65.0510 C.2   141  ARG141      0.2260
    196  O         12.2260  -19.7540  -64.9910 O.2   141  ARG141     -0.2867
    197  CB        10.6030  -22.6140  -65.2170 C.3   141  ARG141      0.0307
    198  CG         9.5510  -21.6790  -64.6490 C.3   141  ARG141      0.0489
    199  CD         8.2970  -22.4450  -64.2130 C.3   141  ARG141      0.2205
    200  NE         7.3890  -21.5940  -63.4520 N.pl3 141  ARG141     -0.0865
    201  CZ         6.3210  -22.0360  -62.7930 C.cat 141  ARG141      0.5346
    202  NH1        6.0110  -23.3330  -62.8060 N.pl3 141  ARG141      0.1354
    203  NH2        5.5580  -21.1780  -62.1150 N.pl3 141  ARG141      0.1354
    204  N         12.8320  -16.8180  -65.4050 N.3   145  TYR145     -0.1241
    205  CA        12.5800  -15.8790  -64.3180 C.3   145  TYR145      0.1605
    206  C         13.7350  -14.9000  -64.1760 C.2   145  TYR145      0.2264
    207  O         13.5170  -13.6970  -63.9880 O.2   145  TYR145     -0.2867
    208  CB        12.3620  -16.6300  -63.0060 C.3   145  TYR145      0.0534
    209  CG        11.9800  -15.7430  -61.8310 C.ar  145  TYR145     -0.0201
    210  CD1       12.9520  -15.0980  -61.0650 C.ar  145  TYR145     -0.0009
    211  CD2       10.6560  -15.5620  -61.4800 C.ar  145  TYR145     -0.0009
    212  CE1       12.6060  -14.2880  -59.9750 C.ar  145  TYR145      0.0417
    213  CE2       10.3000  -14.7610  -60.3930 C.ar  145  TYR145      0.0417
    214  CZ        11.2790  -14.1330  -59.6470 C.ar  145  TYR145      0.1957
    215  OH        10.9220  -13.3380  -58.5840 O.3   145  TYR145     -0.2866
    216  N         13.5500  -12.2770  -66.9160 N.3   148  TRP148     -0.1241
    217  CA        12.5770  -11.2290  -66.6260 C.3   148  TRP148      0.1605
    218  C         13.0870  -10.3070  -65.5330 C.2   148  TRP148      0.2264
    219  O         13.0030   -9.0790  -65.6500 O.2   148  TRP148     -0.2867
    220  CB        11.2400  -11.8430  -66.2050 C.3   148  TRP148      0.0550
    221  CG        10.3440  -10.8420  -65.5290 C.ar  148  TRP148      0.0003
    222  CD1        9.7140   -9.7750  -66.1130 C.ar  148  TRP148      0.0946
    223  CD2        9.9720  -10.8190  -64.1400 C.ar  148  TRP148      0.0152
    224  NE1        8.9810   -9.0870  -65.1670 N.ar  148  TRP148     -0.2442
    225  CE2        9.1230   -9.7080  -63.9530 C.ar  148  TRP148      0.0810
    226  CE3       10.2820  -11.6270  -63.0350 C.ar  148  TRP148      0.0012
    227  CZ2        8.5780   -9.3880  -62.7060 C.ar  148  TRP148      0.0191
    228  CZ3        9.7450  -11.3030  -61.7910 C.ar  148  TRP148      0.0001
    229  CH2        8.9010  -10.1990  -61.6380 C.ar  148  TRP148      0.0015
@<TRIPOS>BOND
     1   216   217    1
     2   193   194    1
     3   217   220    1
     4   217   218    1
     5   113   112    1
     6   220   221    1
     7   222   221   ar
     8   222   224   ar
     9   112   111    1
    10   127   128    2
    11   127   126    1
    12   194   197    1
    13   194   195    1
    14   107   108    2
    15   107   106    1
    16   129   126    1
    17   129   130    1
    18   219   218    2
    19   221   223   ar
    20   204   205    1
    21   105   106    1
    22   197   198    1
    23   114   115    1
    24   224   225   ar
    25   126   125    1
    26   195   196    2
    27   131   130    1
    28   131   132    1
    29   125   116   am
    30   111   110    1
    31   106   109    1
    32   198   199    1
    33   110   109    1
    34   205   206    1
    35   205   208    1
    36   199   200    1
    37   206   207    2
    38   223   225   ar
    39   223   226   ar
    40   116   115    1
    41   116   117    2
    42   132   133    1
    43   225   227   ar
    44   115   118    1
    45   200   201    2
    46   226   228   ar
    47   208   209    1
    48   118   119    1
    49   202   201    1
    50   201   203    1
    51   227   229   ar
    52   181   182    2
    53   181   180    1
    54   119   120    1
    55   180   183    1
    56   180   179    1
    57   209   211   ar
    58   209   210   ar
    59   228   229   ar
    60   123   122    1
    61   211   213   ar
    62   124   122    1
    63   122   121    2
    64   183   184    1
    65   189   191   ar
    66   189   186   ar
    67   121   120    1
    68   210   212   ar
    69   191   192   ar
    70   186   184   ar
    71   186   188   ar
    72   184   185   ar
    73   192   190   ar
    74   213   214   ar
    75   185   187   ar
    76   188   190   ar
    77   188   187   ar
    78    99    98    2
    79   212   214   ar
    80    98    97    1
    81   214   215    1
    82    94    93   ar
    83   164   163    1
    84    93    95   ar
    85    93    92    1
    86    97    96    1
    87    97   100    1
    88    92    89    1
    89   175   174    2
    90   163   165    1
    91   163   162    1
    92   162   159    1
    93    89    90    1
    94    89    88    1
    95    90    91    2
    96   178   177    1
    97   178   172    1
    98   102   103    1
    99   102   101    1
   100   177   176    1
   101   100   101    1
   102   103   104    1
   103   176   173    1
   104   161   160    2
   105   174   173    1
   106   172   173    1
   107   160   159    1
   108   159   158    1
   109    31    30    1
   110    30    29    1
   111    29    28    1
   112   145   144    2
   113   158   152   am
   114   144   143    1
   115    77    76   ar
   116   146   143    1
   117   146   147    1
   118   168   169    2
   119   168   167    1
   120    76    78   ar
   121    76    75    1
   122   149   147   am
   123    28    27    1
   124   143   142    1
   125    27    24    1
   126   147   148    2
   127    75    74    1
   128   141   139   ar
   129   152   153    2
   130   152   151    1
   131   167   166    1
   132   167   170    1
   133   136   137    2
   134   136   135    1
   135    26    25    2
   136   150   151    1
   137   139   138    1
   138   139   140   ar
   139   138   135    1
   140    87    86    1
   141   151   154    1
   142    24    25    1
   143    24    23    1
   144   135   134    1
   145    73    72    2
   146    25    32   am
   147    74    71    1
   148   170   171    1
   149   154   155    1
   150    86    85    1
   151    71    72    1
   152    71    70    1
   153    72    79   am
   154    23    14   am
   155    32    33    1
   156    22    20    1
   157    33    34    1
   158    33    36    1
   159    68    67   ar
   160   155   156   ar
   161   155   157   ar
   162    84    85    1
   163    84    83    1
   164    21    20    1
   165    34    35    2
   166    20    19    2
   167    36    37    1
   168    60    61   ar
   169    60    58   ar
   170    79    80    1
   171    51    50    1
   172    14    15    2
   173    14    13    1
   174    61    59   ar
   175    80    83    1
   176    80    81    1
   177    67    69   ar
   178    67    66    1
   179    19    18    1
   180    49    50   ar
   181    49    47   ar
   182    58    57   ar
   183    13    16    1
   184    13    12    1
   185    50    48   ar
   186    18    17    1
   187    16    17    1
   188    59    57   ar
   189    81    82    2
   190    37    38   ar
   191    37    39   ar
   192     4     3    2
   193    63    66    1
   194    63    62    1
   195    63    64    1
   196    57    56    1
   197    65    64    2
   198    47    45   ar
   199    12     3   am
   200    48    46   ar
   201     3     2    1
   202    56    53    1
   203    45    46   ar
   204    45    44    1
   205     2     1    1
   206     2     5    1
   207     5     6    1
   208    53    54    1
   209    53    52    1
   210    55    54    2
   211    44    41    1
   212    41    42    1
   213    41    40    1
   214    43    42    2
   215     6     7    1
   216     7     8    1
   217     8     9    2
   218    10     9    1
   219     9    11    1
