@<TRIPOS>MOLECULE
tmp/5vxaA00.pdb
 234 227 0 0 0
SMALL
GASTEIGER

@<TRIPOS>ATOM
      1  N          4.3690  -24.4560  -34.2750 N.3    23  ARG23      -0.1231
      2  CA         3.7080  -24.4980  -32.9780 C.3    23  ARG23       0.1694
      3  C          2.7130  -25.6620  -32.9380 C.2    23  ARG23       0.2592
      4  O          2.4510  -26.3200  -33.9430 O.2    23  ARG23      -0.2718
      5  CB         3.0100  -23.1640  -32.7140 C.3    23  ARG23       0.0321
      6  CG         3.9980  -21.9930  -32.6600 C.3    23  ARG23       0.0489
      7  CD         4.6130  -21.8890  -31.2670 C.3    23  ARG23       0.2205
      8  NE         3.6310  -21.3620  -30.3150 N.pl3  23  ARG23      -0.0865
      9  CZ         3.8570  -21.1810  -29.0200 C.cat  23  ARG23       0.5346
     10  NH1        5.0210  -21.5150  -28.5020 N.pl3  23  ARG23       0.1354
     11  NH2        2.9090  -20.6670  -28.2400 N.pl3  23  ARG23       0.1354
     12  N          2.1680  -25.9290  -31.7560 N.am   24  LYS24      -0.1966
     13  CA         1.2830  -27.0690  -31.5680 C.3    24  LYS24       0.1728
     14  C         -0.1860  -26.7220  -31.7220 C.2    24  LYS24       0.2616
     15  O         -1.0340  -27.5790  -31.4330 O.2    24  LYS24      -0.2715
     16  CB         1.4920  -27.6890  -30.1870 C.3    24  LYS24       0.0311
     17  CG         2.8860  -28.1810  -29.8940 C.3    24  LYS24       0.0038
     18  CD         3.0730  -28.2150  -28.3780 C.3    24  LYS24       0.0206
     19  CE         4.3550  -28.9100  -27.9680 C.3    24  LYS24       0.1093
     20  NZ         4.4490  -29.0250  -26.4820 N.3    24  LYS24      -0.1314
     21  N         -0.5180  -25.4950  -32.1520 N.am   25  ASP25      -0.1971
     22  CA        -1.9090  -25.1940  -32.4660 C.3    25  ASP25       0.1709
     23  C         -2.3460  -26.0520  -33.6510 C.2    25  ASP25       0.2293
     24  O         -1.5080  -26.6010  -34.3680 O.2    25  ASP25      -0.2864
     25  CB        -2.1110  -23.6950  -32.7520 C.3    25  ASP25       0.1436
     26  CG        -1.2010  -23.1620  -33.8650 C.2    25  ASP25       0.3671
     27  OD1       -0.1840  -23.8020  -34.1730 O.co2  25  ASP25      -0.2456
     28  OD2       -1.5000  -22.0830  -34.4300 O.co2  25  ASP25      -0.2456
     29  N          6.9120  -21.5910  -36.2320 N.3    31  TYR31      -0.1241
     30  CA         7.4120  -21.3880  -34.8710 C.3    31  TYR31       0.1605
     31  C          7.9480  -19.9730  -34.6780 C.2    31  TYR31       0.2264
     32  O          7.7530  -19.3800  -33.6070 O.2    31  TYR31      -0.2867
     33  CB         8.4800  -22.4330  -34.5160 C.3    31  TYR31       0.0534
     34  CG         8.7280  -22.4420  -33.0240 C.ar   31  TYR31      -0.0201
     35  CD1        9.6820  -21.6040  -32.4560 C.ar   31  TYR31      -0.0009
     36  CD2        7.9550  -23.2280  -32.1730 C.ar   31  TYR31      -0.0009
     37  CE1        9.8910  -21.5810  -31.0890 C.ar   31  TYR31       0.0417
     38  CE2        8.1620  -23.2110  -30.8000 C.ar   31  TYR31       0.0417
     39  CZ         9.1360  -22.3830  -30.2720 C.ar   31  TYR31       0.1957
     40  OH         9.3440  -22.3390  -28.9180 O.3    31  TYR31      -0.2866
     41  N          6.2520  -17.1800  -32.6500 N.3    34  HIS34      -0.1241
     42  CA         6.3210  -17.0830  -31.1890 C.3    34  HIS34       0.1621
     43  C          7.4380  -16.1460  -30.7450 C.2    34  HIS34       0.2264
     44  O          7.1540  -15.1670  -30.0270 O.2    34  HIS34      -0.2867
     45  CB         6.4360  -18.4940  -30.5870 C.3    34  HIS34       0.0745
     46  CG         6.8600  -18.5430  -29.1450 C.ar   34  HIS34       0.0817
     47  ND1        6.0380  -18.1520  -28.1100 N.ar   34  HIS34      -0.2268
     48  CD2        7.9970  -18.9950  -28.5650 C.ar   34  HIS34       0.1154
     49  CE1        6.6600  -18.3390  -26.9570 C.ar   34  HIS34       0.1986
     50  NE2        7.8490  -18.8540  -27.2040 N.ar   34  HIS34      -0.2212
     51  N         14.5540  -19.2640  -27.9690 N.3    61  ASP61      -0.1239
     52  CA        14.2580  -20.6730  -28.1890 C.3    61  ASP61       0.1674
     53  C         15.2280  -21.3450  -29.1570 C.2    61  ASP61       0.2266
     54  O         15.0960  -22.5500  -29.4080 O.2    61  ASP61      -0.2867
     55  CB        12.8120  -20.8280  -28.6880 C.3    61  ASP61       0.1410
     56  CG        11.7880  -20.8180  -27.5400 C.2    61  ASP61       0.3668
     57  OD1       12.1040  -21.3730  -26.4660 O.co2  61  ASP61      -0.2456
     58  OD2       10.6740  -20.2650  -27.6960 O.co2  61  ASP61      -0.2456
     59  N         17.5230  -23.9110  -27.1310 N.3    64  GLU64      -0.1231
     60  CA        16.6810  -24.9640  -26.5720 C.3    64  GLU64       0.1699
     61  C         16.1240  -25.8950  -27.6510 C.2    64  GLU64       0.2592
     62  O         16.0440  -27.1120  -27.4480 O.2    64  GLU64      -0.2718
     63  CB        15.5460  -24.3270  -25.7750 C.3    64  GLU64       0.0402
     64  CG        14.6550  -25.2980  -25.0390 C.3    64  GLU64       0.1161
     65  CD        13.6030  -24.5740  -24.2170 C.2    64  GLU64       0.3649
     66  OE1       13.9710  -23.9560  -23.1810 O.co2  64  GLU64      -0.2457
     67  OE2       12.4160  -24.5900  -24.6360 O.co2  64  GLU64      -0.2457
     68  N         15.7290  -25.3560  -28.8020 N.am   65  LYS65      -0.1980
     69  CA        14.8910  -26.1150  -29.7260 C.3    65  LYS65       0.1596
     70  C         15.5650  -26.4870  -31.0340 C.2    65  LYS65       0.2287
     71  O         14.9710  -27.2340  -31.8210 O.2    65  LYS65      -0.2864
     72  CB        13.6130  -25.3310  -30.0480 C.3    65  LYS65       0.0298
     73  CG        12.8420  -24.9230  -28.8070 C.3    65  LYS65       0.0038
     74  CD        11.3600  -25.1980  -28.9700 C.3    65  LYS65       0.0206
     75  CE        10.7110  -25.5420  -27.6350 C.3    65  LYS65       0.1093
     76  NZ        10.8050  -24.4310  -26.6710 N.3    65  LYS65      -0.1314
     77  N         11.2220  -34.1220  -18.3500 N.3    96  LYS96      -0.1231
     78  CA        10.3110  -32.9930  -18.5150 C.3    96  LYS96       0.1693
     79  C          9.8670  -32.4260  -17.1770 C.2    96  LYS96       0.2591
     80  O          9.8290  -31.2060  -16.9970 O.2    96  LYS96      -0.2718
     81  CB         9.0950  -33.4060  -19.3360 C.3    96  LYS96       0.0285
     82  CG         9.3810  -33.5150  -20.8170 C.3    96  LYS96       0.0035
     83  CD         8.0900  -33.6170  -21.6310 C.3    96  LYS96       0.0206
     84  CE         8.1710  -34.7120  -22.7070 C.3    96  LYS96       0.1093
     85  NZ         7.2570  -34.4820  -23.8710 N.3    96  LYS96      -0.1314
     86  N          9.5110  -33.2880  -16.2270 N.am   97  LEU97      -0.1980
     87  CA         8.9930  -32.7690  -14.9670 C.3    97  LEU97       0.1596
     88  C         10.0610  -32.0090  -14.1920 C.2    97  LEU97       0.2287
     89  O          9.7460  -31.0150  -13.5250 O.2    97  LEU97      -0.2864
     90  CB         8.4070  -33.9020  -14.1330 C.3    97  LEU97       0.0297
     91  CG         7.2080  -34.5950  -14.7940 C.3    97  LEU97       0.0022
     92  CD1        6.7030  -35.7330  -13.9270 C.3    97  LEU97       0.0001
     93  CD2        6.0710  -33.6080  -15.0630 C.3    97  LEU97       0.0001
     94  N         12.4510  -30.2810  -15.6210 N.3    99  ARG99      -0.1231
     95  CA        12.5360  -28.9840  -16.2830 C.3    99  ARG99       0.1694
     96  C         11.3880  -28.0830  -15.8530 C.2    99  ARG99       0.2591
     97  O         11.6010  -26.9010  -15.5690 O.2    99  ARG99      -0.2718
     98  CB        12.5660  -29.1590  -17.8010 C.3    99  ARG99       0.0321
     99  CG        13.6770  -30.0820  -18.2690 C.3    99  ARG99       0.0489
    100  CD        14.0510  -29.8470  -19.7140 C.3    99  ARG99       0.2205
    101  NE        12.9420  -30.1100  -20.6210 N.pl3  99  ARG99      -0.0865
    102  CZ        12.7390  -31.2660  -21.2410 C.cat  99  ARG99       0.5346
    103  NH1       13.5710  -32.2790  -21.0480 N.pl3  99  ARG99       0.1354
    104  NH2       11.7010  -31.4040  -22.0550 N.pl3  99  ARG99       0.1354
    105  N         10.1730  -28.6330  -15.7600 N.am  100  LYS100     -0.1980
    106  CA         9.0400  -27.8640  -15.2550 C.3   100  LYS100      0.1596
    107  C          9.2990  -27.3650  -13.8390 C.2   100  LYS100      0.2287
    108  O          8.9640  -26.2220  -13.5040 O.2   100  LYS100     -0.2864
    109  CB         7.7670  -28.7120  -15.2850 C.3   100  LYS100      0.0298
    110  CG         7.1930  -28.9620  -16.6760 C.3   100  LYS100      0.0038
    111  CD         5.9470  -28.1240  -16.9220 C.3   100  LYS100      0.0206
    112  CE         5.2260  -28.5460  -18.1990 C.3   100  LYS100      0.1093
    113  NZ         4.0790  -27.6370  -18.5000 N.3   100  LYS100     -0.1314
    114  N          7.3740  -14.5110  -22.4340 N.3   121  ASP121     -0.1239
    115  CA         7.1980  -15.8480  -22.9990 C.3   121  ASP121      0.1674
    116  C          5.9710  -16.5310  -22.4010 C.2   121  ASP121      0.2266
    117  O          5.1100  -17.0460  -23.1300 O.2   121  ASP121     -0.2867
    118  CB         8.4850  -16.6520  -22.7640 C.3   121  ASP121      0.1410
    119  CG         8.4990  -17.9950  -23.4740 C.2   121  ASP121      0.3668
    120  OD1        8.0530  -18.0680  -24.6430 O.co2 121  ASP121     -0.2456
    121  OD2        9.0190  -18.9740  -22.8790 O.co2 121  ASP121     -0.2456
    122  N          2.3780  -17.5460  -24.3320 N.3   125  ASN125     -0.1240
    123  CA         1.8970  -18.9270  -24.4020 C.3   125  ASN125      0.1653
    124  C          0.5100  -19.0610  -23.7790 C.2   125  ASN125      0.2266
    125  O         -0.3360  -19.7930  -24.2970 O.2   125  ASN125     -0.2867
    126  CB         2.8870  -19.8810  -23.7350 C.3   125  ASN125      0.1155
    127  CG         4.1020  -20.1510  -24.5970 C.2   125  ASN125      0.2627
    128  OD1        4.0590  -19.9960  -25.8210 O.2   125  ASN125     -0.2716
    129  ND2        5.1960  -20.5460  -23.9680 N.am  125  ASN125     -0.0877
    130  N         -1.9450  -17.8020  -26.1900 N.3   128  ASP128     -0.1225
    131  CA        -2.0950  -18.8220  -27.2290 C.3   128  ASP128      0.1805
    132  C         -3.0210  -19.9440  -26.7700 C.2   128  ASP128      0.2597
    133  O         -3.9080  -20.3750  -27.5220 O.2   128  ASP128     -0.2718
    134  CB        -0.7200  -19.3890  -27.5850 C.3   128  ASP128      0.1424
    135  CG        -0.5580  -19.6650  -29.0610 C.2   128  ASP128      0.3668
    136  OD1       -1.5480  -19.5100  -29.8120 O.co2 128  ASP128     -0.2456
    137  OD2        0.5640  -20.0510  -29.4650 O.co2 128  ASP128     -0.2456
    138  N         -2.8270  -20.4350  -25.5370 N.am  129  LEU129     -0.1979
    139  CA        -3.6800  -21.5050  -25.0260 C.3   129  LEU129      0.1596
    140  C         -5.1330  -21.0640  -24.9390 C.2   129  LEU129      0.2287
    141  O         -6.0370  -21.8430  -25.2540 O.2   129  LEU129     -0.2864
    142  CB        -3.2110  -21.9750  -23.6510 C.3   129  LEU129      0.0297
    143  CG        -1.8770  -22.6970  -23.5750 C.3   129  LEU129      0.0022
    144  CD1       -1.6290  -23.1490  -22.1300 C.3   129  LEU129      0.0001
    145  CD2       -1.9140  -23.8740  -24.5200 C.3   129  LEU129      0.0001
    146  N         -6.4850  -21.0210  -28.6050 N.3   132  CYS132     -0.1235
    147  CA        -6.6310  -22.2980  -29.2960 C.3   132  CYS132      0.1677
    148  C         -6.0440  -23.3940  -28.4250 C.2   132  CYS132      0.2270
    149  O         -4.8420  -23.3770  -28.1510 O.2   132  CYS132     -0.2867
    150  CB        -5.9240  -22.2620  -30.6540 C.3   132  CYS132      0.0956
    151  SG        -6.7000  -23.2560  -31.9450 S.3   132  CYS132     -0.0801
    152  N         -4.1870  -26.5740  -27.8490 N.3   134  PRO134     -0.2116
    153  CA        -3.2710  -27.2540  -28.7660 C.3   134  PRO134      0.1372
    154  C         -3.8170  -28.6020  -29.1940 C.2   134  PRO134      0.2244
    155  O         -4.6120  -29.2270  -28.4900 O.2   134  PRO134     -0.2868
    156  CB        -1.9890  -27.4080  -27.9450 C.3   134  PRO134      0.0268
    157  CG        -2.0440  -26.2930  -26.9750 C.3   134  PRO134      0.0207
    158  CD        -3.5080  -26.1680  -26.6110 C.3   134  PRO134      0.0892
    159  N         -4.7350  -31.7690  -26.8690 N.3   137  TRP137     -0.1227
    160  CA        -4.8660  -31.4020  -25.4670 C.3   137  TRP137      0.1737
    161  C         -6.3230  -31.4140  -25.0270 C.2   137  TRP137      0.2596
    162  O         -7.2270  -31.0630  -25.7880 O.2   137  TRP137     -0.2718
    163  CB        -4.2960  -30.0110  -25.1930 C.3   137  TRP137      0.0564
    164  CG        -2.8220  -29.8990  -25.2190 C.ar  137  TRP137      0.0003
    165  CD1       -1.9520  -30.6080  -25.9840 C.ar  137  TRP137      0.0946
    166  CD2       -2.0400  -29.0040  -24.4380 C.ar  137  TRP137      0.0152
    167  NE1       -0.6630  -30.2030  -25.7290 N.ar  137  TRP137     -0.2442
    168  CE2       -0.6940  -29.2160  -24.7810 C.ar  137  TRP137      0.0810
    169  CE3       -2.3510  -28.0350  -23.4730 C.ar  137  TRP137      0.0012
    170  CZ2        0.3500  -28.4960  -24.1930 C.ar  137  TRP137      0.0191
    171  CZ3       -1.3170  -27.3200  -22.8890 C.ar  137  TRP137      0.0001
    172  CH2        0.0170  -27.5600  -23.2470 C.ar  137  TRP137      0.0015
    173  N         -6.5340  -31.7980  -23.7740 N.am  138  SER138     -0.1952
    174  CA        -7.8220  -31.6380  -23.1240 C.3   138  SER138      0.1924
    175  C         -7.8840  -30.2790  -22.4460 C.2   138  SER138      0.2314
    176  O         -6.8600  -29.6420  -22.1850 O.2   138  SER138     -0.2863
    177  CB        -8.0570  -32.7340  -22.0890 C.3   138  SER138      0.2116
    178  OG        -7.1960  -32.5680  -20.9740 O.3   138  SER138     -0.2180
    179  N         -8.5730  -29.6920  -19.3890 N.3   140  HIS140     -0.1226
    180  CA        -7.9560  -29.6340  -18.0690 C.3   140  HIS140      0.1752
    181  C         -6.4380  -29.6400  -18.1560 C.2   140  HIS140      0.2595
    182  O         -5.7700  -29.1530  -17.2350 O.2   140  HIS140     -0.2718
    183  CB        -8.4640  -30.7640  -17.1630 C.3   140  HIS140      0.0759
    184  CG        -7.9120  -32.1120  -17.4870 C.ar  140  HIS140      0.0818
    185  ND1       -8.5210  -32.9690  -18.3790 N.ar  140  HIS140     -0.2268
    186  CD2       -6.8320  -32.7720  -17.0080 C.ar  140  HIS140      0.1154
    187  CE1       -7.8280  -34.0920  -18.4510 C.ar  140  HIS140      0.1986
    188  NE2       -6.7980  -33.9980  -17.6290 N.ar  140  HIS140     -0.2212
    189  N         -5.8750  -30.1370  -19.2520 N.am  141  ARG141     -0.1980
    190  CA        -4.4420  -29.9710  -19.4520 C.3   141  ARG141      0.1597
    191  C         -4.0850  -28.4950  -19.6410 C.2   141  ARG141      0.2287
    192  O         -3.0560  -28.0300  -19.1380 O.2   141  ARG141     -0.2864
    193  CB        -3.9900  -30.8100  -20.6420 C.3   141  ARG141      0.0334
    194  CG        -2.5120  -30.7540  -20.8910 C.3   141  ARG141      0.0492
    195  CD        -2.1370  -31.6550  -22.0420 C.3   141  ARG141      0.2205
    196  NE        -0.7100  -31.5720  -22.3270 N.pl3 141  ARG141     -0.0865
    197  CZ        -0.0630  -32.3840  -23.1550 C.cat 141  ARG141      0.5346
    198  NH1       -0.7130  -33.3590  -23.7760 N.pl3 141  ARG141      0.1354
    199  NH2        1.2370  -32.2180  -23.3460 N.pl3 141  ARG141      0.1354
    200  N         -4.0530  -26.7680  -16.1810 N.3   144  GLU144     -0.1231
    201  CA        -2.8670  -27.1770  -15.4280 C.3   144  GLU144      0.1699
    202  C         -1.6220  -26.4590  -15.9160 C.2   144  GLU144      0.2592
    203  O         -0.7220  -26.1510  -15.1230 O.2   144  GLU144     -0.2718
    204  CB        -2.6630  -28.6850  -15.5350 C.3   144  GLU144      0.0402
    205  CG        -3.7330  -29.4900  -14.8540 C.3   144  GLU144      0.1161
    206  CD        -3.5200  -30.9750  -15.0540 C.2   144  GLU144      0.3649
    207  OE1       -2.6550  -31.3590  -15.8730 O.co2 144  GLU144     -0.2457
    208  OE2       -4.2150  -31.7620  -14.4040 O.co2 144  GLU144     -0.2457
    209  N         -1.5320  -26.2390  -17.2200 N.am  145  TYR145     -0.1976
    210  CA        -0.4860  -25.3700  -17.7030 C.3   145  TYR145      0.1639
    211  C         -0.5700  -24.0210  -16.9950 C.2   145  TYR145      0.2290
    212  O          0.4370  -23.5230  -16.4820 O.2   145  TYR145     -0.2864
    213  CB        -0.5800  -25.2310  -19.2160 C.3   145  TYR145      0.0560
    214  CG         0.6110  -24.5160  -19.7910 C.ar  145  TYR145     -0.0198
    215  CD1        0.6890  -23.1250  -19.7570 C.ar  145  TYR145     -0.0009
    216  CD2        1.6670  -25.2270  -20.3480 C.ar  145  TYR145     -0.0009
    217  CE1        1.7630  -22.4520  -20.2880 C.ar  145  TYR145      0.0417
    218  CE2        2.7710  -24.5550  -20.8810 C.ar  145  TYR145      0.0417
    219  CZ         2.8060  -23.1670  -20.8340 C.ar  145  TYR145      0.1957
    220  OH         3.8770  -22.4860  -21.3500 O.3   145  TYR145     -0.2866
    221  N          0.7000  -24.3360  -13.4410 N.3   148  TRP148     -0.1241
    222  CA         2.1610  -24.3510  -13.3720 C.3   148  TRP148      0.1605
    223  C          2.7520  -22.9790  -13.6960 C.2   148  TRP148      0.2264
    224  O          3.6770  -22.5130  -13.0130 O.2   148  TRP148     -0.2867
    225  CB         2.7070  -25.4020  -14.3310 C.3   148  TRP148      0.0550
    226  CG         4.1570  -25.2530  -14.6350 C.ar  148  TRP148      0.0003
    227  CD1        5.2080  -25.5490  -13.8070 C.ar  148  TRP148      0.0946
    228  CD2        4.7300  -24.7820  -15.8610 C.ar  148  TRP148      0.0152
    229  NE1        6.4000  -25.2990  -14.4510 N.ar  148  TRP148     -0.2442
    230  CE2        6.1340  -24.8170  -15.7070 C.ar  148  TRP148      0.0810
    231  CE3        4.1920  -24.3300  -17.0760 C.ar  148  TRP148      0.0012
    232  CZ2        7.0070  -24.4220  -16.7220 C.ar  148  TRP148      0.0191
    233  CZ3        5.0580  -23.9370  -18.0820 C.ar  148  TRP148      0.0001
    234  CH2        6.4500  -23.9900  -17.9010 C.ar  148  TRP148      0.0015
@<TRIPOS>BOND
     1    29    30    1
     2    30    31    1
     3    30    33    1
     4    31    32    2
     5    33    34    1
     6    28    26   ar
     7    24    23    2
     8     1     2    1
     9    27    26   ar
    10     4     3    2
    11    26    25    1
    12    23    22    1
    13    34    35   ar
    14    34    36   ar
    15     2     3    1
    16     2     5    1
    17     3    12   am
    18    25    22    1
    19     5     6    1
    20     6     7    1
    21    41    42    1
    22    22    21    1
    23    35    37   ar
    24    36    38   ar
    25    21    14   am
    26   151   150    1
    27    71    70    2
    28    12    13    1
    29    14    13    1
    30    14    15    2
    31    13    16    1
    32     7     8    1
    33    42    43    1
    34    42    45    1
    35    37    39   ar
    36    70    69    1
    37    38    39   ar
    38    43    44    2
    39   150   147    1
    40    45    46    1
    41     8     9    2
    42    39    40    1
    43    16    17    1
    44    72    69    1
    45    72    73    1
    46    17    18    1
    47   136   135   ar
    48    69    68    1
    49   137   135   ar
    50    54    53    2
    51   147   146    1
    52   147   148    1
    53   154   153    1
    54   154   155    2
    55    53    52    1
    56    46    48   ar
    57    46    47   ar
    58   135   134    1
    59     9    10    1
    60     9    11    1
    61    74    73    1
    62    74    75    1
    63    68    61   am
    64   153   156    1
    65   153   152    1
    66    55    52    1
    67    55    56    1
    68    48    50   ar
    69   148   149    2
    70    18    19    1
    71    52    51    1
    72    47    49   ar
    73    19    20    1
    74   156   157    1
    75   152   158    1
    76    58    56   ar
    77    61    62    2
    78    61    60    1
    79    75    76    1
    80   134   131    1
    81    56    57   ar
    82   133   132    2
    83   131   132    1
    84   131   130    1
    85    50    49   ar
    86    59    60    1
    87   157   158    1
    88   159   160    1
    89   132   138   am
    90    60    63    1
    91   165   167   ar
    92   165   164   ar
    93   128   127    2
    94   162   161    2
    95    63    64    1
    96   167   168   ar
    97   138   139    1
    98   160   163    1
    99   160   161    1
   100   141   140    2
   101   164   163    1
   102   164   166   ar
   103    64    65    1
   104   161   173   am
   105   139   140    1
   106   139   142    1
   107   168   166   ar
   108   168   170   ar
   109   120   119   ar
   110    67    65   ar
   111   127   129   am
   112   127   126    1
   113   145   143    1
   114   166   169   ar
   115   123   122    1
   116   123   124    1
   117   123   126    1
   118   125   124    2
   119    65    66   ar
   120   170   172   ar
   121    85    84    1
   122   198   197    1
   123   173   174    1
   124   142   143    1
   125   143   144    1
   126   119   121   ar
   127   119   118    1
   128   169   171   ar
   129   199   197    1
   130   172   171   ar
   131   197   196    2
   132   117   116    2
   133   174   175    1
   134   174   177    1
   135   115   118    1
   136   115   114    1
   137   115   116    1
   138    84    83    1
   139   175   176    2
   140   196   195    1
   141   177   178    1
   142   104   102    1
   143   195   194    1
   144    83    82    1
   145   220   219    1
   146   102   103    1
   147   102   101    2
   148   194   193    1
   149   218   219   ar
   150   218   216   ar
   151   219   217   ar
   152    82    81    1
   153   193   190    1
   154   101   100    1
   155   216   214   ar
   156   217   215   ar
   157   214   215   ar
   158   214   213    1
   159   100    99    1
   160   191   190    1
   161   191   192    2
   162   190   189    1
   163   179   180    1
   164    81    78    1
   165   189   181   am
   166   213   210    1
   167    78    77    1
   168    78    79    1
   169   113   112    1
   170   187   185   ar
   171   187   188   ar
   172   185   184   ar
   173    99    98    1
   174   112   111    1
   175   181   180    1
   176   181   182    2
   177   233   234   ar
   178   233   231   ar
   179   180   183    1
   180   234   232   ar
   181    98    95    1
   182   210   209    1
   183   210   211    1
   184   188   186   ar
   185   184   183    1
   186   184   186   ar
   187   209   202   am
   188    79    80    2
   189    79    86   am
   190   231   228   ar
   191   211   212    2
   192   111   110    1
   193   232   230   ar
   194   110   109    1
   195    95    96    1
   196    95    94    1
   197    86    87    1
   198   200   201    1
   199   202   201    1
   200   202   203    2
   201   207   206   ar
   202   228   230   ar
   203   228   226   ar
   204    96   105   am
   205    96    97    2
   206   105   106    1
   207   230   229   ar
   208   204   201    1
   209   204   205    1
   210   109   106    1
   211   106   107    1
   212    93    91    1
   213   206   205    1
   214   206   208   ar
   215    87    88    1
   216    87    90    1
   217    91    90    1
   218    91    92    1
   219   226   225    1
   220   226   227   ar
   221   229   227   ar
   222   225   222    1
   223    88    89    2
   224   107   108    2
   225   223   222    1
   226   223   224    2
   227   221   222    1
