@<TRIPOS>MOLECULE
tmp/5vxrA00.pdb
 93 92 0 0 0
SMALL
GASTEIGER

@<TRIPOS>ATOM
      1  N          3.6360  -39.9510   14.6160 N.3    32  TYR32      -0.1241
      2  CA         3.3970  -38.5150   14.6890 C.3    32  TYR32       0.1605
      3  C          4.6800  -37.8040   14.3120 C.2    32  TYR32       0.2264
      4  O          5.7610  -38.2070   14.7290 O.2    32  TYR32      -0.2867
      5  CB         2.9290  -38.0760   16.0670 C.3    32  TYR32       0.0534
      6  CG         1.5080  -38.4590   16.3770 C.ar   32  TYR32      -0.0201
      7  CD1        1.1890  -39.7470   16.7690 C.ar   32  TYR32      -0.0009
      8  CD2        0.4760  -37.5360   16.2720 C.ar   32  TYR32      -0.0009
      9  CE1       -0.1430  -40.1260   16.9890 C.ar   32  TYR32       0.0417
     10  CE2       -0.8410  -37.8780   16.5760 C.ar   32  TYR32       0.0417
     11  CZ        -1.1500  -39.1890   16.9100 C.ar   32  TYR32       0.1957
     12  OH        -2.4250  -39.5900   17.2680 O.3    32  TYR32      -0.2866
     13  N          2.6720  -30.8590   15.4730 N.3    48  TYR48      -0.1241
     14  CA         2.7830  -32.0870   14.6950 C.3    48  TYR48       0.1605
     15  C          1.7920  -32.1550   13.5600 C.2    48  TYR48       0.2264
     16  O          0.7760  -31.4540   13.5670 O.2    48  TYR48      -0.2867
     17  CB         2.6230  -33.3710   15.5520 C.3    48  TYR48       0.0534
     18  CG         1.2910  -33.6440   16.2310 C.ar   48  TYR48      -0.0201
     19  CD1        0.1490  -33.9420   15.4840 C.ar   48  TYR48      -0.0009
     20  CD2        1.2120  -33.8170   17.6200 C.ar   48  TYR48      -0.0009
     21  CE1       -1.0530  -34.2440   16.0930 C.ar   48  TYR48       0.0417
     22  CE2        0.0260  -34.2030   18.2310 C.ar   48  TYR48       0.0417
     23  CZ        -1.0930  -34.4530   17.4590 C.ar   48  TYR48       0.1957
     24  OH        -2.2840  -34.7730   18.0390 O.3    48  TYR48      -0.2866
     25  N         -0.1450  -35.7210   12.1810 N.3    50  SER50      -0.1202
     26  CA        -0.2900  -37.1390   12.5110 C.3    50  SER50       0.2020
     27  C         -0.1990  -38.0240   11.2990 C.2    50  SER50       0.2618
     28  O         -0.2420  -37.5390   10.1720 O.2    50  SER50      -0.2717
     29  CB        -1.6260  -37.4150   13.1890 C.3    50  SER50       0.2103
     30  OG        -2.6970  -37.4540   12.2500 O.3    50  SER50      -0.2182
     31  N         -0.1780  -39.3360   11.5660 N.am   51  TYR51      -0.1975
     32  CA        -0.2120  -40.3890   10.5540 C.3    51  TYR51       0.1639
     33  C         -1.3850  -40.2010    9.5710 C.2    51  TYR51       0.2290
     34  O         -1.2600  -40.6370    8.4180 O.2    51  TYR51      -0.2864
     35  CB        -0.3290  -41.7610   11.2300 C.3    51  TYR51       0.0560
     36  CG        -1.5460  -41.9120   12.1100 C.ar   51  TYR51      -0.0198
     37  CD1       -1.5080  -41.5530   13.4530 C.ar   51  TYR51      -0.0009
     38  CD2       -2.7180  -42.4760   11.6200 C.ar   51  TYR51      -0.0009
     39  CE1       -2.6260  -41.6740   14.2650 C.ar   51  TYR51       0.0417
     40  CE2       -3.8500  -42.5760   12.4120 C.ar   51  TYR51       0.0417
     41  CZ        -3.7850  -42.2330   13.7550 C.ar   51  TYR51       0.1957
     42  OH        -4.8900  -42.3790   14.5500 O.3    51  TYR51      -0.2866
     43  N         -3.8280  -35.0500   10.5300 N.3    54  ASP54      -0.1225
     44  CA        -4.3830  -34.0760   11.4830 C.3    54  ASP54       0.1805
     45  C         -3.2510  -33.3470   12.1670 C.2    54  ASP54       0.2598
     46  O         -2.1750  -33.9200   12.3280 O.2    54  ASP54      -0.2718
     47  CB        -5.2710  -34.7370   12.5360 C.3    54  ASP54       0.1424
     48  CG        -6.4810  -35.4220   11.9600 C.2    54  ASP54       0.3668
     49  OD1       -7.0730  -34.8660   11.0130 O.co2  54  ASP54      -0.2456
     50  OD2       -6.8990  -36.4590   12.5230 O.co2  54  ASP54      -0.2456
     51  N         -3.4770  -32.1130   12.5640 N.am   55  THR55      -0.1939
     52  CA        -2.4040  -31.3220   13.1440 C.3    55  THR55       0.2028
     53  C         -2.6850  -30.9090   14.5930 C.2    55  THR55       0.2642
     54  O         -3.8110  -30.9430   15.0790 O.2    55  THR55      -0.2714
     55  CB        -2.1490  -30.0730   12.2520 C.3    55  THR55       0.1808
     56  OG1       -3.3510  -29.3050   12.0750 O.3    55  THR55      -0.2208
     57  CG2       -1.5750  -30.4530   10.8700 C.3    55  THR55       0.0379
     58  N         -1.6270  -30.4700   15.2610 N.am   56  TYR56      -0.1973
     59  CA        -1.6720  -29.9540   16.6290 C.3    56  TYR56       0.1639
     60  C         -0.5890  -28.9310   16.7270 C.2    56  TYR56       0.2290
     61  O          0.5500  -29.2220   16.3570 O.2    56  TYR56      -0.2864
     62  CB        -1.5200  -31.0370   17.6980 C.3    56  TYR56       0.0560
     63  CG        -1.2540  -30.4340   19.0630 C.ar   56  TYR56      -0.0198
     64  CD1       -2.1670  -29.5680   19.6560 C.ar   56  TYR56      -0.0009
     65  CD2       -0.0640  -30.6900   19.7380 C.ar   56  TYR56      -0.0009
     66  CE1       -1.8830  -28.9410   20.8690 C.ar   56  TYR56       0.0417
     67  CE2        0.2200  -30.0860   20.9470 C.ar   56  TYR56       0.0417
     68  CZ        -0.6570  -29.1600   21.4760 C.ar   56  TYR56       0.1957
     69  OH        -0.3050  -28.5470   22.6510 O.3    56  TYR56      -0.2866
     70  N          7.3150  -39.2640   16.9670 N.3    96  MET96      -0.1245
     71  CA         6.6950  -39.7360   18.1870 C.3    96  MET96       0.1570
     72  C          5.8660  -40.9570   17.8110 C.2    96  MET96       0.2261
     73  O          5.3030  -41.0120   16.7060 O.2    96  MET96      -0.2867
     74  CB         5.7880  -38.6550   18.8360 C.3    96  MET96       0.0387
     75  CG         5.1040  -39.0950   20.1090 C.3    96  MET96       0.0595
     76  SD         3.9600  -37.8430   20.7450 S.3    96  MET96      -0.1393
     77  CE         2.5390  -38.0140   19.5900 C.3    96  MET96       0.0692
     78  N          2.7920  -43.8620   19.4490 N.3    98  TYR98      -0.1227
     79  CA         1.4490  -43.7240   20.0040 C.3    98  TYR98       0.1736
     80  C          1.5380  -43.8420   21.5480 C.2    98  TYR98       0.2596
     81  O          2.6060  -43.6050   22.1280 O.2    98  TYR98      -0.2718
     82  CB         0.5130  -44.7690   19.3480 C.3    98  TYR98       0.0548
     83  CG         0.4960  -44.7320   17.8250 C.ar   98  TYR98      -0.0200
     84  CD1        0.7610  -43.5540   17.1260 C.ar   98  TYR98      -0.0009
     85  CD2        0.1640  -45.8600   17.0850 C.ar   98  TYR98      -0.0009
     86  CE1        0.7710  -43.5220   15.7380 C.ar   98  TYR98       0.0417
     87  CE2        0.1110  -45.8240   15.6900 C.ar   98  TYR98       0.0417
     88  CZ         0.3910  -44.6470   15.0200 C.ar   98  TYR98       0.1957
     89  OH         0.4020  -44.5730   13.6390 O.3    98  TYR98      -0.2866
     90  N          0.4380  -44.1540   22.2030 N.am   99  GLY99      -0.1957
     91  CA         0.3750  -44.2110   23.6600 C.3    99  GLY99       0.1869
     92  C          1.4000  -45.0670   24.3720 C.2    99  GLY99       0.2309
     93  O          1.7170  -44.7850   25.5330 O.2    99  GLY99      -0.2863
@<TRIPOS>BOND
     1    34    33    2
     2    33    32    1
     3    28    27    2
     4    43    44    1
     5    32    35    1
     6    32    31    1
     7    57    55    1
     8    49    48   ar
     9    35    36    1
    10    27    31   am
    11    27    26    1
    12    44    45    1
    13    44    47    1
    14    38    36   ar
    15    38    40   ar
    16    48    50   ar
    17    48    47    1
    18    56    55    1
    19    36    37   ar
    20    45    46    2
    21    45    51   am
    22    25    26    1
    23    30    29    1
    24    55    52    1
    25    40    41   ar
    26    26    29    1
    27    51    52    1
    28    52    53    1
    29    37    39   ar
    30    15    16    2
    31    15    14    1
    32    89    88    1
    33    41    39   ar
    34    41    42    1
    35     3     2    1
    36     3     4    2
    37    53    54    2
    38    53    58   am
    39     1     2    1
    40     2     5    1
    41    14    13    1
    42    14    17    1
    43    88    87   ar
    44    88    86   ar
    45    58    59    1
    46    19    21   ar
    47    19    18   ar
    48    17    18    1
    49    87    85   ar
    50    86    84   ar
    51     5     6    1
    52    21    23   ar
    53    18    20   ar
    54     8     6   ar
    55     8    10   ar
    56    61    60    2
    57     6     7   ar
    58    10    11   ar
    59    59    60    1
    60    59    62    1
    61    73    72    2
    62     7     9   ar
    63    11     9   ar
    64    11    12    1
    65    70    71    1
    66    85    83   ar
    67    84    83   ar
    68    23    24    1
    69    23    22   ar
    70    20    22   ar
    71    62    63    1
    72    72    71    1
    73    83    82    1
    74    71    74    1
    75    74    75    1
    76    63    64   ar
    77    63    65   ar
    78    82    79    1
    79    78    79    1
    80    77    76    1
    81    64    66   ar
    82    65    67   ar
    83    79    80    1
    84    75    76    1
    85    66    68   ar
    86    67    68   ar
    87    68    69    1
    88    80    81    2
    89    80    90   am
    90    90    91    1
    91    91    92    1
    92    92    93    2
