@<TRIPOS>MOLECULE
tmp/5vxtB00.pdb
 114 103 0 0 0
SMALL
GASTEIGER

@<TRIPOS>ATOM
      1  N          8.1160    3.5870   34.3680 N.3    31  ARG31      -0.1231
      2  CA         8.4420    2.1790   34.5850 C.3    31  ARG31       0.1694
      3  C          7.5170    1.2670   33.7880 C.2    31  ARG31       0.2592
      4  O          7.9630    0.2570   33.2300 O.2    31  ARG31      -0.2718
      5  CB         8.3630    1.8490   36.0730 C.3    31  ARG31       0.0321
      6  CG         8.5760    0.3660   36.4190 C.3    31  ARG31       0.0489
      7  CD         9.9370   -0.1790   35.9810 C.3    31  ARG31       0.2205
      8  NE        10.2020   -1.4690   36.6170 N.pl3  31  ARG31      -0.0865
      9  CZ        11.2740   -2.2240   36.3970 C.cat  31  ARG31       0.5346
     10  NH1       12.1960   -1.8220   35.5330 N.pl3  31  ARG31       0.1354
     11  NH2       11.4110   -3.3860   37.0410 N.pl3  31  ARG31       0.1354
     12  N          6.2210    1.5950   33.7390 N.am   32  THR32      -0.1953
     13  CA         5.2840    0.7820   32.9620 C.3    32  THR32       0.1897
     14  C          5.5730    0.8880   31.4670 C.2    32  THR32       0.2313
     15  O          5.5070   -0.1120   30.7400 O.2    32  THR32      -0.2863
     16  CB         3.8480    1.2150   33.2680 C.3    32  THR32       0.1794
     17  OG1        3.5880    1.0180   34.6570 O.3    32  THR32      -0.2208
     18  CG2        2.8330    0.4010   32.4710 C.3    32  THR32       0.0378
     19  N          8.6090   -1.3850   30.7810 N.3    35  ILE35      -0.1231
     20  CA         8.2660   -2.8020   30.7820 C.3    35  ILE35       0.1692
     21  C          7.4610   -3.1580   29.5450 C.2    35  ILE35       0.2591
     22  O          7.7240   -4.1740   28.8900 O.2    35  ILE35      -0.2718
     23  CB         7.5090   -3.1840   32.0660 C.3    35  ILE35       0.0266
     24  CG1        8.4580   -3.0850   33.2620 C.3    35  ILE35       0.0019
     25  CG2        6.8930   -4.5990   31.9100 C.3    35  ILE35       0.0020
     26  CD1        7.8010   -3.3450   34.6060 C.3    35  ILE35       0.0001
     27  N          6.4450   -2.3460   29.2270 N.am   36  VAL36      -0.1980
     28  CA         5.5930   -2.6410   28.0710 C.3    36  VAL36       0.1595
     29  C          6.4130   -2.6220   26.7880 C.2    36  VAL36       0.2287
     30  O          6.2570   -3.4940   25.9220 O.2    36  VAL36      -0.2864
     31  CB         4.4090   -1.6550   28.0050 C.3    36  VAL36       0.0276
     32  CG1        3.7000   -1.7490   26.6370 C.3    36  VAL36       0.0022
     33  CG2        3.4090   -1.9330   29.1230 C.3    36  VAL36       0.0022
     34  N          8.3590   -5.9760   26.6530 N.3    39  LEU39      -0.1231
     35  CA         7.5520   -7.1750   26.4490 C.3    39  LEU39       0.1693
     36  C          6.8730   -7.1600   25.0900 C.2    39  LEU39       0.2591
     37  O          6.7910   -8.1960   24.4190 O.2    39  LEU39      -0.2718
     38  CB         6.5060   -7.3130   27.5450 C.3    39  LEU39       0.0284
     39  CG         7.0740   -7.4440   28.9580 C.3    39  LEU39       0.0019
     40  CD1        5.9420   -7.7370   29.9280 C.3    39  LEU39       0.0001
     41  CD2        8.1220   -8.5440   28.9860 C.3    39  LEU39       0.0001
     42  N          6.3620   -5.9980   24.6820 N.am   40  LEU40      -0.1980
     43  CA         5.7300   -5.8870   23.3700 C.3    40  LEU40       0.1596
     44  C          6.7430   -6.1090   22.2500 C.2    40  LEU40       0.2287
     45  O          6.4550   -6.8180   21.2740 O.2    40  LEU40      -0.2864
     46  CB         5.0610   -4.5180   23.2530 C.3    40  LEU40       0.0297
     47  CG         4.0790   -4.2580   22.1100 C.3    40  LEU40       0.0022
     48  CD1        2.8350   -5.1700   22.2170 C.3    40  LEU40       0.0001
     49  CD2        3.7080   -2.7760   22.0990 C.3    40  LEU40       0.0001
     50  N          7.4670   -9.7800   22.0570 N.3    43  LEU43      -0.1245
     51  CA         6.3740  -10.4850   21.3960 C.3    43  LEU43       0.1561
     52  C          6.4370  -10.2880   19.8860 C.2    43  LEU43       0.2260
     53  O          6.3610  -11.2580   19.1270 O.2    43  LEU43      -0.2867
     54  CB         5.0220  -10.0080   21.9260 C.3    43  LEU43       0.0270
     55  CG         3.7930  -10.5970   21.2210 C.3    43  LEU43       0.0019
     56  CD1        3.7370  -12.1590   21.2930 C.3    43  LEU43       0.0001
     57  CD2        2.5220   -9.9520   21.7790 C.3    43  LEU43       0.0001
     58  N         -4.9290  -14.3260   21.7860 N.3    61  VAL61      -0.1245
     59  CA        -5.6770  -13.1960   22.3320 C.3    61  VAL61       0.1561
     60  C         -7.0040  -13.6540   22.9190 C.2    61  VAL61       0.2260
     61  O         -7.3780  -13.2610   24.0310 O.2    61  VAL61      -0.2867
     62  CB        -5.8780  -12.1270   21.2420 C.3    61  VAL61       0.0252
     63  CG1       -6.8990  -11.0930   21.6920 C.3    61  VAL61       0.0019
     64  CG2       -4.5470  -11.4710   20.9520 C.3    61  VAL61       0.0019
     65  N         -6.6470  -15.3400   26.2120 N.3    64  LEU64      -0.1245
     66  CA        -6.5320  -14.4420   27.3630 C.3    64  LEU64       0.1561
     67  C         -7.8970  -13.9990   27.8560 C.2    64  LEU64       0.2260
     68  O         -8.0950  -13.8170   29.0610 O.2    64  LEU64      -0.2867
     69  CB        -5.6790  -13.2210   27.0090 C.3    64  LEU64       0.0270
     70  CG        -4.1880  -13.4350   26.7550 C.3    64  LEU64       0.0019
     71  CD1       -3.5230  -12.1170   26.3980 C.3    64  LEU64       0.0001
     72  CD2       -3.5230  -14.0550   27.9940 C.3    64  LEU64       0.0001
     73  N         -9.0500  -16.8320   29.8980 N.3    67  LEU67      -0.1245
     74  CA        -8.2440  -16.9580   31.1120 C.3    67  LEU67       0.1561
     75  C         -8.7200  -16.0000   32.1980 C.2    67  LEU67       0.2260
     76  O         -8.7720  -16.3620   33.3800 O.2    67  LEU67      -0.2867
     77  CB        -6.7650  -16.7140   30.7830 C.3    67  LEU67       0.0270
     78  CG        -5.7490  -16.7680   31.9440 C.3    67  LEU67       0.0019
     79  CD1       -5.4650  -18.1990   32.3790 C.3    67  LEU67       0.0001
     80  CD2       -4.4570  -16.0500   31.5850 C.3    67  LEU67       0.0001
     81  N         -5.5900  -16.3390   35.7770 N.3    73  ALA73      -0.1245
     82  CA        -4.2590  -15.8940   35.3670 C.3    73  ALA73       0.1562
     83  C         -3.1890  -16.2790   36.3890 C.2    73  ALA73       0.2260
     84  O         -2.0780  -16.6760   36.0100 O.2    73  ALA73      -0.2867
     85  CB        -4.2540  -14.3850   35.1100 C.3    73  ALA73       0.0290
     86  N         -2.3420  -19.9770   36.0140 N.3    76  LEU76      -0.1231
     87  CA        -1.4110  -20.2180   34.9180 C.3    76  LEU76       0.1693
     88  C         -0.0070  -19.7310   35.2660 C.2    76  LEU76       0.2591
     89  O          0.9870  -20.3430   34.8490 O.2    76  LEU76      -0.2718
     90  CB        -1.9100  -19.5380   33.6430 C.3    76  LEU76       0.0284
     91  CG        -1.0690  -19.8180   32.4030 C.3    76  LEU76       0.0019
     92  CD1       -1.2190  -21.2750   32.0080 C.3    76  LEU76       0.0001
     93  CD2       -1.5270  -18.9060   31.2630 C.3    76  LEU76       0.0001
     94  N          0.0980  -18.6160   36.0030 N.am   77  ALA77      -0.1980
     95  CA         1.4150  -18.1360   36.4010 C.3    77  ALA77       0.1597
     96  C          2.1490  -19.2000   37.2120 C.2    77  ALA77       0.2287
     97  O          3.3640  -19.3860   37.0630 O.2    77  ALA77      -0.2864
     98  CB         1.2830  -16.8320   37.1930 C.3    77  ALA77       0.0319
     99  N          2.8930  -22.3430   34.6200 N.3    80  LEU80      -0.1245
    100  CA         3.9840  -22.1280   33.6840 C.3    80  LEU80       0.1561
    101  C          5.3060  -21.8640   34.3970 C.2    80  LEU80       0.2260
    102  O          6.3010  -21.5420   33.7470 O.2    80  LEU80      -0.2867
    103  CB         3.6330  -20.9890   32.7080 C.3    80  LEU80       0.0270
    104  CG         2.4750  -21.2810   31.7500 C.3    80  LEU80       0.0019
    105  CD1        2.2770  -20.1030   30.7530 C.3    80  LEU80       0.0001
    106  CD2        2.6680  -22.5890   30.9930 C.3    80  LEU80       0.0001
    107  N          6.1570  -19.4840   36.2910 N.3    82  LEU82      -0.1245
    108  CA         6.4840  -18.0880   36.5500 C.3    82  LEU82       0.1561
    109  C          6.5550  -17.8160   38.0480 C.2    82  LEU82       0.2260
    110  O          7.4330  -17.0780   38.5130 O.2    82  LEU82      -0.2867
    111  CB         5.4590  -17.1800   35.8760 C.3    82  LEU82       0.0270
    112  CG         5.5240  -15.6730   36.1370 C.3    82  LEU82       0.0019
    113  CD1        6.8710  -15.0630   35.7270 C.3    82  LEU82       0.0001
    114  CD2        4.3780  -14.9420   35.4390 C.3    82  LEU82       0.0001
@<TRIPOS>BOND
     1    53    52    2
     2    52    51    1
     3    64    62    1
     4    55    56    1
     5    55    57    1
     6    55    54    1
     7    62    63    1
     8    62    59    1
     9    45    44    2
    10    51    54    1
    11    51    50    1
    12    58    59    1
    13    49    47    1
    14    47    48    1
    15    47    46    1
    16    44    43    1
    17    59    60    1
    18    60    61    2
    19    46    43    1
    20    43    42    1
    21    37    36    2
    22    42    36   am
    23    36    35    1
    24    30    29    2
    25    65    66    1
    26    71    70    1
    27    35    34    1
    28    35    38    1
    29    32    31    1
    30    70    69    1
    31    70    72    1
    32    29    28    1
    33    69    66    1
    34    66    67    1
    35    38    39    1
    36    67    68    2
    37    31    28    1
    38    31    33    1
    39    28    27    1
    40    22    21    2
    41    39    41    1
    42    39    40    1
    43    27    21   am
    44    21    20    1
    45    73    74    1
    46    15    14    2
    47   105   104    1
    48    19    20    1
    49    20    23    1
    50    77    74    1
    51    77    78    1
    52   106   104    1
    53    74    75    1
    54    93    91    1
    55    14    13    1
    56    80    78    1
    57   104   103    1
    58    25    23    1
    59    78    79    1
    60    92    91    1
    61    23    24    1
    62    75    76    2
    63    91    90    1
    64    18    16    1
    65   103   100    1
    66    13    16    1
    67    13    12    1
    68     4     3    2
    69    24    26    1
    70    16    17    1
    71    90    87    1
    72   100   101    1
    73   100    99    1
    74    12     3   am
    75   102   101    2
    76     3     2    1
    77     1     2    1
    78     2     5    1
    79    89    88    2
    80    87    88    1
    81    87    86    1
    82    85    82    1
    83    88    94   am
    84    82    81    1
    85    82    83    1
    86   114   112    1
    87    10     9    1
    88   113   112    1
    89   111   112    1
    90   111   108    1
    91     7     6    1
    92     7     8    1
    93    94    95    1
    94    84    83    2
    95     5     6    1
    96   107   108    1
    97     9     8    2
    98     9    11    1
    99    95    98    1
   100    95    96    1
   101   108   109    1
   102    97    96    2
   103   109   110    2
