@<TRIPOS>MOLECULE
tmp/5vxtB01.pdb
 150 139 0 0 0
SMALL
GASTEIGER

@<TRIPOS>ATOM
      1  N          8.3590   -5.9760   26.6530 N.3    39  LEU39      -0.1245
      2  CA         7.5520   -7.1750   26.4490 C.3    39  LEU39       0.1561
      3  C          6.8730   -7.1600   25.0900 C.2    39  LEU39       0.2260
      4  O          6.7910   -8.1960   24.4190 O.2    39  LEU39      -0.2867
      5  CB         6.5060   -7.3130   27.5450 C.3    39  LEU39       0.0270
      6  CG         7.0740   -7.4440   28.9580 C.3    39  LEU39       0.0019
      7  CD1        5.9420   -7.7370   29.9280 C.3    39  LEU39       0.0001
      8  CD2        8.1220   -8.5440   28.9860 C.3    39  LEU39       0.0001
      9  N          9.4710   -7.8960   22.4860 N.3    42  ASP42      -0.1225
     10  CA         9.8200   -9.3110   22.4880 C.3    42  ASP42       0.1805
     11  C          8.7330  -10.1360   21.8220 C.2    42  ASP42       0.2597
     12  O          9.0260  -11.1050   21.1070 O.2    42  ASP42      -0.2718
     13  CB        10.0470   -9.7880   23.9260 C.3    42  ASP42       0.1424
     14  CG        11.3600   -9.2910   24.5160 C.2    42  ASP42       0.3668
     15  OD1       12.1470   -8.6500   23.7890 O.co2  42  ASP42      -0.2456
     16  OD2       11.6120   -9.5510   25.7230 O.co2  42  ASP42      -0.2456
     17  N          7.4670   -9.7800   22.0570 N.am   43  LEU43      -0.1979
     18  CA         6.3740  -10.4850   21.3960 C.3    43  LEU43       0.1596
     19  C          6.4370  -10.2880   19.8860 C.2    43  LEU43       0.2287
     20  O          6.3610  -11.2580   19.1270 O.2    43  LEU43      -0.2864
     21  CB         5.0220  -10.0080   21.9260 C.3    43  LEU43       0.0297
     22  CG         3.7930  -10.5970   21.2210 C.3    43  LEU43       0.0022
     23  CD1        3.7370  -12.1590   21.2930 C.3    43  LEU43       0.0001
     24  CD2        2.5220   -9.9520   21.7790 C.3    43  LEU43       0.0001
     25  N          9.2340  -12.3510   18.4790 N.3    46  ALA46      -0.1245
     26  CA         8.9230  -13.7770   18.4780 C.3    46  ALA46       0.1562
     27  C          7.9240  -14.1300   17.3780 C.2    46  ALA46       0.2260
     28  O          8.0200  -15.2060   16.7770 O.2    46  ALA46      -0.2867
     29  CB         8.3920  -14.1930   19.8530 C.3    46  ALA46       0.0290
     30  N          4.4850  -16.5220   13.6010 N.3    52  ILE52      -0.1245
     31  CA         3.2140  -16.7600   14.2700 C.3    52  ILE52       0.1561
     32  C          2.1020  -16.0910   13.4720 C.2    52  ILE52       0.2260
     33  O          2.0620  -14.8600   13.3400 O.2    52  ILE52      -0.2867
     34  CB         3.2690  -16.2570   15.7180 C.3    52  ILE52       0.0252
     35  CG1        4.4300  -16.9540   16.4200 C.3    52  ILE52       0.0019
     36  CG2        1.9600  -16.5310   16.4200 C.3    52  ILE52       0.0019
     37  CD1        4.5410  -16.6230   17.9450 C.3    52  ILE52       0.0001
     38  N         -4.0330  -16.1090   12.6580 N.3    55  ASP55      -0.1225
     39  CA        -4.9080  -17.0860   13.3010 C.3    55  ASP55       0.1805
     40  C         -4.3440  -17.5110   14.6500 C.2    55  ASP55       0.2598
     41  O         -5.0760  -17.5910   15.6420 O.2    55  ASP55      -0.2718
     42  CB        -5.1140  -18.3150   12.4080 C.3    55  ASP55       0.1424
     43  CG        -6.0500  -18.0500   11.2450 C.2    55  ASP55       0.3668
     44  OD1       -6.3100  -16.8540   10.9610 O.co2  55  ASP55      -0.2456
     45  OD2       -6.5210  -19.0360   10.6140 O.co2  55  ASP55      -0.2456
     46  N         -3.0370  -17.7670   14.7080 N.am   56  GLU56      -0.1965
     47  CA        -2.4320  -18.1720   15.9760 C.3    56  GLU56       0.1733
     48  C         -2.4530  -17.0320   16.9870 C.2    56  GLU56       0.2616
     49  O         -2.7030  -17.2550   18.1790 O.2    56  GLU56      -0.2715
     50  CB        -1.0030  -18.6560   15.7450 C.3    56  GLU56       0.0429
     51  CG        -0.9480  -19.9930   15.0380 C.3    56  GLU56       0.1163
     52  CD         0.4590  -20.4160   14.6380 C.2    56  GLU56       0.3649
     53  OE1        1.2690  -19.5230   14.3210 O.co2  56  GLU56      -0.2457
     54  OE2        0.7500  -21.6430   14.6160 O.co2  56  GLU56      -0.2457
     55  N         -2.2130  -15.8040   16.5280 N.am   57  VAL57      -0.1977
     56  CA        -2.2150  -14.6720   17.4520 C.3    57  VAL57       0.1596
     57  C         -3.6050  -14.4670   18.0380 C.2    57  VAL57       0.2287
     58  O         -3.7580  -14.2740   19.2480 O.2    57  VAL57      -0.2864
     59  CB        -1.6880  -13.3990   16.7610 C.3    57  VAL57       0.0276
     60  CG1       -1.9320  -12.1680   17.6420 C.3    57  VAL57       0.0022
     61  CG2       -0.1880  -13.5440   16.4980 C.3    57  VAL57       0.0022
     62  N         -5.9780  -16.6710   18.3370 N.3    59  ALA59      -0.1231
     63  CA        -6.2450  -17.7550   19.2750 C.3    59  ALA59       0.1694
     64  C         -5.6340  -17.4340   20.6310 C.2    59  ALA59       0.2593
     65  O         -6.2480  -17.6880   21.6780 O.2    59  ALA59      -0.2718
     66  CB        -5.7080  -19.0780   18.7410 C.3    59  ALA59       0.0304
     67  N         -4.4320  -16.8550   20.6320 N.am   60  GLY60      -0.1942
     68  CA        -3.8090  -16.4810   21.8940 C.3    60  GLY60       0.2014
     69  C         -4.5230  -15.3270   22.5700 C.2    60  GLY60       0.2638
     70  O         -4.7130  -15.3270   23.7910 O.2    60  GLY60      -0.2714
     71  N         -4.9290  -14.3260   21.7860 N.am   61  VAL61      -0.1977
     72  CA        -5.6770  -13.1960   22.3320 C.3    61  VAL61       0.1596
     73  C         -7.0040  -13.6540   22.9190 C.2    61  VAL61       0.2287
     74  O         -7.3780  -13.2610   24.0310 O.2    61  VAL61      -0.2864
     75  CB        -5.8780  -12.1270   21.2420 C.3    61  VAL61       0.0276
     76  CG1       -6.8990  -11.0930   21.6920 C.3    61  VAL61       0.0022
     77  CG2       -4.5470  -11.4710   20.9520 C.3    61  VAL61       0.0022
     78  N         -7.6630  -16.6360   23.9500 N.3    63  TYR63      -0.1227
     79  CA        -7.3350  -17.4220   25.1280 C.3    63  TYR63       0.1736
     80  C         -7.2280  -16.5320   26.3600 C.2    63  TYR63       0.2595
     81  O         -7.6760  -16.9160   27.4470 O.2    63  TYR63      -0.2718
     82  CB        -6.0390  -18.1990   24.9070 C.3    63  TYR63       0.0548
     83  CG        -5.5770  -18.9160   26.1730 C.ar   63  TYR63      -0.0200
     84  CD1       -6.1120  -20.1480   26.5380 C.ar   63  TYR63      -0.0009
     85  CD2       -4.6330  -18.3320   27.0110 C.ar   63  TYR63      -0.0009
     86  CE1       -5.6970  -20.7940   27.7070 C.ar   63  TYR63       0.0417
     87  CE2       -4.2170  -18.9680   28.1770 C.ar   63  TYR63       0.0417
     88  CZ        -4.7510  -20.1890   28.5170 C.ar   63  TYR63       0.1957
     89  OH        -4.3290  -20.8130   29.6760 O.3    63  TYR63      -0.2866
     90  N         -6.6470  -15.3400   26.2120 N.am   64  LEU64      -0.1980
     91  CA        -6.5320  -14.4420   27.3630 C.3    64  LEU64       0.1596
     92  C         -7.8970  -13.9990   27.8560 C.2    64  LEU64       0.2287
     93  O         -8.0950  -13.8170   29.0610 O.2    64  LEU64      -0.2864
     94  CB        -5.6790  -13.2210   27.0090 C.3    64  LEU64       0.0297
     95  CG        -4.1880  -13.4350   26.7550 C.3    64  LEU64       0.0022
     96  CD1       -3.5230  -12.1170   26.3980 C.3    64  LEU64       0.0001
     97  CD2       -3.5230  -14.0550   27.9940 C.3    64  LEU64       0.0001
     98  N        -10.6400  -15.8560   27.8010 N.3    66  LYS66      -0.1245
     99  CA       -11.1220  -16.9790   28.5990 C.3    66  LYS66       0.1561
    100  C        -10.3610  -17.0910   29.9180 C.2    66  LYS66       0.2260
    101  O        -10.9510  -17.4120   30.9550 O.2    66  LYS66      -0.2867
    102  CB       -11.0060  -18.2720   27.7920 C.3    66  LYS66       0.0271
    103  CG       -11.4050  -19.5210   28.5680 C.3    66  LYS66       0.0035
    104  CD       -11.6040  -20.7040   27.6300 C.3    66  LYS66       0.0206
    105  CE       -11.4910  -22.0260   28.3640 C.3    66  LYS66       0.1093
    106  NZ       -12.2790  -22.0270   29.6240 N.3    66  LYS66      -0.1314
    107  N         -2.3420  -19.9770   36.0140 N.3    76  LEU76      -0.1245
    108  CA        -1.4110  -20.2180   34.9180 C.3    76  LEU76       0.1561
    109  C         -0.0070  -19.7310   35.2660 C.2    76  LEU76       0.2260
    110  O          0.9870  -20.3430   34.8490 O.2    76  LEU76      -0.2867
    111  CB        -1.9100  -19.5380   33.6430 C.3    76  LEU76       0.0270
    112  CG        -1.0690  -19.8180   32.4030 C.3    76  LEU76       0.0019
    113  CD1       -1.2190  -21.2750   32.0080 C.3    76  LEU76       0.0001
    114  CD2       -1.5270  -18.9060   31.2630 C.3    76  LEU76       0.0001
    115  N          2.8930  -22.3430   34.6200 N.3    80  LEU80      -0.1245
    116  CA         3.9840  -22.1280   33.6840 C.3    80  LEU80       0.1561
    117  C          5.3060  -21.8640   34.3970 C.2    80  LEU80       0.2260
    118  O          6.3010  -21.5420   33.7470 O.2    80  LEU80      -0.2867
    119  CB         3.6330  -20.9890   32.7080 C.3    80  LEU80       0.0270
    120  CG         2.4750  -21.2810   31.7500 C.3    80  LEU80       0.0019
    121  CD1        2.2770  -20.1030   30.7530 C.3    80  LEU80       0.0001
    122  CD2        2.6680  -22.5890   30.9930 C.3    80  LEU80       0.0001
    123  N         -6.7170  -26.2260   29.9860 N.3   212  GLN212     -0.1231
    124  CA        -6.8120  -26.2590   28.5300 C.3   212  GLN212      0.1698
    125  C         -5.4400  -26.0950   27.8870 C.2   212  GLN212      0.2592
    126  O         -5.0670  -26.8680   26.9950 O.2   212  GLN212     -0.2718
    127  CB        -7.7820  -25.1820   28.0470 C.3   212  GLN212      0.0381
    128  CG        -7.8780  -25.0470   26.5320 C.3   212  GLN212      0.0905
    129  CD        -8.8750  -23.9820   26.1080 C.2   212  GLN212      0.2608
    130  OE1      -10.0710  -24.0900   26.3840 O.2   212  GLN212     -0.2717
    131  NE2       -8.3850  -22.9420   25.4420 N.am  212  GLN212     -0.0878
    132  N         -4.6640  -25.1040   28.3370 N.am  213  LEU213     -0.1980
    133  CA        -3.3250  -24.9170   27.7850 C.3   213  LEU213      0.1596
    134  C         -2.3960  -26.0540   28.1890 C.2   213  LEU213      0.2287
    135  O         -1.6270  -26.5530   27.3600 O.2   213  LEU213     -0.2864
    136  CB        -2.7480  -23.5670   28.2260 C.3   213  LEU213      0.0297
    137  CG        -1.3190  -23.2380   27.7800 C.3   213  LEU213      0.0022
    138  CD1       -1.1710  -23.3830   26.2740 C.3   213  LEU213      0.0001
    139  CD2       -0.9160  -21.8240   28.2120 C.3   213  LEU213      0.0001
    140  N         -2.9790  -28.8730   26.0120 N.3   216  ARG216     -0.1245
    141  CA        -2.3640  -28.6640   24.7080 C.3   216  ARG216      0.1563
    142  C         -0.8590  -28.8910   24.7540 C.2   216  ARG216      0.2260
    143  O         -0.2700  -29.3620   23.7720 O.2   216  ARG216     -0.2867
    144  CB        -2.6820  -27.2560   24.2070 C.3   216  ARG216      0.0307
    145  CG        -2.3350  -27.0400   22.7660 C.3   216  ARG216      0.0489
    146  CD        -3.0500  -25.8270   22.2030 C.3   216  ARG216      0.2205
    147  NE        -2.9220  -25.7860   20.7550 N.pl3 216  ARG216     -0.0865
    148  CZ        -3.8220  -26.2840   19.9190 C.cat 216  ARG216      0.5346
    149  NH1       -4.9220  -26.8560   20.3940 N.pl3 216  ARG216      0.1354
    150  NH2       -3.6230  -26.2050   18.6100 N.pl3 216  ARG216      0.1354
@<TRIPOS>BOND
     1    45    43   ar
     2    44    43   ar
     3    43    42    1
     4    42    39    1
     5    38    39    1
     6    39    40    1
     7    33    32    2
     8    32    31    1
     9    30    31    1
    10    31    34    1
    11    53    52   ar
    12    54    52   ar
    13    52    51    1
    14    40    46   am
    15    40    41    2
    16    46    47    1
    17    51    50    1
    18    34    35    1
    19    34    36    1
    20    50    47    1
    21    47    48    1
    22    35    37    1
    23    61    59    1
    24    55    48   am
    25    55    56    1
    26    59    56    1
    27    59    60    1
    28    28    27    2
    29    48    49    2
    30    27    26    1
    31    56    57    1
    32    57    58    2
    33    62    63    1
    34    26    25    1
    35    26    29    1
    36   150   148    1
    37    66    63    1
    38    20    19    2
    39    63    64    1
    40    19    18    1
    41   148   149    1
    42   148   147    2
    43    64    67   am
    44    64    65    2
    45    67    68    1
    46   147   146    1
    47    77    75    1
    48    12    11    2
    49    22    23    1
    50    22    24    1
    51    22    21    1
    52    75    76    1
    53    75    72    1
    54    18    21    1
    55    18    17    1
    56    71    72    1
    57    71    69   am
    58    11    17   am
    59    11    10    1
    60    68    69    1
    61   146   145    1
    62    72    73    1
    63     9    10    1
    64    10    13    1
    65    69    70    2
    66   145   144    1
    67    73    74    2
    68   143   142    2
    69    15    14   ar
    70    13    14    1
    71    78    79    1
    72   144   141    1
    73     4     3    2
    74    14    16   ar
    75   141   142    1
    76   141   140    1
    77    82    79    1
    78    82    83    1
    79     3     2    1
    80    79    80    1
    81   131   129   am
    82   129   130    2
    83   129   128    1
    84    83    84   ar
    85    83    85   ar
    86    90    80   am
    87    90    91    1
    88   138   137    1
    89    80    81    2
    90    96    95    1
    91     2     1    1
    92     2     5    1
    93   128   127    1
    94    84    86   ar
    95    95    94    1
    96    95    97    1
    97   126   125    2
    98    94    91    1
    99    85    87   ar
   100   135   134    2
   101    91    92    1
   102     5     6    1
   103   104   105    1
   104   104   103    1
   105    86    88   ar
   106   137   139    1
   107   137   136    1
   108   133   134    1
   109   133   136    1
   110   133   132    1
   111   102   103    1
   112   102    99    1
   113    98    99    1
   114    92    93    2
   115   125   132   am
   116   125   124    1
   117   127   124    1
   118    87    88   ar
   119   105   106    1
   120    88    89    1
   121   124   123    1
   122    99   100    1
   123     6     8    1
   124     6     7    1
   125   100   101    2
   126   121   120    1
   127   122   120    1
   128   114   112    1
   129   120   119    1
   130   113   112    1
   131   112   111    1
   132   119   116    1
   133   111   108    1
   134   116   117    1
   135   116   115    1
   136   118   117    2
   137   110   109    2
   138   108   109    1
   139   108   107    1
