@<TRIPOS>MOLECULE
tmp/5vxtB02.pdb
 111 107 0 0 0
SMALL
GASTEIGER

@<TRIPOS>ATOM
      1  N         -3.3330  -18.8420   38.3820 N.3    75  LEU75      -0.1245
      2  CA        -3.1590  -20.2900   38.2950 C.3    75  LEU75       0.1561
      3  C         -2.2210  -20.6620   37.1520 C.2    75  LEU75       0.2260
      4  O         -1.3870  -21.5670   37.2880 O.2    75  LEU75      -0.2867
      5  CB        -4.5180  -20.9620   38.1230 C.3    75  LEU75       0.0270
      6  CG        -4.6170  -22.4800   38.2300 C.3    75  LEU75       0.0019
      7  CD1       -4.0350  -22.9270   39.5460 C.3    75  LEU75       0.0001
      8  CD2       -6.0630  -22.9030   38.1300 C.3    75  LEU75       0.0001
      9  N          1.4200  -19.9210   38.0610 N.3    78  ALA78      -0.1245
     10  CA         2.0190  -21.0460   38.7760 C.3    78  ALA78       0.1562
     11  C          2.3230  -22.1940   37.8240 C.2    78  ALA78       0.2260
     12  O          3.4250  -22.7580   37.8420 O.2    78  ALA78      -0.2867
     13  CB         1.0890  -21.5140   39.8940 C.3    78  ALA78       0.0290
     14  N          6.3200  -21.3020   46.7840 N.3   107  ILE107     -0.1245
     15  CA         5.3350  -20.3820   46.2400 C.3   107  ILE107      0.1561
     16  C          4.1380  -20.2380   47.1730 C.2   107  ILE107      0.2260
     17  O          3.8250  -21.1220   47.9850 O.2   107  ILE107     -0.2867
     18  CB         4.9010  -20.8190   44.8300 C.3   107  ILE107      0.0252
     19  CG1        4.0140  -22.0640   44.9040 C.3   107  ILE107      0.0019
     20  CG2        6.1420  -21.0260   43.9710 C.3   107  ILE107      0.0019
     21  CD1        3.5050  -22.5160   43.5660 C.3   107  ILE107      0.0001
     22  N          1.0090  -19.6150   45.9190 N.3   109  GLY109     -0.1210
     23  CA        -0.1830  -20.0980   45.2790 C.3   109  GLY109      0.1940
     24  C         -1.2430  -19.0170   45.3030 C.2   109  GLY109      0.2454
     25  O         -1.0640  -17.9550   45.9150 O.2   109  GLY109     -0.2732
     26  N         -2.3570  -19.2510   44.6090 N.am  110  PRO110     -0.2717
     27  CA        -3.4070  -18.2210   44.4870 C.3   110  PRO110      0.1535
     28  C         -4.5580  -18.3300   45.4840 C.2   110  PRO110      0.2598
     29  O         -5.5520  -17.6180   45.3060 O.2   110  PRO110     -0.2715
     30  CB        -3.9200  -18.4690   43.0630 C.3   110  PRO110      0.0310
     31  CG        -3.8040  -19.9500   42.9050 C.3   110  PRO110      0.0237
     32  CD        -2.5710  -20.3690   43.6730 C.3   110  PRO110      0.0939
     33  N         -4.4560  -19.1640   46.5250 N.am  111  LEU111     -0.1978
     34  CA        -5.6280  -19.5240   47.3180 C.3   111  LEU111      0.1596
     35  C         -5.5380  -19.0720   48.7730 C.2   111  LEU111      0.2287
     36  O         -6.2180  -19.6380   49.6340 O.2   111  LEU111     -0.2864
     37  CB        -5.8600  -21.0330   47.2420 C.3   111  LEU111      0.0297
     38  CG        -5.9070  -21.5430   45.7970 C.3   111  LEU111      0.0022
     39  CD1       -6.1190  -23.0420   45.7600 C.3   111  LEU111      0.0001
     40  CD2       -6.9930  -20.8180   45.0070 C.3   111  LEU111      0.0001
     41  N        -10.3020  -25.9280   48.4450 N.3   166  TYR166     -0.1241
     42  CA       -10.0630  -24.9760   49.5220 C.3   166  TYR166      0.1605
     43  C        -11.3380  -24.2000   49.8170 C.2   166  TYR166      0.2264
     44  O        -12.0960  -23.8680   48.9020 O.2   166  TYR166     -0.2867
     45  CB        -8.9640  -23.9800   49.1450 C.3   166  TYR166      0.0534
     46  CG        -7.5620  -24.5340   49.0250 C.ar  166  TYR166     -0.0201
     47  CD1       -7.2020  -25.3590   47.9660 C.ar  166  TYR166     -0.0009
     48  CD2       -6.5820  -24.1820   49.9450 C.ar  166  TYR166     -0.0009
     49  CE1       -5.9110  -25.8420   47.8510 C.ar  166  TYR166      0.0417
     50  CE2       -5.2950  -24.6530   49.8330 C.ar  166  TYR166      0.0417
     51  CZ        -4.9670  -25.4850   48.7900 C.ar  166  TYR166      0.1957
     52  OH        -3.6870  -25.9460   48.6880 O.3   166  TYR166     -0.2866
     53  N         -4.1260  -31.0660   44.8700 N.3   202  TYR202     -0.1241
     54  CA        -4.9540  -30.1440   44.1020 C.3   202  TYR202      0.1605
     55  C         -4.9210  -30.5070   42.6180 C.2   202  TYR202      0.2264
     56  O         -3.9580  -31.0940   42.1170 O.2   202  TYR202     -0.2867
     57  CB        -4.4650  -28.7020   44.3130 C.3   202  TYR202      0.0534
     58  CG        -5.1180  -27.6390   43.4430 C.ar  202  TYR202     -0.0201
     59  CD1       -6.2260  -26.9280   43.8880 C.ar  202  TYR202     -0.0009
     60  CD2       -4.6080  -27.3330   42.1840 C.ar  202  TYR202     -0.0009
     61  CE1       -6.8210  -25.9560   43.0930 C.ar  202  TYR202      0.0417
     62  CE2       -5.1980  -26.3650   41.3790 C.ar  202  TYR202      0.0417
     63  CZ        -6.3010  -25.6830   41.8380 C.ar  202  TYR202      0.1957
     64  OH        -6.8870  -24.7200   41.0420 O.3   202  TYR202     -0.2866
     65  N         -1.1640  -31.0260   41.7240 N.3   223  ARG223     -0.1245
     66  CA        -0.1780  -30.8090   42.7730 C.3   223  ARG223      0.1563
     67  C         -0.2240  -31.9660   43.7670 C.2   223  ARG223      0.2260
     68  O         -1.2810  -32.5710   43.9710 O.2   223  ARG223     -0.2867
     69  CB        -0.4070  -29.4930   43.5460 C.3   223  ARG223      0.0307
     70  CG        -0.3690  -28.2160   42.7260 C.3   223  ARG223      0.0489
     71  CD         0.2040  -27.0680   43.5480 C.3   223  ARG223      0.2205
     72  NE         1.5340  -27.4220   44.0210 N.pl3 223  ARG223     -0.0865
     73  CZ         2.0550  -27.0190   45.1720 C.cat 223  ARG223      0.5346
     74  NH1        1.3590  -26.2300   45.9830 N.pl3 223  ARG223      0.1354
     75  NH2        3.2720  -27.4200   45.5130 N.pl3 223  ARG223      0.1354
     76  N         -0.3480  -30.9420   50.1770 N.3   226  HIS226     -0.1241
     77  CA         0.5550  -29.9590   50.7560 C.3   226  HIS226      0.1621
     78  C         -0.2200  -29.0570   51.7030 C.2   226  HIS226      0.2264
     79  O         -1.4540  -29.0450   51.7150 O.2   226  HIS226     -0.2867
     80  CB         1.2320  -29.1190   49.6730 C.3   226  HIS226      0.0745
     81  CG         0.2670  -28.3140   48.8680 C.ar  226  HIS226      0.0817
     82  ND1       -0.4400  -28.8470   47.8120 N.ar  226  HIS226     -0.2268
     83  CD2       -0.1330  -27.0260   48.9790 C.ar  226  HIS226      0.1154
     84  CE1       -1.2250  -27.9180   47.2980 C.ar  226  HIS226      0.1986
     85  NE2       -1.0570  -26.8050   47.9880 N.ar  226  HIS226     -0.2212
     86  N          0.1150  -24.8890   53.1830 N.3   228  HIS228     -0.1241
     87  CA         0.7390  -23.5770   53.0260 C.3   228  HIS228      0.1621
     88  C          0.9720  -22.9030   54.3700 C.2   228  HIS228      0.2264
     89  O          0.1820  -23.0650   55.3010 O.2   228  HIS228     -0.2867
     90  CB        -0.1500  -22.6540   52.2000 C.3   228  HIS228      0.0745
     91  CG        -0.3380  -23.0850   50.7820 C.ar  228  HIS228      0.0817
     92  ND1        0.4720  -22.6370   49.7610 N.ar  228  HIS228     -0.2268
     93  CD2       -1.2530  -23.9030   50.2080 C.ar  228  HIS228      0.1154
     94  CE1        0.0660  -23.1620   48.6190 C.ar  228  HIS228      0.1986
     95  NE2       -0.9790  -23.9330   48.8610 N.ar  228  HIS228     -0.2212
     96  N          2.8310  -29.6950   39.1580 N.3   255  PHE255     -0.1227
     97  CA         2.6290  -28.8560   37.9740 C.3   255  PHE255      0.1736
     98  C          2.9990  -27.4020   38.2240 C.2   255  PHE255      0.2595
     99  O          3.1240  -26.6430   37.2550 O.2   255  PHE255     -0.2718
    100  CB         1.1810  -28.9480   37.4650 C.3   255  PHE255      0.0547
    101  CG         0.2730  -27.8250   37.9310 C.ar  255  PHE255     -0.0202
    102  CD1       -0.0580  -26.7760   37.0740 C.ar  255  PHE255     -0.0042
    103  CD2       -0.2750  -27.8390   39.2030 C.ar  255  PHE255     -0.0042
    104  CE1       -0.9030  -25.7510   37.4930 C.ar  255  PHE255     -0.0003
    105  CE2       -1.1220  -26.8220   39.6250 C.ar  255  PHE255     -0.0003
    106  CZ        -1.4300  -25.7740   38.7670 C.ar  255  PHE255     -0.0000
    107  N          3.1930  -27.0100   39.4840 N.am  256  ALA256     -0.1980
    108  CA         3.5760  -25.6470   39.8320 C.3   256  ALA256      0.1597
    109  C          5.0100  -25.5580   40.3400 C.2   256  ALA256      0.2287
    110  O          5.4350  -24.4810   40.8110 O.2   256  ALA256     -0.2864
    111  CB         2.6010  -25.0820   40.8650 C.3   256  ALA256      0.0319
@<TRIPOS>BOND
     1   102   104   ar
     2   102   101   ar
     3     3     4    2
     4     3     2    1
     5    99    98    2
     6   100   101    1
     7   100    97    1
     8   104   106   ar
     9    11    12    2
    10    11    10    1
    11   101   103   ar
    12    97    98    1
    13    97    96    1
    14     9    10    1
    15     5     6    1
    16     5     2    1
    17     8     6    1
    18    98   107   am
    19     6     7    1
    20     2     1    1
    21   106   105   ar
    22    10    13    1
    23   103   105   ar
    24   107   108    1
    25   108   109    1
    26   108   111    1
    27   109   110    2
    28    64    63    1
    29    62    63   ar
    30    62    60   ar
    31    65    66    1
    32    63    61   ar
    33    56    55    2
    34    60    58   ar
    35    55    54    1
    36    70    69    1
    37    70    71    1
    38    66    69    1
    39    66    67    1
    40    31    30    1
    41    31    32    1
    42    30    27    1
    43    61    59   ar
    44    58    59   ar
    45    58    57    1
    46    71    72    1
    47    21    19    1
    48    32    26    1
    49    67    68    2
    50    20    18    1
    51    72    73    2
    52    54    57    1
    53    54    53    1
    54    27    26    1
    55    27    28    1
    56    26    24   am
    57    18    19    1
    58    18    15    1
    59    40    38    1
    60    73    75    1
    61    73    74    1
    62    23    24    1
    63    23    22    1
    64    24    25    2
    65    29    28    2
    66    28    33   am
    67    39    38    1
    68    38    37    1
    69    15    14    1
    70    15    16    1
    71    33    34    1
    72    16    17    2
    73    37    34    1
    74    84    82   ar
    75    84    85   ar
    76    34    35    1
    77    82    81   ar
    78    49    47   ar
    79    49    51   ar
    80    47    46   ar
    81    85    83   ar
    82    41    42    1
    83    94    95   ar
    84    94    92   ar
    85    52    51    1
    86    35    36    2
    87    51    50   ar
    88    95    93   ar
    89    81    83   ar
    90    81    80    1
    91    44    43    2
    92    46    45    1
    93    46    48   ar
    94    45    42    1
    95    42    43    1
    96    80    77    1
    97    92    91   ar
    98    50    48   ar
    99    76    77    1
   100    93    91   ar
   101    77    78    1
   102    91    90    1
   103    78    79    2
   104    90    87    1
   105    87    86    1
   106    87    88    1
   107    88    89    2
