@<TRIPOS>MOLECULE
tmp/5vy8F01.pdb
 141 135 0 0 0
SMALL
GASTEIGER

@<TRIPOS>ATOM
      1  N         83.4430  157.1110  123.9650 N.3    19  ASP19      -0.1225
      2  CA        82.8690  158.1400  123.1150 C.3    19  ASP19       0.1790
      3  C         81.6180  157.6610  122.3470 C.2    19  ASP19       0.2440
      4  O         81.5570  156.5020  121.9510 O.2    19  ASP19      -0.2733
      5  CB        83.9270  158.6300  122.1400 C.3    19  ASP19       0.1423
      6  CG        85.0130  159.4890  122.8300 C.2    19  ASP19       0.3668
      7  OD1       84.8750  159.7810  124.0000 O.co2  19  ASP19      -0.2456
      8  OD2       85.9520  159.8800  122.1800 O.co2  19  ASP19      -0.2456
      9  N         80.5770  158.5000  122.1950 N.am   20  PRO20      -0.2718
     10  CA        79.4280  158.2510  121.3390 C.3    20  PRO20       0.1535
     11  C         79.8690  158.1870  119.9020 C.2    20  PRO20       0.2598
     12  O         80.7530  158.9390  119.5020 O.2    20  PRO20      -0.2715
     13  CB        78.5250  159.4480  121.6140 C.3    20  PRO20       0.0310
     14  CG        78.8950  159.8780  123.0110 C.3    20  PRO20       0.0237
     15  CD        80.3540  159.5430  123.1780 C.3    20  PRO20       0.0939
     16  N         79.2330  157.3560  119.1020 N.am   21  VAL21      -0.1964
     17  CA        79.6070  157.3510  117.7080 C.3    21  VAL21       0.1727
     18  C         78.3880  157.5780  116.8560 C.2    21  VAL21       0.2616
     19  O         77.3200  157.0480  117.1570 O.2    21  VAL21      -0.2715
     20  CB        80.2130  156.0000  117.3710 C.3    21  VAL21       0.0290
     21  CG1       81.4170  155.7520  118.2650 C.3    21  VAL21       0.0023
     22  CG2       79.1880  154.9200  117.5550 C.3    21  VAL21       0.0023
     23  N         78.5480  158.3440  115.7930 N.am   22  ILE22      -0.1977
     24  CA        77.4680  158.6020  114.8470 C.3    22  ILE22       0.1596
     25  C         77.9880  158.6240  113.4080 C.2    22  ILE22       0.2287
     26  O         79.1960  158.6700  113.1910 O.2    22  ILE22      -0.2864
     27  CB        76.7270  159.8960  115.1920 C.3    22  ILE22       0.0276
     28  CG1       77.6570  161.0430  115.1390 C.3    22  ILE22       0.0022
     29  CG2       76.0600  159.8270  116.5660 C.3    22  ILE22       0.0022
     30  CD1       76.9600  162.3280  115.3200 C.3    22  ILE22       0.0001
     31  N         77.7240  156.3550  111.2750 N.3    24  ARG24      -0.1245
     32  CA        78.1230  155.0040  111.0020 C.3    24  ARG24       0.1563
     33  C         76.9790  154.0560  111.1890 C.2    24  ARG24       0.2260
     34  O         77.1720  152.8530  111.1650 O.2    24  ARG24      -0.2867
     35  CB        79.2730  154.6700  111.9390 C.3    24  ARG24       0.0307
     36  CG        80.5120  155.4780  111.6240 C.3    24  ARG24       0.0489
     37  CD        81.0800  154.9790  110.3680 C.3    24  ARG24       0.2205
     38  NE        82.1930  155.7250  109.8780 N.pl3  24  ARG24      -0.0865
     39  CZ        82.1060  156.6610  108.9440 C.cat  24  ARG24       0.5346
     40  NH1       80.9650  156.9950  108.3750 N.pl3  24  ARG24       0.1354
     41  NH2       83.1860  157.2230  108.5880 N.pl3  24  ARG24       0.1354
     42  N         91.2350  153.2120  105.8900 N.3    49  PRO49      -0.2102
     43  CA        91.7160  153.2170  107.2550 C.3    49  PRO49       0.1504
     44  C         91.4910  154.5820  107.8470 C.2    49  PRO49       0.2576
     45  O         91.6070  155.5680  107.1290 O.2    49  PRO49      -0.2718
     46  CB        93.2020  152.8910  107.0840 C.3    49  PRO49       0.0282
     47  CG        93.5470  153.3940  105.6980 C.3    49  PRO49       0.0208
     48  CD        92.2830  153.1780  104.8710 C.3    49  PRO49       0.0893
     49  N         91.2490  154.6590  109.1520 N.am   50  GLY50      -0.1943
     50  CA        91.1090  155.9550  109.8400 C.3    50  GLY50       0.2014
     51  C         89.7400  156.6050  109.6120 C.2    50  GLY50       0.2639
     52  O         89.6260  157.8150  109.4320 O.2    50  GLY50      -0.2714
     53  N         88.7040  155.7930  109.5480 N.am   51  ILE51      -0.1963
     54  CA        87.3600  156.2820  109.2970 C.3    51  ILE51       0.1727
     55  C         86.4210  156.0150  110.4510 C.2    51  ILE51       0.2617
     56  O         85.2060  156.2300  110.3500 O.2    51  ILE51      -0.2715
     57  CB        86.8120  155.5900  108.0850 C.3    51  ILE51       0.0290
     58  CG1       86.7400  154.1440  108.3730 C.3    51  ILE51       0.0022
     59  CG2       87.7010  155.8450  106.9520 C.3    51  ILE51       0.0023
     60  CD1       86.0210  153.3790  107.3660 C.3    51  ILE51       0.0001
     61  N         86.9710  155.5460  111.5510 N.am   52  GLY52      -0.1940
     62  CA        86.1490  155.2150  112.6890 C.3    52  GLY52       0.2014
     63  C         85.7420  153.7570  112.6780 C.2    52  GLY52       0.2639
     64  O         84.6570  153.4170  113.1380 O.2    52  GLY52      -0.2714
     65  N         86.5860  152.8740  112.1640 N.am   53  LYS53      -0.1963
     66  CA        86.1940  151.4690  112.1840 C.3    53  LYS53       0.1728
     67  C         86.0050  151.0820  113.6460 C.2    53  LYS53       0.2617
     68  O         85.0530  150.3860  114.0000 O.2    53  LYS53      -0.2715
     69  CB        87.2240  150.6000  111.4910 C.3    53  LYS53       0.0311
     70  CG        87.2610  150.7960  110.0070 C.3    53  LYS53       0.0038
     71  CD        88.3400  149.9650  109.3880 C.3    53  LYS53       0.0206
     72  CE        88.5570  150.3220  107.9610 C.3    53  LYS53       0.1093
     73  NZ        89.7280  149.6560  107.4380 N.3    53  LYS53      -0.1314
     74  N         86.8580  151.6280  114.5110 N.am   54  THR54      -0.1937
     75  CA        86.7270  151.4230  115.9380 C.3    54  THR54       0.2028
     76  C         85.3690  151.9260  116.3590 C.2    54  THR54       0.2642
     77  O         84.6640  151.2760  117.1160 O.2    54  THR54      -0.2714
     78  CB        87.7580  152.2360  116.7210 C.3    54  THR54       0.1808
     79  OG1       89.0730  151.8540  116.3320 O.3    54  THR54      -0.2208
     80  CG2       87.5790  152.0230  118.1910 C.3    54  THR54       0.0379
     81  N         85.0020  153.0930  115.8540 N.am   55  ALA55      -0.1977
     82  CA        83.7490  153.7070  116.2220 C.3    55  ALA55       0.1597
     83  C         82.6040  152.7750  115.8720 C.2    55  ALA55       0.2287
     84  O         81.6440  152.6600  116.6250 O.2    55  ALA55      -0.2864
     85  CB        83.5970  155.0540  115.5400 C.3    55  ALA55       0.0319
     86  N         82.4740  150.3350  118.5790 N.3    58  GLU58      -0.1245
     87  CA        81.9660  150.9530  119.7870 C.3    58  GLU58       0.1567
     88  C         80.4600  151.0410  119.6460 C.2    58  GLU58       0.2260
     89  O         79.7090  150.8020  120.5920 O.2    58  GLU58      -0.2867
     90  CB        82.5880  152.3180  119.9500 C.3    58  GLU58       0.0388
     91  CG        84.0450  152.2490  120.2390 C.3    58  GLU58       0.1160
     92  CD        84.7170  153.5900  120.2130 C.2    58  GLU58       0.3649
     93  OE1       84.1230  154.5210  119.7440 O.co2  58  GLU58      -0.2457
     94  OE2       85.8320  153.6860  120.6670 O.co2  58  GLU58      -0.2457
     95  N         91.2840  144.1670  115.4660 N.3   119  ASP119     -0.1239
     96  CA        91.5790  145.4820  114.9060 C.3   119  ASP119      0.1674
     97  C         92.0910  145.3180  113.5140 C.2   119  ASP119      0.2266
     98  O         91.8230  146.1380  112.6390 O.2   119  ASP119     -0.2867
     99  CB        92.6390  146.2410  115.7000 C.3   119  ASP119      0.1410
    100  CG        92.1820  146.7930  117.0290 C.2   119  ASP119      0.3668
    101  OD1       91.0120  146.8360  117.2830 O.co2 119  ASP119     -0.2456
    102  OD2       93.0310  147.2050  117.7800 O.co2 119  ASP119     -0.2456
    103  N         79.8730  164.5500  114.0490 N.3   186  ILE186     -0.1245
    104  CA        80.6660  163.7630  114.9710 C.3   186  ILE186      0.1561
    105  C         81.3630  164.6580  115.9380 C.2   186  ILE186      0.2260
    106  O         81.3550  164.4040  117.1400 O.2   186  ILE186     -0.2867
    107  CB        81.6980  162.8990  114.2420 C.3   186  ILE186      0.0252
    108  CG1       80.9700  161.8200  113.4610 C.3   186  ILE186      0.0019
    109  CG2       82.7060  162.3070  115.2390 C.3   186  ILE186      0.0019
    110  CD1       81.8260  161.1000  112.4930 C.3   186  ILE186      0.0001
    111  N         81.1060  164.7300  119.9310 N.3   190  LEU190     -0.1245
    112  CA        82.2440  164.5660  120.8020 C.3   190  LEU190      0.1561
    113  C         82.6880  165.8600  121.4260 C.2   190  LEU190      0.2260
    114  O         83.5210  165.8600  122.3340 O.2   190  LEU190     -0.2867
    115  CB        83.3820  163.9300  120.0270 C.3   190  LEU190      0.0270
    116  CG        83.0250  162.5640  119.4750 C.3   190  LEU190      0.0019
    117  CD1       84.1960  161.9960  118.6920 C.3   190  LEU190      0.0001
    118  CD2       82.6040  161.6800  120.6190 C.3   190  LEU190      0.0001
    119  N         88.1320  162.6570  109.5540 N.3   224  PRO224     -0.2102
    120  CA        87.8780  162.6850  110.9700 C.3   224  PRO224      0.1504
    121  C         89.1240  162.6390  111.7850 C.2   224  PRO224      0.2575
    122  O         89.1610  163.1880  112.8740 O.2   224  PRO224     -0.2718
    123  CB        87.0060  161.4520  111.1860 C.3   224  PRO224      0.0282
    124  CG        87.3150  160.5910  110.0190 C.3   224  PRO224      0.0208
    125  CD        87.4680  161.5810  108.8940 C.3   224  PRO224      0.0893
    126  N         90.1950  162.0730  111.2600 N.am  225  ASP225     -0.1974
    127  CA        91.3680  162.0500  112.0990 C.3   225  ASP225      0.1708
    128  C         91.8840  163.4380  112.1680 C.2   225  ASP225      0.2293
    129  O         92.2230  163.9480  113.2290 O.2   225  ASP225     -0.2864
    130  CB        92.4600  161.1460  111.5550 C.3   225  ASP225      0.1436
    131  CG        92.1710  159.6790  111.6870 C.2   225  ASP225      0.3671
    132  OD1       91.2660  159.3250  112.4000 O.co2 225  ASP225     -0.2456
    133  OD2       92.8830  158.9090  111.0920 O.co2 225  ASP225     -0.2456
    134  N         89.5460  165.5700  114.3290 N.3   228  LEU228     -0.1245
    135  CA        89.6430  165.2590  115.7320 C.3   228  LEU228      0.1561
    136  C         90.9610  165.7480  116.2660 C.2   228  LEU228      0.2260
    137  O         91.0120  166.3060  117.3600 O.2   228  LEU228     -0.2867
    138  CB        89.4430  163.7590  115.9280 C.3   228  LEU228      0.0270
    139  CG        87.9850  163.2830  115.6280 C.3   228  LEU228      0.0019
    140  CD1       87.9030  161.7500  115.6000 C.3   228  LEU228      0.0001
    141  CD2       87.0630  163.8210  116.6780 C.3   228  LEU228      0.0001
@<TRIPOS>BOND
     1    48    47    1
     2    48    42    1
     3    47    46    1
     4    42    43    1
     5    59    57    1
     6    46    43    1
     7    45    44    2
     8    43    44    1
     9    60    58    1
    10    73    72    1
    11    44    49   am
    12    72    71    1
    13    57    58    1
    14    57    54    1
    15    40    39    1
    16    41    39    1
    17   125   119    1
    18   125   124    1
    19    39    38    2
    20    49    50    1
    21    54    53    1
    22    54    55    1
    23    71    70    1
    24    52    51    2
    25    53    51   am
    26   119   120    1
    27    51    50    1
    28    38    37    1
    29    70    69    1
    30   124   123    1
    31    56    55    2
    32    37    36    1
    33    55    61   am
    34   120   123    1
    35   120   121    1
    36    32    33    1
    37    32    31    1
    38    32    35    1
    39   133   131   ar
    40    34    33    2
    41   126   121   am
    42   126   127    1
    43    69    66    1
    44    61    62    1
    45   130   131    1
    46   130   127    1
    47    36    35    1
    48   131   132   ar
    49   121   122    2
    50   127   128    1
    51    65    66    1
    52    65    63   am
    53   128   129    2
    54    66    67    1
    55   110   108    1
    56    98    97    2
    57    63    62    1
    58    63    64    2
    59    26    25    2
    60    25    24    1
    61   108   107    1
    62    97    96    1
    63    67    68    2
    64    67    74   am
    65   103   104    1
    66   107   104    1
    67   107   109    1
    68   134   135    1
    69    74    75    1
    70    24    27    1
    71    24    23    1
    72    96    95    1
    73    96    99    1
    74   104   105    1
    75    28    27    1
    76    28    30    1
    77    27    29    1
    78    85    82    1
    79   140   139    1
    80   139   138    1
    81   139   141    1
    82    99   100    1
    83   135   138    1
    84   135   136    1
    85    23    18   am
    86    81    82    1
    87    81    76   am
    88    83    82    1
    89    83    84    2
    90    75    76    1
    91    75    78    1
    92   105   106    2
    93   136   137    2
    94    79    78    1
    95    76    77    2
    96    78    80    1
    97    18    19    2
    98    18    17    1
    99   100   101   ar
   100   100   102   ar
   101    20    22    1
   102    20    17    1
   103    20    21    1
   104    17    16    1
   105    86    87    1
   106   117   116    1
   107    16    11   am
   108   116   115    1
   109   116   118    1
   110    12    11    2
   111    88    87    1
   112    88    89    2
   113    93    92   ar
   114    87    90    1
   115    11    10    1
   116   111   112    1
   117    90    91    1
   118   115   112    1
   119    92    91    1
   120    92    94   ar
   121   112   113    1
   122    10    13    1
   123    10     9    1
   124   113   114    2
   125    13    14    1
   126     4     3    2
   127     5     6    1
   128     5     2    1
   129     8     6   ar
   130     9     3   am
   131     9    15    1
   132     3     2    1
   133     6     7   ar
   134    14    15    1
   135     2     1    1
