@<TRIPOS>MOLECULE
tmp/5vy8F00.pdb
 143 134 0 0 0
SMALL
GASTEIGER

@<TRIPOS>ATOM
      1  N        102.6840  189.0090   90.3160 N.3   286  GLU286     -0.1231
      2  CA       103.8420  188.1470   90.4810 C.3   286  GLU286      0.1699
      3  C        104.7770  188.1650   89.2770 C.2   286  GLU286      0.2592
      4  O        105.9970  188.1160   89.4430 O.2   286  GLU286     -0.2718
      5  CB       103.3960  186.7360   90.7720 C.3   286  GLU286      0.0402
      6  CG       102.7520  186.5510   92.1390 C.3   286  GLU286      0.1161
      7  CD       103.6890  186.8570   93.2930 C.2   286  GLU286      0.3649
      8  OE1      104.7780  186.3040   93.3510 O.co2 286  GLU286     -0.2457
      9  OE2      103.3170  187.6520   94.1240 O.co2 286  GLU286     -0.2457
     10  N        104.2150  188.2590   88.0770 N.am  287  VAL287     -0.1966
     11  CA       105.0090  188.3540   86.8570 C.3   287  VAL287      0.1727
     12  C        104.5260  189.6070   86.1650 C.2   287  VAL287      0.2616
     13  O        103.5110  190.1670   86.5640 O.2   287  VAL287     -0.2715
     14  CB       104.8720  187.1270   85.9150 C.3   287  VAL287      0.0290
     15  CG1      105.3140  185.8560   86.6270 C.3   287  VAL287      0.0023
     16  CG2      103.4680  186.9920   85.4220 C.3   287  VAL287      0.0023
     17  N        105.2490  190.0800   85.1700 N.am  288  VAL288     -0.1977
     18  CA       104.8330  191.2940   84.4950 C.3   288  VAL288      0.1596
     19  C        104.4970  191.0050   83.0510 C.2   288  VAL288      0.2287
     20  O        105.3000  190.4360   82.3120 O.2   288  VAL288     -0.2864
     21  CB       105.9380  192.3560   84.5960 C.3   288  VAL288      0.0276
     22  CG1      105.5170  193.6230   83.8930 C.3   288  VAL288      0.0022
     23  CG2      106.2500  192.6210   86.0550 C.3   288  VAL288      0.0022
     24  N        112.8900  181.2650   75.2540 N.3   323  SER323     -0.1202
     25  CA       113.7150  180.9400   76.4030 C.3   323  SER323      0.2020
     26  C        113.7570  182.1420   77.3390 C.2   323  SER323      0.2619
     27  O        113.9820  183.2680   76.8880 O.2   323  SER323     -0.2717
     28  CB       115.0900  180.5590   75.9250 C.3   323  SER323      0.2103
     29  OG       115.6390  181.6140   75.1920 O.3   323  SER323     -0.2182
     30  N        113.5040  181.9260   78.6260 N.am  324  GLY324     -0.1942
     31  CA       113.5220  182.9930   79.6190 C.3   324  GLY324      0.2014
     32  C        112.2880  183.9110   79.6400 C.2   324  GLY324      0.2640
     33  O        112.3330  184.9720   80.2820 O.2   324  GLY324     -0.2714
     34  N        111.2180  183.5660   78.8890 N.am  325  SER325     -0.1935
     35  CA       110.0150  184.3990   78.8140 C.3   325  SER325      0.2055
     36  C        108.9680  184.2090   79.9380 C.2   325  SER325      0.2644
     37  O        108.0060  184.9890   80.0200 O.2   325  SER325     -0.2714
     38  CB       109.3730  184.2940   77.4300 C.3   325  SER325      0.2130
     39  OG       108.8940  183.0030   77.1370 O.3   325  SER325     -0.2179
     40  N        109.1350  183.1980   80.8060 N.am  326  GLY326     -0.1939
     41  CA       108.2030  183.0090   81.9220 C.3   326  GLY326      0.2014
     42  C        107.2780  181.8090   81.9240 C.2   326  GLY326      0.2639
     43  O        106.3240  181.7760   82.7090 O.2   326  GLY326     -0.2714
     44  N        107.5400  180.8140   81.0960 N.am  327  LYS327     -0.1963
     45  CA       106.7000  179.6240   81.1190 C.3   327  LYS327      0.1728
     46  C        106.7250  179.0040   82.5360 C.2   327  LYS327      0.2617
     47  O        105.6730  178.8250   83.1680 O.2   327  LYS327     -0.2715
     48  CB       107.1360  178.6180   80.0340 C.3   327  LYS327      0.0311
     49  CG       107.0020  179.1520   78.5700 C.3   327  LYS327      0.0038
     50  CD       107.2840  178.0540   77.5020 C.3   327  LYS327      0.0206
     51  CE       108.7280  177.6000   77.4860 C.3   327  LYS327      0.1093
     52  NZ       109.6150  178.6660   77.0370 N.3   327  LYS327     -0.1314
     53  N        107.9250  178.7180   83.0520 N.am  328  THR328     -0.1937
     54  CA       108.0580  178.1460   84.3800 C.3   328  THR328      0.2028
     55  C        107.5310  179.0270   85.4610 C.2   328  THR328      0.2642
     56  O        106.8680  178.5470   86.3770 O.2   328  THR328     -0.2714
     57  CB       109.5050  177.8720   84.7710 C.3   328  THR328      0.1808
     58  OG1      110.0640  176.9120   83.8980 O.3   328  THR328     -0.2208
     59  CG2      109.5280  177.3890   86.2070 C.3   328  THR328      0.0379
     60  N        107.8550  180.3060   85.4300 N.am  329  GLU329     -0.1976
     61  CA       107.3820  181.0520   86.5580 C.3   329  GLU329      0.1602
     62  C        105.9060  181.1580   86.5500 C.2   329  GLU329      0.2287
     63  O        105.3190  181.0660   87.6090 O.2   329  GLU329     -0.2864
     64  CB       107.9860  182.4070   86.7020 C.3   329  GLU329      0.0415
     65  CG       109.4010  182.3400   87.0730 C.3   329  GLU329      0.1163
     66  CD       109.9310  183.6340   87.4800 C.2   329  GLU329      0.3649
     67  OE1      109.1990  184.5810   87.4450 O.co2 329  GLU329     -0.2457
     68  OE2      111.0770  183.6980   87.8640 O.co2 329  GLU329     -0.2457
     69  N        107.4900  168.0530   88.3030 N.3   347  ARG347     -0.1245
     70  CA       107.8310  168.2440   86.8920 C.3   347  ARG347      0.1563
     71  C        108.6370  167.1380   86.2220 C.2   347  ARG347      0.2260
     72  O        109.2380  166.2640   86.8580 O.2   347  ARG347     -0.2867
     73  CB       108.5120  169.5930   86.6780 C.3   347  ARG347      0.0307
     74  CG       109.8330  169.7910   87.3140 C.3   347  ARG347      0.0489
     75  CD       110.1150  171.2580   87.4730 C.3   347  ARG347      0.2205
     76  NE       110.2920  171.9990   86.2010 N.pl3 347  ARG347     -0.0865
     77  CZ       110.2030  173.3520   86.1160 C.cat 347  ARG347      0.5346
     78  NH1      109.9310  174.0390   87.2080 N.pl3 347  ARG347      0.1354
     79  NH2      110.3830  173.9730   84.9430 N.pl3 347  ARG347      0.1354
     80  N        109.0450  188.6370   76.4610 N.3   482  LEU482     -0.1245
     81  CA       108.9500  189.2220   77.7850 C.3   482  LEU482      0.1561
     82  C        109.2670  190.7120   77.7480 C.2   482  LEU482      0.2260
     83  O        108.4530  191.5240   78.1850 O.2   482  LEU482     -0.2867
     84  CB       109.8840  188.4590   78.7140 C.3   482  LEU482      0.0270
     85  CG       110.0310  188.9530   80.1190 C.3   482  LEU482      0.0019
     86  CD1      108.7070  188.8960   80.8600 C.3   482  LEU482      0.0001
     87  CD2      111.0180  188.0860   80.8110 C.3   482  LEU482      0.0001
     88  N        109.1000  194.5350   80.7190 N.3   486  ALA486     -0.1231
     89  CA       108.5070  193.7100   81.7630 C.3   486  ALA486      0.1694
     90  C        109.4800  193.5230   82.9190 C.2   486  ALA486      0.2591
     91  O        109.1510  193.6720   84.1090 O.2   486  ALA486     -0.2718
     92  CB       108.1250  192.3610   81.2050 C.3   486  ALA486      0.0304
     93  N        110.7320  193.2740   82.5650 N.am  487  ILE487     -0.1980
     94  CA       111.7070  193.0250   83.6110 C.3   487  ILE487      0.1595
     95  C        111.9570  194.3180   84.3570 C.2   487  ILE487      0.2287
     96  O        112.3480  194.3090   85.5180 O.2   487  ILE487     -0.2864
     97  CB       113.0080  192.4930   83.0590 C.3   487  ILE487      0.0276
     98  CG1      113.6280  193.5270   82.3000 C.3   487  ILE487      0.0022
     99  CG2      112.7280  191.3180   82.1370 C.3   487  ILE487      0.0022
    100  CD1      114.9480  193.2100   81.8230 C.3   487  ILE487      0.0001
    101  N        110.4630  193.6590   87.3380 N.3   490  ILE490     -0.1245
    102  CA       110.8560  192.4340   88.0440 C.3   490  ILE490      0.1561
    103  C        112.1580  192.6310   88.7620 C.2   490  ILE490      0.2260
    104  O        112.3990  192.0200   89.8040 O.2   490  ILE490     -0.2867
    105  CB       111.0530  191.2130   87.1520 C.3   490  ILE490      0.0252
    106  CG1      110.9180  189.9700   87.9900 C.3   490  ILE490      0.0019
    107  CG2      112.5230  191.1310   86.6510 C.3   490  ILE490      0.0019
    108  CD1      109.5760  189.7440   88.6170 C.3   490  ILE490      0.0001
    109  N        112.5850  191.3790   92.5550 N.3   494  ARG494     -0.1245
    110  CA       113.5710  190.4210   93.0030 C.3   494  ARG494      0.1563
    111  C        114.5250  191.0570   93.9590 C.2   494  ARG494      0.2260
    112  O        114.8690  190.4820   94.9770 O.2   494  ARG494     -0.2867
    113  CB       114.3570  189.9100   91.8360 C.3   494  ARG494      0.0307
    114  CG       113.5700  189.0740   90.9620 C.3   494  ARG494      0.0489
    115  CD       114.3410  188.5980   89.8370 C.3   494  ARG494      0.2205
    116  NE       113.4930  187.9670   88.8870 N.pl3 494  ARG494     -0.0865
    117  CZ       112.9920  186.7380   89.0010 C.cat 494  ARG494      0.5346
    118  NH1      113.2630  186.0050   90.0590 N.pl3 494  ARG494      0.1354
    119  NH2      112.2200  186.2750   88.0560 N.pl3 494  ARG494      0.1354
    120  N        115.1050  186.7400   80.7190 N.3   532  ALA532     -0.1231
    121  CA       115.4880  187.2780   82.0050 C.3   532  ALA532      0.1694
    122  C        116.5300  186.4780   82.7960 C.2   532  ALA532      0.2591
    123  O        117.0570  186.9730   83.7870 O.2   532  ALA532     -0.2718
    124  CB       114.2220  187.3820   82.8030 C.3   532  ALA532      0.0304
    125  N        116.8310  185.2430   82.4300 N.am  533  ARG533     -0.1980
    126  CA       117.7270  184.4870   83.3120 C.3   533  ARG533      0.1597
    127  C        119.0390  185.2050   83.6880 C.2   533  ARG533      0.2287
    128  O        119.3970  185.2510   84.8740 O.2   533  ARG533     -0.2864
    129  CB       118.0870  183.1190   82.7860 C.3   533  ARG533      0.0334
    130  CG       118.8610  182.3150   83.7660 C.3   533  ARG533      0.0492
    131  CD       119.4740  181.1490   83.1400 C.3   533  ARG533      0.2205
    132  NE       118.5100  180.2220   82.6020 N.pl3 533  ARG533     -0.0865
    133  CZ       118.8330  179.2540   81.7320 C.cat 533  ARG533      0.5346
    134  NH1      120.0800  179.1320   81.3470 N.pl3 533  ARG533      0.1354
    135  NH2      117.9090  178.4370   81.2650 N.pl3 533  ARG533      0.1354
    136  N        119.6560  187.3170   86.7930 N.3   536  ASN536     -0.1240
    137  CA       119.9470  186.7390   88.0850 C.3   536  ASN536      0.1653
    138  C        121.4230  186.6420   88.2380 C.2   536  ASN536      0.2266
    139  O        121.9740  186.9250   89.3010 O.2   536  ASN536     -0.2867
    140  CB       119.3500  185.3710   88.2050 C.3   536  ASN536      0.1155
    141  CG       117.9000  185.4090   88.3430 C.2   536  ASN536      0.2627
    142  OD1      117.3020  186.4110   88.7650 O.2   536  ASN536     -0.2716
    143  ND2      117.2910  184.3160   87.9870 N.am  536  ASN536     -0.0877
@<TRIPOS>BOND
     1    29    28    1
     2    24    25    1
     3    28    25    1
     4    25    26    1
     5    80    81    1
     6    27    26    2
     7    52    51    1
     8    39    38    1
     9    26    30   am
    10    38    35    1
    11    51    50    1
    12    50    49    1
    13    82    81    1
    14    82    83    2
    15    81    84    1
    16    49    48    1
    17    30    31    1
    18    84    85    1
    19    35    34    1
    20    35    36    1
    21    34    32   am
    22    31    32    1
    23    32    33    2
    24    36    37    2
    25    36    40   am
    26    48    45    1
    27    85    87    1
    28    85    86    1
    29    88    89    1
    30   120   121    1
    31    40    41    1
    32    44    45    1
    33    44    42   am
    34    45    46    1
    35    92    89    1
    36   135   133    1
    37   134   133    1
    38   133   132    2
    39    89    90    1
    40   100    98    1
    41    41    42    1
    42    42    43    2
    43   121   122    1
    44   121   124    1
    45    99    97    1
    46    98    97    1
    47    20    19    2
    48   125   122   am
    49   125   126    1
    50    46    53   am
    51    46    47    2
    52    93    90   am
    53    93    94    1
    54   132   131    1
    55   129   126    1
    56   129   130    1
    57   122   123    2
    58    90    91    2
    59    19    18    1
    60    53    54    1
    61    97    94    1
    62   131   130    1
    63   126   127    1
    64    94    95    1
    65   127   128    2
    66    22    21    1
    67    58    57    1
    68    95    96    2
    69    54    57    1
    70    54    55    1
    71    18    21    1
    72    18    17    1
    73    21    23    1
    74    57    59    1
    75    79    77    1
    76    17    12   am
    77    16    14    1
    78    60    55   am
    79    60    61    1
    80    55    56    2
    81    14    15    1
    82    14    11    1
    83    77    76    2
    84    77    78    1
    85    12    13    2
    86    12    11    1
    87    76    75    1
    88    71    72    2
    89    71    70    1
    90    62    61    1
    91    62    63    2
    92    61    64    1
    93   107   105    1
    94    73    70    1
    95    73    74    1
    96    64    65    1
    97   136   137    1
    98    11    10    1
    99    70    69    1
   100    65    66    1
   101   105   106    1
   102   105   102    1
   103    74    75    1
   104   101   102    1
   105    67    66   ar
   106    66    68   ar
   107   143   141   am
   108   106   108    1
   109   102   103    1
   110   119   117    1
   111    10     3   am
   112   137   140    1
   113   137   138    1
   114   140   141    1
   115   138   139    2
   116   141   142    2
   117   103   104    2
   118   116   117    2
   119   116   115    1
   120   117   118    1
   121     3     4    2
   122     3     2    1
   123   115   114    1
   124     1     2    1
   125     2     5    1
   126     5     6    1
   127   114   113    1
   128   113   110    1
   129     6     7    1
   130   109   110    1
   131   110   111    1
   132     7     8   ar
   133     7     9   ar
   134   111   112    2
