@<TRIPOS>MOLECULE
tmp/5vy8C00.pdb
 148 143 0 0 0
SMALL
GASTEIGER

@<TRIPOS>ATOM
      1  N        165.4800  110.4400  136.9940 N.3    19  ASP19      -0.1225
      2  CA       166.2110  110.1420  135.7920 C.3    19  ASP19       0.1790
      3  C        167.0500  111.3570  135.4220 C.2    19  ASP19       0.2440
      4  O        166.6460  112.4740  135.7350 O.2    19  ASP19      -0.2733
      5  CB       165.2470  109.7450  134.7000 C.3    19  ASP19       0.1423
      6  CG       164.6800  108.3850  135.0220 C.2    19  ASP19       0.3668
      7  OD1      165.1700  107.7960  135.9570 O.co2  19  ASP19      -0.2456
      8  OD2      163.7680  107.9290  134.3620 O.co2  19  ASP19      -0.2456
      9  N        168.2090  111.1920  134.7850 N.am   20  PRO20      -0.2718
     10  CA       169.0650  112.2660  134.3330 C.3    20  PRO20       0.1535
     11  C        168.3880  112.9930  133.2070 C.2    20  PRO20       0.2598
     12  O        167.5380  112.4190  132.5340 O.2    20  PRO20      -0.2715
     13  CB       170.3310  111.5370  133.8930 C.3    20  PRO20       0.0310
     14  CG       169.8730  110.1380  133.5740 C.3    20  PRO20       0.0237
     15  CD       168.7670  109.8570  134.5760 C.3    20  PRO20       0.0939
     16  N        168.7590  114.2470  132.9940 N.am   21  VAL21      -0.1964
     17  CA       168.1550  115.0190  131.9230 C.3    21  VAL21       0.1727
     18  C        169.1220  115.2200  130.7870 C.2    21  VAL21       0.2616
     19  O        170.1970  115.7790  130.9730 O.2    21  VAL21      -0.2715
     20  CB       167.7090  116.3780  132.4510 C.3    21  VAL21       0.0290
     21  CG1      167.0690  117.1850  131.3120 C.3    21  VAL21       0.0023
     22  CG2      166.7810  116.1540  133.6350 C.3    21  VAL21       0.0023
     23  N        168.7390  114.7570  129.6150 N.am   22  ILE22      -0.1977
     24  CA       169.6320  114.8370  128.4580 C.3    22  ILE22       0.1596
     25  C        169.0950  115.6240  127.2480 C.2    22  ILE22       0.2287
     26  O        167.9720  115.3900  126.8070 O.2    22  ILE22      -0.2864
     27  CB       169.9750  113.4090  127.9870 C.3    22  ILE22       0.0276
     28  CG1      170.5690  112.6110  129.1130 C.3    22  ILE22       0.0022
     29  CG2      170.8940  113.4300  126.7780 C.3    22  ILE22       0.0022
     30  CD1      169.5290  111.7280  129.7940 C.3    22  ILE22       0.0001
     31  N        168.3600  118.9510  126.7650 N.3    24  ARG24      -0.1245
     32  CA       167.5310  120.1230  126.9770 C.3    24  ARG24       0.1563
     33  C        168.2740  121.2360  127.6570 C.2    24  ARG24       0.2260
     34  O        167.6800  122.0630  128.3430 O.2    24  ARG24      -0.2867
     35  CB       166.3190  119.7860  127.7950 C.3    24  ARG24       0.0307
     36  CG       165.3540  118.8230  127.1700 C.3    24  ARG24       0.0489
     37  CD       164.7290  119.4440  125.9790 C.3    24  ARG24       0.2205
     38  NE       163.6550  118.6600  125.4430 N.pl3  24  ARG24      -0.0865
     39  CZ       163.0760  118.8440  124.2460 C.cat  24  ARG24       0.5346
     40  NH1      163.4490  119.7860  123.4160 N.pl3  24  ARG24       0.1354
     41  NH2      162.1220  118.0470  123.8940 N.pl3  24  ARG24       0.1354
     42  N        153.6750  116.2310  124.9110 N.3    49  PRO49      -0.2102
     43  CA       153.9890  115.3880  126.0550 C.3    49  PRO49       0.1504
     44  C        155.0080  114.3400  125.6620 C.2    49  PRO49       0.2576
     45  O        155.1750  114.0770  124.4800 O.2    49  PRO49      -0.2718
     46  CB       152.6330  114.7830  126.4030 C.3    49  PRO49       0.0282
     47  CG       151.8870  114.7550  125.1040 C.3    49  PRO49       0.0208
     48  CD       152.3160  116.0070  124.3780 C.3    49  PRO49       0.0893
     49  N        155.6910  113.7290  126.6190 N.am   50  GLY50      -0.1943
     50  CA       156.5890  112.6260  126.2880 C.3    50  GLY50       0.2014
     51  C        157.9260  113.0890  125.7310 C.2    50  GLY50       0.2639
     52  O        158.6780  112.2910  125.1630 O.2    50  GLY50      -0.2714
     53  N        158.2090  114.3890  125.8470 N.am   51  ILE51      -0.1963
     54  CA       159.4480  114.9270  125.3130 C.3    51  ILE51       0.1727
     55  C        160.3340  115.6100  126.3470 C.2    51  ILE51       0.2617
     56  O        161.1390  116.4800  126.0060 O.2    51  ILE51      -0.2715
     57  CB       159.2050  115.8820  124.1410 C.3    51  ILE51       0.0290
     58  CG1      158.3640  116.9900  124.5610 C.3    51  ILE51       0.0022
     59  CG2      158.5270  115.1630  123.0110 C.3    51  ILE51       0.0023
     60  CD1      158.2760  118.1120  123.5240 C.3    51  ILE51       0.0001
     61  N        160.2130  115.2420  127.6100 N.am   52  GLY52      -0.1940
     62  CA       161.0980  115.7990  128.6170 C.3    52  GLY52       0.2014
     63  C        160.6870  117.1080  129.2710 C.2    52  GLY52       0.2639
     64  O        161.5190  117.7390  129.9020 O.2    52  GLY52      -0.2714
     65  N        159.4470  117.5380  129.1860 N.am   53  LYS53      -0.1963
     66  CA       159.1180  118.7920  129.8330 C.3    53  LYS53       0.1728
     67  C        159.3740  118.6700  131.3060 C.2    53  LYS53       0.2617
     68  O        159.8610  119.5940  131.9570 O.2    53  LYS53      -0.2715
     69  CB       157.6580  119.1420  129.7050 C.3    53  LYS53       0.0311
     70  CG       157.1660  119.4920  128.3740 C.3    53  LYS53       0.0038
     71  CD       155.8120  120.0260  128.5780 C.3    53  LYS53       0.0206
     72  CE       155.1020  120.3430  127.3510 C.3    53  LYS53       0.1093
     73  NZ       154.5830  119.1750  126.8070 N.3    53  LYS53      -0.1314
     74  N        159.0530  117.5090  131.8500 N.am   54  THR54      -0.1937
     75  CA       159.2410  117.3440  133.2590 C.3    54  THR54       0.2028
     76  C        160.7090  117.3830  133.4990 C.2    54  THR54       0.2642
     77  O        161.1870  117.9830  134.4500 O.2    54  THR54      -0.2714
     78  CB       158.7090  116.0240  133.7630 C.3    54  THR54       0.1808
     79  OG1      157.3110  115.9140  133.4920 O.3    54  THR54      -0.2208
     80  CG2      158.9320  115.9760  135.2260 C.3    54  THR54       0.0379
     81  N        161.4250  116.7050  132.6190 N.am   55  ALA55      -0.1977
     82  CA       162.8500  116.5880  132.7260 C.3    55  ALA55       0.1597
     83  C        163.4600  117.9700  132.7170 C.2    55  ALA55       0.2287
     84  O        164.4020  118.2250  133.4430 O.2    55  ALA55      -0.2864
     85  CB       163.3890  115.7260  131.5970 C.3    55  ALA55       0.0319
     86  N        152.4080  120.9710  135.4350 N.3   119  ASP119     -0.1225
     87  CA       152.7750  120.3470  134.1790 C.3   119  ASP119      0.1805
     88  C        151.6000  120.2790  133.2110 C.2   119  ASP119      0.2597
     89  O        151.7310  119.8650  132.0630 O.2   119  ASP119     -0.2718
     90  CB       153.3160  118.9830  134.4730 C.3   119  ASP119      0.1424
     91  CG       154.5660  119.1350  135.2360 C.2   119  ASP119      0.3668
     92  OD1      155.0450  120.2400  135.3040 O.co2 119  ASP119     -0.2456
     93  OD2      155.0380  118.1810  135.7710 O.co2 119  ASP119     -0.2456
     94  N        150.4600  120.6580  133.7320 N.am  120  GLU120     -0.1979
     95  CA       149.1780  120.6380  133.0840 C.3   120  GLU120      0.1602
     96  C        148.5500  122.0130  133.2120 C.2   120  GLU120      0.2287
     97  O        147.5360  122.1520  133.8720 O.2   120  GLU120     -0.2864
     98  CB       148.2870  119.6520  133.8290 C.3   120  GLU120      0.0415
     99  CG       148.8170  118.2400  133.9430 C.3   120  GLU120      0.1163
    100  CD       148.8840  117.4480  132.6750 C.2   120  GLU120      0.3649
    101  OE1      148.3280  117.8310  131.6700 O.co2 120  GLU120     -0.2457
    102  OE2      149.5060  116.4180  132.7210 O.co2 120  GLU120     -0.2457
    103  N        162.8720  116.1030  120.0970 N.3   178  PRO178     -0.2116
    104  CA       164.2820  116.0550  119.7840 C.3   178  PRO178      0.1372
    105  C        164.5300  115.3110  118.5020 C.2   178  PRO178      0.2244
    106  O        163.6610  114.6060  118.0000 O.2   178  PRO178     -0.2868
    107  CB       164.8670  115.3020  120.9670 C.3   178  PRO178      0.0268
    108  CG       163.7570  114.4450  121.4380 C.3   178  PRO178      0.0207
    109  CD       162.5050  115.2530  121.2070 C.3   178  PRO178      0.0892
    110  N        169.7740  110.4520  124.3480 N.3   186  ILE186     -0.1245
    111  CA       168.9230  110.3830  125.5020 C.3   186  ILE186      0.1561
    112  C        168.7660  108.9580  125.9230 C.2   186  ILE186      0.2260
    113  O        168.8630  108.6380  127.1060 O.2   186  ILE186     -0.2867
    114  CB       167.5550  110.9710  125.2260 C.3   186  ILE186      0.0252
    115  CG1      167.6980  112.4660  125.0040 C.3   186  ILE186      0.0019
    116  CG2      166.6460  110.6270  126.3870 C.3   186  ILE186      0.0019
    117  CD1      166.4850  113.1420  124.4510 C.3   186  ILE186      0.0001
    118  N        169.5960  107.1580  129.4790 N.3   190  LEU190     -0.1245
    119  CA       168.6370  106.4320  130.2740 C.3   190  LEU190      0.1561
    120  C        168.8530  104.9280  130.2110 C.2   190  LEU190      0.2260
    121  O        168.3490  104.1750  131.0510 O.2   190  LEU190     -0.2867
    122  CB       167.2630  106.8450  129.7960 C.3   190  LEU190      0.0270
    123  CG       167.0380  108.3630  129.9510 C.3   190  LEU190      0.0019
    124  CD1      165.7040  108.7500  129.4040 C.3   190  LEU190      0.0001
    125  CD2      167.1700  108.7350  131.4020 C.3   190  LEU190      0.0001
    126  N        161.0270  110.5710  122.0030 N.3   224  PRO224     -0.2102
    127  CA       161.8350  110.1510  123.0940 C.3   224  PRO224      0.1504
    128  C        161.1010  109.1590  123.9510 C.2   224  PRO224      0.2575
    129  O        161.5410  108.0030  123.9950 O.2   224  PRO224     -0.2718
    130  CB       162.1980  111.4750  123.7450 C.3   224  PRO224      0.0282
    131  CG       161.2610  112.4360  123.1540 C.3   224  PRO224      0.0208
    132  CD       161.0540  111.9630  121.7710 C.3   224  PRO224      0.0893
    133  N        159.9720  109.4900  124.5290 N.am  225  ASP225     -0.1974
    134  CA       159.3620  108.3910  125.2400 C.3   225  ASP225      0.1708
    135  C        159.0140  107.2370  124.3730 C.2   225  ASP225      0.2293
    136  O        159.0390  106.1180  124.8420 O.2   225  ASP225     -0.2864
    137  CB       158.1620  108.7420  126.0980 C.3   225  ASP225      0.1436
    138  CG       158.5430  109.3550  127.4590 C.2   225  ASP225      0.3671
    139  OD1      159.7040  109.3310  127.7660 O.co2 225  ASP225     -0.2456
    140  OD2      157.6580  109.7060  128.2390 O.co2 225  ASP225     -0.2456
    141  N        161.7610  105.1160  124.2140 N.3   228  LEU228     -0.1245
    142  CA       161.9260  104.5020  125.5040 C.3   228  LEU228      0.1561
    143  C        160.8900  103.4350  125.7030 C.2   228  LEU228      0.2260
    144  O        161.1610  102.4380  126.3560 O.2   228  LEU228     -0.2867
    145  CB       161.8240  105.5360  126.5970 C.3   228  LEU228      0.0270
    146  CG       162.9590  106.5010  126.6260 C.3   228  LEU228      0.0019
    147  CD1      162.6690  107.6200  127.6010 C.3   228  LEU228      0.0001
    148  CD2      164.1850  105.7610  127.0460 C.3   228  LEU228      0.0001
@<TRIPOS>BOND
     1   106   105    2
     2   105   104    1
     3   104   103    1
     4   104   107    1
     5   103   109    1
     6   107   108    1
     7   109   108    1
     8   132   126    1
     9   132   131    1
    10   126   127    1
    11    59    57    1
    12   127   130    1
    13   127   128    1
    14   131   130    1
    15    40    39    1
    16    60    58    1
    17    41    39    1
    18   128   129    2
    19   128   133   am
    20    57    58    1
    21    57    54    1
    22   141   142    1
    23    39    38    2
    24   110   111    1
    25   135   136    2
    26   135   134    1
    27    48    42    1
    28    48    47    1
    29   117   115    1
    30    45    44    2
    31   133   134    1
    32    42    43    1
    33   115   114    1
    34    47    46    1
    35    52    51    2
    36   114   111    1
    37   114   116    1
    38   134   137    1
    39    54    53    1
    40    54    55    1
    41    38    37    1
    42   111   112    1
    43   142   143    1
    44   142   145    1
    45    44    43    1
    46    44    49   am
    47   143   144    2
    48    51    53   am
    49    51    50    1
    50   112   113    2
    51    37    36    1
    52    56    55    2
    53    43    46    1
    54   137   138    1
    55    50    49    1
    56    55    61   am
    57   145   146    1
    58   146   148    1
    59   146   147    1
    60    31    32    1
    61    29    27    1
    62    73    72    1
    63    26    25    2
    64    32    33    1
    65    32    35    1
    66    36    35    1
    67    25    24    1
    68    72    71    1
    69   138   139   ar
    70   138   140   ar
    71    61    62    1
    72    33    34    2
    73    27    24    1
    74    27    28    1
    75    70    71    1
    76    70    69    1
    77    24    23    1
    78    62    63    1
    79    28    30    1
    80    65    63   am
    81    65    66    1
    82    63    64    2
    83   124   123    1
    84   118   119    1
    85    23    18   am
    86    69    66    1
    87   122   123    1
    88   122   119    1
    89    66    67    1
    90   123   125    1
    91   120   119    1
    92   120   121    2
    93    18    19    2
    94    18    17    1
    95    67    74   am
    96    67    68    2
    97    21    20    1
    98    85    82    1
    99   101   100   ar
   100    74    75    1
   101    17    20    1
   102    17    16    1
   103    89    88    2
   104    20    22    1
   105    12    11    2
   106    81    82    1
   107    81    76   am
   108   100   102   ar
   109   100    99    1
   110    83    82    1
   111    83    84    2
   112    16    11   am
   113    95    96    1
   114    95    94    1
   115    95    98    1
   116    11    10    1
   117    88    94   am
   118    88    87    1
   119    96    97    2
   120    75    76    1
   121    75    78    1
   122    79    78    1
   123    76    77    2
   124    14    13    1
   125    14    15    1
   126    78    80    1
   127    98    99    1
   128    13    10    1
   129    87    90    1
   130    87    86    1
   131    10     9    1
   132     8     6   ar
   133    90    91    1
   134    15     9    1
   135     5     6    1
   136     5     2    1
   137     9     3   am
   138     6     7   ar
   139    91    92   ar
   140    91    93   ar
   141     3     4    2
   142     3     2    1
   143     2     1    1
