@<TRIPOS>MOLECULE
tmp/5vy8C01.pdb
 154 145 0 0 0
SMALL
GASTEIGER

@<TRIPOS>ATOM
      1  N        153.9500   95.4430   90.3690 N.3   414  GLU414     -0.1231
      2  CA       152.6190   95.6920   90.8900 C.3   414  GLU414      0.1699
      3  C        151.7210   96.4400   89.9140 C.2   414  GLU414      0.2592
      4  O        150.5120   96.2050   89.8470 O.2   414  GLU414     -0.2718
      5  CB       152.7380   96.4930   92.1610 C.3   414  GLU414      0.0402
      6  CG       153.4730   95.7540   93.2450 C.3   414  GLU414      0.1161
      7  CD       152.8330   94.4600   93.6460 C.2   414  GLU414      0.3649
      8  OE1      151.6820   94.4580   94.0220 O.co2 414  GLU414     -0.2457
      9  OE2      153.4980   93.4520   93.5670 O.co2 414  GLU414     -0.2457
     10  N        152.3170   97.3500   89.1830 N.am  415  VAL415     -0.1966
     11  CA       151.6360   98.1950   88.2330 C.3   415  VAL415      0.1727
     12  C        152.2290   97.9670   86.8790 C.2   415  VAL415      0.2616
     13  O        153.4390   97.9930   86.7240 O.2   415  VAL415     -0.2715
     14  CB       151.7300   99.6490   88.6680 C.3   415  VAL415      0.0290
     15  CG1      151.0980  100.5750   87.6390 C.3   415  VAL415      0.0023
     16  CG2      151.0080   99.7810   89.9810 C.3   415  VAL415      0.0023
     17  N        151.3950   97.7210   85.8930 N.am  416  VAL416     -0.1977
     18  CA       151.9410   97.3740   84.5980 C.3   416  VAL416      0.1596
     19  C        151.9790   98.5220   83.6300 C.2   416  VAL416      0.2287
     20  O        150.9770   99.1870   83.3940 O.2   416  VAL416     -0.2864
     21  CB       151.1460   96.2420   83.9760 C.3   416  VAL416      0.0276
     22  CG1      151.6870   95.9200   82.6370 C.3   416  VAL416      0.0022
     23  CG2      151.2060   95.0360   84.8590 C.3   416  VAL416      0.0022
     24  N        142.9160  108.0910   82.7460 N.3   450  LEU450     -0.1231
     25  CA       141.5300  107.6250   82.8300 C.3   450  LEU450      0.1693
     26  C        141.2360  106.6920   83.9960 C.2   450  LEU450      0.2593
     27  O        142.1470  106.1200   84.5990 O.2   450  LEU450     -0.2718
     28  CB       141.1820  106.8950   81.5510 C.3   450  LEU450      0.0284
     29  CG       141.3830  107.7020   80.3210 C.3   450  LEU450      0.0019
     30  CD1      141.0760  106.8680   79.1210 C.3   450  LEU450      0.0001
     31  CD2      140.5040  108.9260   80.3850 C.3   450  LEU450      0.0001
     32  N        139.9640  106.5410   84.3280 N.am  451  SER451     -0.1938
     33  CA       139.6050  105.5910   85.3660 C.3   451  SER451      0.2055
     34  C        140.0470  104.1970   84.9720 C.2   451  SER451      0.2644
     35  O        139.8300  103.7680   83.8450 O.2   451  SER451     -0.2714
     36  CB       138.1070  105.5770   85.5740 C.3   451  SER451      0.2130
     37  OG       137.7560  104.5850   86.4910 O.3   451  SER451     -0.2179
     38  N        140.6340  103.4660   85.9090 N.am  452  GLY452     -0.1939
     39  CA       141.0440  102.0960   85.6590 C.3   452  GLY452      0.2014
     40  C        142.4510  102.0290   85.1170 C.2   452  GLY452      0.2640
     41  O        142.9280  100.9500   84.7530 O.2   452  GLY452     -0.2714
     42  N        143.0830  103.1990   85.0060 N.am  453  SER453     -0.1935
     43  CA       144.4400  103.3500   84.5210 C.3   453  SER453      0.2055
     44  C        145.4920  103.0460   85.5480 C.2   453  SER453      0.2644
     45  O        146.6750  102.9900   85.2240 O.2   453  SER453     -0.2714
     46  CB       144.6790  104.7640   84.1180 C.3   453  SER453      0.2130
     47  OG       144.5750  105.5950   85.2550 O.3   453  SER453     -0.2179
     48  N        145.1110  102.9460   86.8070 N.am  454  GLY454     -0.1939
     49  CA       146.1130  102.7210   87.8200 C.3   454  GLY454      0.2014
     50  C        146.5770  103.9830   88.5220 C.2   454  GLY454      0.2639
     51  O        147.3570  103.9030   89.4610 O.2   454  GLY454     -0.2714
     52  N        146.1040  105.1630   88.1350 N.am  455  LYS455     -0.1963
     53  CA       146.5510  106.3500   88.8810 C.3   455  LYS455      0.1728
     54  C        146.5320  106.0920   90.4030 C.2   455  LYS455      0.2617
     55  O        147.5640  106.1730   91.0860 O.2   455  LYS455     -0.2715
     56  CB       145.6340  107.5330   88.5740 C.3   455  LYS455      0.0311
     57  CG       145.7720  108.1160   87.1990 C.3   455  LYS455      0.0038
     58  CD       144.8690  109.3190   87.0280 C.3   455  LYS455      0.0206
     59  CE       143.3870  108.9120   86.8510 C.3   455  LYS455      0.1093
     60  NZ       142.5550  110.0580   86.3760 N.3   455  LYS455     -0.1314
     61  N        145.3570  105.7660   90.9360 N.am  456  THR456     -0.1937
     62  CA       145.2210  105.5270   92.3560 C.3   456  THR456      0.2028
     63  C        145.8960  104.2420   92.7510 C.2   456  THR456      0.2642
     64  O        146.5730  104.1950   93.7780 O.2   456  THR456     -0.2714
     65  CB       143.7650  105.4340   92.7920 C.3   456  THR456      0.1808
     66  OG1      143.0760  106.6430   92.4670 O.3   456  THR456     -0.2208
     67  CG2      143.7260  105.2190   94.3060 C.3   456  THR456      0.0379
     68  N        145.6970  103.1850   91.9590 N.am  457  GLU457     -0.1976
     69  CA       146.2850  101.8920   92.2630 C.3   457  GLU457      0.1602
     70  C        147.7420  102.0990   92.5820 C.2   457  GLU457      0.2287
     71  O        148.2220  101.6820   93.6180 O.2   457  GLU457     -0.2864
     72  CB       146.2340  100.9490   91.0560 C.3   457  GLU457      0.0415
     73  CG       146.5820   99.5070   91.3110 C.3   457  GLU457      0.1163
     74  CD       145.4530   98.7640   91.9760 C.2   457  GLU457      0.3649
     75  OE1      144.3690   99.2900   91.9830 O.co2 457  GLU457     -0.2457
     76  OE2      145.6490   97.6490   92.4250 O.co2 457  GLU457     -0.2457
     77  N        142.3490  109.3490  101.6830 N.3   475  ARG475     -0.1245
     78  CA       141.6710  109.7980  100.4770 C.3   475  ARG475      0.1563
     79  C        140.9910  111.1210  100.7160 C.2   475  ARG475      0.2260
     80  O        140.5150  111.3570  101.8200 O.2   475  ARG475     -0.2867
     81  CB       140.6030  108.7940  100.0930 C.3   475  ARG475      0.0307
     82  CG       141.1120  107.3980   99.9390 C.3   475  ARG475      0.0489
     83  CD       141.9790  107.2620   98.7980 C.3   475  ARG475      0.2205
     84  NE       141.2840  107.3690   97.5480 N.pl3 475  ARG475     -0.0865
     85  CZ       140.7020  106.3490   96.9440 C.cat 475  ARG475      0.5346
     86  NH1      140.7290  105.1460   97.4750 N.pl3 475  ARG475      0.1354
     87  NH2      140.1090  106.5780   95.8100 N.pl3 475  ARG475      0.1354
     88  N        141.0630  112.7600   95.0620 N.3   521  ASP521     -0.1239
     89  CA       140.2430  112.0790   94.0660 C.3   521  ASP521      0.1674
     90  C        139.5950  113.0990   93.1500 C.2   521  ASP521      0.2266
     91  O        138.6310  113.7270   93.5660 O.2   521  ASP521     -0.2867
     92  CB       139.0940  111.3410   94.7810 C.3   521  ASP521      0.1410
     93  CG       139.5080  110.1490   95.6970 C.2   521  ASP521      0.3668
     94  OD1      140.4470  109.4480   95.3880 O.co2 521  ASP521     -0.2456
     95  OD2      138.8580  109.9590   96.7000 O.co2 521  ASP521     -0.2456
     96  N        146.8110  101.8900   79.3310 N.3   610  LEU610     -0.1245
     97  CA       147.3270  100.5500   79.5840 C.3   610  LEU610      0.1561
     98  C        147.1970   99.6560   78.3660 C.2   610  LEU610      0.2260
     99  O        148.1170   98.9060   78.0010 O.2   610  LEU610     -0.2867
    100  CB       146.5340   99.9570   80.7460 C.3   610  LEU610      0.0270
    101  CG       146.8010  100.6090   82.0880 C.3   610  LEU610      0.0019
    102  CD1      145.8160  100.0590   83.1180 C.3   610  LEU610      0.0001
    103  CD2      148.2580  100.3370   82.4900 C.3   610  LEU610      0.0001
    104  N        148.4190   92.2920   83.3530 N.3   618  ILE618     -0.1245
    105  CA       147.6900   92.6710   84.5470 C.3   618  ILE618      0.1561
    106  C        146.7340   91.6180   84.9750 C.2   618  ILE618      0.2260
    107  O        146.6440   91.3240   86.1590 O.2   618  ILE618     -0.2867
    108  CB       146.8490   93.9350   84.3660 C.3   618  ILE618      0.0252
    109  CG1      147.7590   95.0940   84.1780 C.3   618  ILE618      0.0019
    110  CG2      145.9970   94.1640   85.5850 C.3   618  ILE618      0.0019
    111  CD1      147.1110   96.3500   83.7200 C.3   618  ILE618      0.0001
    112  N        148.5630   88.8840   86.6270 N.3   621  ILE621     -0.1231
    113  CA       149.0870   89.3420   87.8760 C.3   621  ILE621      0.1692
    114  C        148.0280   89.4580   88.9150 C.2   621  ILE621      0.2591
    115  O        148.1800   88.9370   90.0160 O.2   621  ILE621     -0.2718
    116  CB       149.7350   90.7040   87.6870 C.3   621  ILE621      0.0266
    117  CG1      150.9750   90.5590   86.8240 C.3   621  ILE621      0.0019
    118  CG2      150.0620   91.3210   89.0260 C.3   621  ILE621      0.0020
    119  CD1      151.4890   91.8710   86.3060 C.3   621  ILE621      0.0001
    120  N        146.9360   90.1100   88.5810 N.am  622  ARG622     -0.1980
    121  CA       145.9200   90.2790   89.5640 C.3   622  ARG622      0.1597
    122  C        145.3480   88.9730   89.9220 C.2   622  ARG622      0.2287
    123  O        145.1080   88.7250   91.0820 O.2   622  ARG622     -0.2864
    124  CB       144.8180   91.1820   89.1180 C.3   622  ARG622      0.0334
    125  CG       145.2500   92.5690   89.0060 C.3   622  ARG622      0.0492
    126  CD       144.1490   93.4770   88.7600 C.3   622  ARG622      0.2205
    127  NE       143.2980   93.6160   89.9480 N.pl3 622  ARG622     -0.0865
    128  CZ       143.6060   94.4220   90.9840 C.cat 622  ARG622      0.5346
    129  NH1      144.7440   95.0790   90.9820 N.pl3 622  ARG622      0.1354
    130  NH2      142.7630   94.5390   91.9810 N.pl3 622  ARG622      0.1354
    131  N        140.9810   98.8020   83.7190 N.3   660  ALA660     -0.1231
    132  CA       141.0080   97.5290   84.4050 C.3   660  ALA660      0.1694
    133  C        139.9360   97.4200   85.4640 C.2   660  ALA660      0.2591
    134  O        139.7410   96.3570   86.0520 O.2   660  ALA660     -0.2718
    135  CB       142.3750   97.3210   85.0410 C.3   660  ALA660      0.0304
    136  N        139.2390   98.5030   85.7290 N.am  661  ARG661     -0.1980
    137  CA       138.2380   98.4740   86.7660 C.3   661  ARG661      0.1597
    138  C        137.3080   97.2710   86.5700 C.2   661  ARG661      0.2287
    139  O        137.1330   96.4740   87.5010 O.2   661  ARG661     -0.2864
    140  CB       137.5360   99.8240   86.8140 C.3   661  ARG661      0.0334
    141  CG       136.4990  100.0320   87.8070 C.3   661  ARG661      0.0492
    142  CD       135.9750  101.3990   87.6150 C.3   661  ARG661      0.2205
    143  NE       135.0450  101.7970   88.6270 N.pl3 661  ARG661     -0.0865
    144  CZ       133.7340  101.5460   88.6190 C.cat 661  ARG661      0.5346
    145  NH1      133.1910  100.8670   87.6390 N.pl3 661  ARG661      0.1354
    146  NH2      133.0060  101.9960   89.6120 N.pl3 661  ARG661      0.1354
    147  N        138.9200   93.7250   87.0610 N.3   664  ASN664     -0.1240
    148  CA       138.9670   93.2510   88.4060 C.3   664  ASN664      0.1653
    149  C        137.6420   92.6420   88.7520 C.2   664  ASN664      0.2266
    150  O        137.5630   91.4810   89.1520 O.2   664  ASN664     -0.2867
    151  CB       139.2980   94.3800   89.3290 C.3   664  ASN664      0.1155
    152  CG       139.5520   93.9270   90.6970 C.2   664  ASN664      0.2627
    153  OD1      140.5010   93.1550   90.9400 O.2   664  ASN664     -0.2716
    154  ND2      138.7570   94.3870   91.6170 N.am  664  ASN664     -0.0877
@<TRIPOS>BOND
     1    99    98    2
     2    98    97    1
     3    30    29    1
     4    96    97    1
     5    97   100    1
     6    29    31    1
     7    29    28    1
     8   100   101    1
     9    28    25    1
    10   101   103    1
    11   101   102    1
    12    22    21    1
    13    24    25    1
    14    25    26    1
    15   104   105    1
    16    20    19    2
    17    19    18    1
    18   131   132    1
    19   111   109    1
    20    35    34    2
    21    21    18    1
    22    21    23    1
    23    26    32   am
    24    26    27    2
    25    46    43    1
    26    46    47    1
    27   109   108    1
    28    32    33    1
    29   108   105    1
    30   108   110    1
    31   132   135    1
    32   132   133    1
    33    43    42    1
    34    43    44    1
    35   105   106    1
    36    18    17    1
    37    41    40    2
    38    34    33    1
    39    34    38   am
    40   106   107    2
    41    42    40   am
    42    40    39    1
    43    45    44    2
    44    33    36    1
    45   133   136   am
    46   133   134    2
    47    44    48   am
    48    36    37    1
    49    39    38    1
    50   136   137    1
    51    17    12   am
    52   119   117    1
    53    60    59    1
    54   138   137    1
    55   138   139    2
    56   112   113    1
    57    13    12    2
    58   137   140    1
    59    48    49    1
    60   140   141    1
    61   117   116    1
    62    59    58    1
    63    12    11    1
    64    58    57    1
    65   147   148    1
    66    57    56    1
    67   142   141    1
    68   142   143    1
    69   145   144    1
    70    15    14    1
    71   116   113    1
    72   116   118    1
    73    49    50    1
    74   113   114    1
    75    52    50   am
    76    52    53    1
    77    11    14    1
    78    11    10    1
    79   148   149    1
    80   148   151    1
    81    50    51    2
    82    56    53    1
    83   120   114   am
    84   120   121    1
    85   144   143    2
    86   144   146    1
    87    14    16    1
    88   149   150    2
    89   126   125    1
    90   126   127    1
    91    53    54    1
    92   114   115    2
    93   125   124    1
    94   124   121    1
    95    10     3   am
    96   151   152    1
    97   121   122    1
    98     4     3    2
    99     3     2    1
   100   122   123    2
   101   127   128    2
   102     1     2    1
   103    54    61   am
   104    54    55    2
   105   152   153    2
   106   152   154   am
   107     2     5    1
   108    61    62    1
   109   129   128    1
   110   128   130    1
   111    72    73    1
   112    72    69    1
   113    73    74    1
   114    68    69    1
   115    68    63   am
   116    74    75   ar
   117    74    76   ar
   118     5     6    1
   119    69    70    1
   120    62    63    1
   121    62    65    1
   122    66    65    1
   123    70    71    2
   124    63    64    2
   125    65    67    1
   126    90    91    2
   127    90    89    1
   128     6     7    1
   129     9     7   ar
   130     7     8   ar
   131    89    92    1
   132    89    88    1
   133    92    93    1
   134    94    93   ar
   135    93    95   ar
   136    87    85    1
   137    85    86    1
   138    85    84    2
   139    84    83    1
   140    83    82    1
   141    82    81    1
   142    81    78    1
   143    78    79    1
   144    78    77    1
   145    79    80    2
