@<TRIPOS>MOLECULE
tmp/5vy9E01.pdb
 177 166 0 0 0
SMALL
GASTEIGER

@<TRIPOS>ATOM
      1  N        106.1110   86.5130  150.4280 N.3   558  GLU558     -0.1231
      2  CA       107.3440   87.2470  150.2610 C.3   558  GLU558      0.1699
      3  C        107.4280   88.3190  151.3380 C.2   558  GLU558      0.2592
      4  O        108.4870   88.5860  151.9040 O.2   558  GLU558     -0.2718
      5  CB       107.3560   87.9370  148.9000 C.3   558  GLU558      0.0402
      6  CG       107.2420   87.0260  147.6800 C.3   558  GLU558      0.1161
      7  CD       108.4680   86.2020  147.3830 C.2   558  GLU558      0.3649
      8  OE1      109.5490   86.6420  147.6840 O.co2 558  GLU558     -0.2457
      9  OE2      108.3300   85.1500  146.8180 O.co2 558  GLU558     -0.2457
     10  N        106.2850   88.9350  151.5950 N.am  559  VAL559     -0.1966
     11  CA       106.1340   90.0300  152.5210 C.3   559  VAL559      0.1727
     12  C        105.2980   89.6230  153.6980 C.2   559  VAL559      0.2616
     13  O        104.1850   89.1400  153.5510 O.2   559  VAL559     -0.2715
     14  CB       105.4870   91.2360  151.8320 C.3   559  VAL559      0.0290
     15  CG1      105.2750   92.3860  152.8500 C.3   559  VAL559      0.0023
     16  CG2      106.3780   91.6850  150.6910 C.3   559  VAL559      0.0023
     17  N        105.8410   89.8050  154.8710 N.am  560  VAL560     -0.1977
     18  CA       105.1340   89.4130  156.0570 C.3   560  VAL560      0.1596
     19  C        104.2350   90.5140  156.5430 C.2   560  VAL560      0.2287
     20  O        104.6530   91.6590  156.6940 O.2   560  VAL560     -0.2864
     21  CB       106.1260   88.9690  157.1210 C.3   560  VAL560      0.0276
     22  CG1      105.4490   88.6620  158.3820 C.3   560  VAL560      0.0022
     23  CG2      106.7750   87.7520  156.6310 C.3   560  VAL560      0.0022
     24  N        101.6860   93.4530  156.6420 N.3   562  GLN562     -0.1245
     25  CA       101.5020   94.6230  155.7880 C.3   562  GLN562      0.1566
     26  C        100.4160   94.3160  154.7780 C.2   562  GLN562      0.2260
     27  O        100.5020   94.6730  153.6010 O.2   562  GLN562     -0.2867
     28  CB       102.7800   94.9940  155.0510 C.3   562  GLN562      0.0367
     29  CG       103.9470   95.1770  155.9510 C.3   562  GLN562      0.0905
     30  CD       103.6940   96.1570  157.0420 C.2   562  GLN562      0.2608
     31  OE1      102.5930   96.7280  157.1770 O.2   562  GLN562     -0.2717
     32  NE2      104.7220   96.3730  157.8370 N.am  562  GLN562     -0.0878
     33  N        111.2760  102.1940  159.4070 N.3   595  SER595     -0.1202
     34  CA       112.1760  101.6430  158.4210 C.3   595  SER595      0.2020
     35  C        112.3530  100.1850  158.8200 C.2   595  SER595      0.2619
     36  O        112.4520   99.8790  160.0030 O.2   595  SER595     -0.2717
     37  CB       113.5000  102.3540  158.4140 C.3   595  SER595      0.2103
     38  OG       114.3440  101.8060  157.4420 O.3   595  SER595     -0.2182
     39  N        112.3950   99.2880  157.8640 N.am  596  GLY596     -0.1942
     40  CA       112.5260   97.8760  158.1810 C.3   596  GLY596      0.2014
     41  C        111.1570   97.2400  158.3220 C.2   596  GLY596      0.2640
     42  O        111.0270   96.1120  158.8020 O.2   596  GLY596     -0.2714
     43  N        110.1200   97.9830  157.9370 N.am  597  SER597     -0.1935
     44  CA       108.7560   97.4760  157.9280 C.3   597  SER597      0.2055
     45  C        108.4280   96.7910  156.5900 C.2   597  SER597      0.2644
     46  O        107.3520   96.2060  156.4370 O.2   597  SER597     -0.2714
     47  CB       107.7660   98.5760  158.2480 C.3   597  SER597      0.2130
     48  OG       107.7990   99.5650  157.2860 O.3   597  SER597     -0.2179
     49  N        109.3650   96.8340  155.6300 N.am  598  GLY598     -0.1939
     50  CA       109.1760   96.2000  154.3300 C.3   598  GLY598      0.2014
     51  C        108.5840   97.1200  153.2670 C.2   598  GLY598      0.2639
     52  O        107.9000   96.6630  152.3550 O.2   598  GLY598     -0.2714
     53  N        108.8260   98.4150  153.3720 N.am  599  LYS599     -0.1963
     54  CA       108.2720   99.3660  152.4180 C.3   599  LYS599      0.1728
     55  C        108.9180   99.2080  151.0390 C.2   599  LYS599      0.2617
     56  O        108.2240   99.0020  150.0340 O.2   599  LYS599     -0.2715
     57  CB       108.4960  100.7660  152.9770 C.3   599  LYS599      0.0311
     58  CG       107.6910  101.0050  154.2360 C.3   599  LYS599      0.0038
     59  CD       107.8210  102.4040  154.7960 C.3   599  LYS599      0.0206
     60  CE       109.2380  102.6770  155.3330 C.3   599  LYS599      0.1093
     61  NZ       109.3140  103.9320  156.1180 N.3   599  LYS599     -0.1314
     62  N        110.2480   99.2190  150.9800 N.am  600  THR600     -0.1937
     63  CA       110.8930   99.0780  149.6890 C.3   600  THR600      0.2028
     64  C        110.9190   97.6280  149.3310 C.2   600  THR600      0.2642
     65  O        110.9000   97.2780  148.1560 O.2   600  THR600     -0.2714
     66  CB       112.3070   99.6700  149.6840 C.3   600  THR600      0.1808
     67  OG1      113.1040   99.0200  150.6650 O.3   600  THR600     -0.2208
     68  CG2      112.2290  101.1480  149.9590 C.3   600  THR600      0.0379
     69  N        110.8590   96.7730  150.3410 N.am  601  GLU601     -0.1976
     70  CA       110.8400   95.3640  150.0380 C.3   601  GLU601      0.1602
     71  C        109.5420   95.0660  149.3170 C.2   601  GLU601      0.2287
     72  O        109.5540   94.3980  148.2900 O.2   601  GLU601     -0.2864
     73  CB       110.9180   94.5180  151.2960 C.3   601  GLU601      0.0415
     74  CG       111.0560   93.0340  151.0370 C.3   601  GLU601      0.1163
     75  CD       112.3760   92.6630  150.3880 C.2   601  GLU601      0.3649
     76  OE1      113.2520   93.4930  150.3500 O.co2 601  GLU601     -0.2457
     77  OE2      112.5260   91.5330  149.9940 O.co2 601  GLU601     -0.2457
     78  N        114.3000  101.9670  140.8290 N.3   619  ARG619     -0.1245
     79  CA       114.2610  102.6760  142.0710 C.3   619  ARG619      0.1563
     80  C        114.7630  104.0360  141.7690 C.2   619  ARG619      0.2260
     81  O        115.7380  104.1970  141.0410 O.2   619  ARG619     -0.2867
     82  CB       115.0360  102.0170  143.1680 C.3   619  ARG619      0.0307
     83  CG       114.8810  102.6590  144.5050 C.3   619  ARG619      0.0489
     84  CD       115.5590  101.8510  145.4970 C.3   619  ARG619      0.2205
     85  NE       115.4630  102.3630  146.8210 N.pl3 619  ARG619     -0.0865
     86  CZ       115.6490  101.6070  147.9060 C.cat 619  ARG619      0.5346
     87  NH1      115.8850  100.3470  147.7550 N.pl3 619  ARG619      0.1354
     88  NH2      115.5930  102.1040  149.1080 N.pl3 619  ARG619      0.1354
     89  N        112.7100  106.7620  146.6490 N.3   665  ASP665     -0.1225
     90  CA       113.3480  106.5410  147.9320 C.3   665  ASP665      0.1805
     91  C        113.5090  107.7770  148.7850 C.2   665  ASP665      0.2597
     92  O        114.2720  108.6680  148.4180 O.2   665  ASP665     -0.2718
     93  CB       114.7400  105.9890  147.7120 C.3   665  ASP665      0.1424
     94  CG       115.4260  105.6120  148.9960 C.2   665  ASP665      0.3668
     95  OD1      114.9610  104.7180  149.6480 O.co2 665  ASP665     -0.2456
     96  OD2      116.4110  106.2240  149.3240 O.co2 665  ASP665     -0.2456
     97  N        112.8880  107.7740  149.9640 N.am  666  GLU666     -0.1979
     98  CA       113.0170  108.8850  150.8990 C.3   666  GLU666      0.1602
     99  C        112.7150  110.2030  150.2290 C.2   666  GLU666      0.2287
    100  O        113.5730  111.0890  150.1410 O.2   666  GLU666     -0.2864
    101  CB       114.4280  108.9410  151.4690 C.3   666  GLU666      0.0415
    102  CG       114.6690  110.0100  152.5150 C.3   666  GLU666      0.1163
    103  CD       114.0560  109.7270  153.8660 C.2   666  GLU666      0.3649
    104  OE1      113.6170  108.6120  154.1090 O.co2 666  GLU666     -0.2457
    105  OE2      114.0940  110.6220  154.6790 O.co2 666  GLU666     -0.2457
    106  N        108.3200  106.5160  149.0420 N.3   705  THR705     -0.1203
    107  CA       108.5920  106.1210  150.4010 C.3   705  THR705      0.1994
    108  C        109.0340  107.2620  151.2720 C.2   705  THR705      0.2619
    109  O        109.6920  108.2060  150.8250 O.2   705  THR705     -0.2717
    110  CB       109.6790  105.0660  150.4120 C.3   705  THR705      0.1784
    111  OG1      110.8550  105.6250  149.8270 O.3   705  THR705     -0.2211
    112  CG2      109.2530  103.8730  149.6070 C.3   705  THR705      0.0376
    113  N        108.7530  107.1060  152.5470 N.am  706  SER706     -0.1937
    114  CA       109.1280  108.0590  153.5720 C.3   706  SER706      0.2055
    115  C        109.1820  107.4310  154.9580 C.2   706  SER706      0.2643
    116  O        108.5590  106.3950  155.1980 O.2   706  SER706     -0.2714
    117  CB       108.1720  109.2070  153.5300 C.3   706  SER706      0.2130
    118  OG       108.3620  110.0380  154.5940 O.3   706  SER706     -0.2179
    119  N        109.9820  108.0130  155.8510 N.am  707  ASN707     -0.1971
    120  CA       110.0530  107.5580  157.2370 C.3   707  ASN707      0.1688
    121  C        109.3670  108.5340  158.1490 C.2   707  ASN707      0.2292
    122  O        109.4130  108.4270  159.3680 O.2   707  ASN707     -0.2864
    123  CB       111.4690  107.2900  157.6480 C.3   707  ASN707      0.1181
    124  CG       111.9480  106.0620  156.9910 C.2   707  ASN707      0.2629
    125  OD1      111.5400  104.9820  157.4380 O.2   707  ASN707     -0.2716
    126  ND2      112.7550  106.1440  155.9640 N.am  707  ASN707     -0.0877
    127  N        105.4160   94.5630  162.9530 N.3   754  LEU754     -0.1245
    128  CA       105.0950   93.1510  162.9220 C.3   754  LEU754      0.1561
    129  C        104.7240   92.5910  164.2930 C.2   754  LEU754      0.2260
    130  O        105.3150   92.9160  165.3220 O.2   754  LEU754     -0.2867
    131  CB       106.2430   92.3210  162.3140 C.3   754  LEU754      0.0270
    132  CG       106.5740   92.5600  160.7970 C.3   754  LEU754      0.0019
    133  CD1      107.7130   91.5710  160.3450 C.3   754  LEU754      0.0001
    134  CD2      105.3070   92.3880  159.9630 C.3   754  LEU754      0.0001
    135  N        108.8370   86.1310  159.5870 N.3   762  ILE762     -0.1245
    136  CA       109.8470   86.7320  158.7170 C.3   762  ILE762      0.1561
    137  C        111.1940   86.1190  158.9300 C.2   762  ILE762      0.2260
    138  O        111.9500   85.9430  157.9790 O.2   762  ILE762     -0.2867
    139  CB       109.9780   88.2730  158.8470 C.3   762  ILE762      0.0252
    140  CG1      110.7700   88.7830  157.6770 C.3   762  ILE762      0.0019
    141  CG2      110.7870   88.6980  160.0630 C.3   762  ILE762      0.0019
    142  CD1      110.1590   88.5420  156.3680 C.3   762  ILE762      0.0001
    143  N        113.4190   84.7210  155.9260 N.3   766  ARG766     -0.1245
    144  CA       114.6880   85.2890  155.5780 C.3   766  ARG766      0.1563
    145  C        115.7900   84.2990  155.6830 C.2   766  ARG766      0.2260
    146  O        116.6690   84.2600  154.8330 O.2   766  ARG766     -0.2867
    147  CB       114.9830   86.4630  156.4630 C.3   766  ARG766      0.0307
    148  CG       114.0780   87.5860  156.1990 C.3   766  ARG766      0.0489
    149  CD       114.2190   88.0640  154.8390 C.3   766  ARG766      0.2205
    150  NE       115.4990   88.6790  154.6030 N.pl3 766  ARG766     -0.0865
    151  CZ       116.0420   88.8560  153.3860 C.cat 766  ARG766      0.5346
    152  NH1      115.4150   88.4350  152.3150 N.pl3 766  ARG766      0.1354
    153  NH2      117.2070   89.4530  153.2530 N.pl3 766  ARG766      0.1354
    154  N        112.7590   94.8910  160.6450 N.3   804  ALA804     -0.1231
    155  CA       113.2100   93.4830  160.6340 C.3   804  ALA804      0.1694
    156  C        114.6940   93.3370  160.3090 C.2   804  ALA804      0.2591
    157  O        115.3200   92.3150  160.5970 O.2   804  ALA804     -0.2718
    158  CB       112.4230   92.6610  159.6410 C.3   804  ALA804      0.0304
    159  N        115.2700   94.3540  159.7180 N.am  805  ARG805     -0.1980
    160  CA       116.6510   94.2800  159.3040 C.3   805  ARG805      0.1597
    161  C        117.6240   93.8910  160.4110 C.2   805  ARG805      0.2287
    162  O        118.5380   93.1270  160.1420 O.2   805  ARG805     -0.2864
    163  CB       117.0630   95.5650  158.6650 C.3   805  ARG805      0.0334
    164  CG       116.4520   95.7770  157.3290 C.3   805  ARG805      0.0492
    165  CD       117.1270   96.8440  156.6890 C.3   805  ARG805      0.2205
    166  NE       117.0230   98.0000  157.4890 N.pl3 805  ARG805     -0.0865
    167  CZ       116.0830   98.9300  157.4190 C.cat 805  ARG805      0.5346
    168  NH1      115.1160   98.9200  156.5490 N.pl3 805  ARG805      0.1354
    169  NH2      116.1690   99.9010  158.2560 N.pl3 805  ARG805      0.1354
    170  N        117.9290   90.2850  160.7940 N.3   808  ASN808     -0.1240
    171  CA       118.6720   89.7030  159.7130 C.3   808  ASN808      0.1653
    172  C        120.1370   89.9680  159.9880 C.2   808  ASN808      0.2266
    173  O        120.9940   89.1050  159.8010 O.2   808  ASN808     -0.2867
    174  CB       118.2290   90.3320  158.4250 C.3   808  ASN808      0.1155
    175  CG       116.7980   90.0180  158.1590 C.2   808  ASN808      0.2627
    176  OD1      116.2390   89.0380  158.6660 O.2   808  ASN808     -0.2716
    177  ND2      116.1710   90.8640  157.3910 N.am  808  ASN808     -0.0877
@<TRIPOS>BOND
     1    78    79    1
     2    81    80    2
     3    80    79    1
     4    79    82    1
     5    82    83    1
     6    83    84    1
     7    84    85    1
     8    89    90    1
     9     9     7   ar
    10    85    86    2
    11     7     6    1
    12     7     8   ar
    13     6     5    1
    14    93    90    1
    15    93    94    1
    16    87    86    1
    17    86    88    1
    18    90    91    1
    19    65    64    2
    20    72    71    2
    21    92    91    2
    22    91    97   am
    23     5     2    1
    24    94    96   ar
    25    94    95   ar
    26   106   107    1
    27    71    70    1
    28    64    63    1
    29    64    69   am
    30   112   110    1
    31    66    63    1
    32    66    68    1
    33    66    67    1
    34    63    62    1
    35   111   110    1
    36    97    98    1
    37    77    75   ar
    38    56    55    2
    39    70    69    1
    40    70    73    1
    41   100    99    2
    42    99    98    1
    43     2     1    1
    44     2     3    1
    45    76    75   ar
    46    75    74    1
    47   107   110    1
    48   107   108    1
    49    16    14    1
    50   109   108    2
    51    98   101    1
    52    62    55   am
    53    74    73    1
    54    55    54    1
    55   108   113   am
    56     3    10   am
    57     3     4    2
    58   101   102    1
    59    10    11    1
    60    14    11    1
    61    14    15    1
    62   152   151    1
    63    52    51    2
    64    54    57    1
    65    54    53    1
    66   102   103    1
    67    11    12    1
    68   113   114    1
    69    57    58    1
    70   153   151    1
    71    51    53   am
    72    51    50    1
    73   151   150    2
    74   117   114    1
    75   117   118    1
    76    13    12    2
    77   114   115    1
    78    27    26    2
    79    12    17   am
    80   103   104   ar
    81   103   105   ar
    82    58    59    1
    83    50    49    1
    84   150   149    1
    85    26    25    1
    86    59    60    1
    87   146   145    2
    88   149   148    1
    89    17    18    1
    90   115   116    2
    91   115   119   am
    92    28    25    1
    93    28    29    1
    94    60    61    1
    95   144   145    1
    96   144   143    1
    97   144   147    1
    98    49    45   am
    99    25    24    1
   100   119   120    1
   101    29    30    1
   102   126   124   am
   103    18    19    1
   104    18    21    1
   105   148   147    1
   106   142   140    1
   107    46    45    2
   108    19    20    2
   109   168   167    1
   110    45    44    1
   111    23    21    1
   112   165   164    1
   113   165   166    1
   114   124   125    2
   115   124   123    1
   116    30    31    2
   117    30    32   am
   118    21    22    1
   119   120   123    1
   120   120   121    1
   121    48    47    1
   122   164   163    1
   123   177   175   am
   124   167   166    2
   125   167   169    1
   126    38    37    1
   127   140   139    1
   128    39    40    1
   129    39    35   am
   130    44    43    1
   131    44    47    1
   132    43    41   am
   133   138   137    2
   134   121   122    2
   135   175   174    1
   136   175   176    2
   137    40    41    1
   138    41    42    2
   139    37    34    1
   140    34    35    1
   141    34    33    1
   142   174   171    1
   143   163   160    1
   144   136   139    1
   145   136   137    1
   146   136   135    1
   147    35    36    2
   148   139   141    1
   149   160   159    1
   150   160   161    1
   151   158   155    1
   152   171   172    1
   153   171   170    1
   154   159   156   am
   155   173   172    2
   156   134   132    1
   157   162   161    2
   158   156   157    2
   159   156   155    1
   160   133   132    1
   161   155   154    1
   162   132   131    1
   163   131   128    1
   164   128   127    1
   165   128   129    1
   166   129   130    2
