@<TRIPOS>MOLECULE
tmp/5vy9D01.pdb
 179 167 0 0 0
SMALL
GASTEIGER

@<TRIPOS>ATOM
      1  N        148.6960   94.9340  165.3050 N.3   430  GLU430     -0.1231
      2  CA       148.8510   96.2750  164.7690 C.3   430  GLU430      0.1699
      3  C        148.2130   97.3180  165.6790 C.2   430  GLU430      0.2592
      4  O        148.7880   98.3860  165.8930 O.2   430  GLU430     -0.2718
      5  CB       148.2440   96.3590  163.3800 C.3   430  GLU430      0.0402
      6  CG       148.9730   95.5180  162.3210 C.3   430  GLU430      0.1161
      7  CD       150.4190   95.8830  162.0860 C.2   430  GLU430      0.3649
      8  OE1      150.7160   97.0400  161.8320 O.co2 430  GLU430     -0.2457
      9  OE2      151.2390   94.9950  162.1440 O.co2 430  GLU430     -0.2457
     10  N        147.0440   96.9980  166.2330 N.am  431  VAL431     -0.1966
     11  CA       146.3740   97.9130  167.1410 C.3   431  VAL431      0.1727
     12  C        146.0290   97.1790  168.4140 C.2   431  VAL431      0.2616
     13  O        145.7230   96.0040  168.3870 O.2   431  VAL431     -0.2715
     14  CB       145.1100   98.5430  166.5270 C.3   431  VAL431      0.0290
     15  CG1      145.4730   99.3950  165.3150 C.3   431  VAL431      0.0023
     16  CG2      144.1440   97.4650  166.1500 C.3   431  VAL431      0.0023
     17  N        146.0050   97.8870  169.5190 N.am  432  VAL432     -0.1977
     18  CA       145.7880   97.2540  170.8090 C.3   432  VAL432      0.1596
     19  C        144.4000   97.4090  171.4080 C.2   432  VAL432      0.2287
     20  O        143.8270   98.5030  171.4490 O.2   432  VAL432     -0.2864
     21  CB       146.8360   97.7900  171.7850 C.3   432  VAL432      0.0276
     22  CG1      146.6510   97.2180  173.1700 C.3   432  VAL432      0.0022
     23  CG2      148.1800   97.4560  171.2380 C.3   432  VAL432      0.0022
     24  N        140.3470   96.8350  171.8510 N.3   434  GLN434     -0.1245
     25  CA       139.3070   97.1080  170.8800 C.3   434  GLN434      0.1566
     26  C        139.0940   95.8560  170.0630 C.2   434  GLN434      0.2260
     27  O        138.8880   95.8930  168.8490 O.2   434  GLN434     -0.2867
     28  CB       139.7980   98.2880  170.0520 C.3   434  GLN434      0.0367
     29  CG       140.1470   99.4330  170.9720 C.3   434  GLN434      0.0905
     30  CD       140.8720  100.4840  170.3670 C.2   434  GLN434      0.2608
     31  OE1      141.3310  100.3440  169.2320 O.2   434  GLN434     -0.2717
     32  NE2      141.0160  101.5960  171.0940 N.am  434  GLN434     -0.0878
     33  N        138.8220  110.2970  170.1160 N.3   467  SER467     -0.1202
     34  CA       139.8390  110.5020  169.1120 C.3   467  SER467      0.2020
     35  C        141.1910  110.2420  169.7360 C.2   467  SER467      0.2619
     36  O        141.4660  110.7200  170.8360 O.2   467  SER467     -0.2717
     37  CB       139.8000  111.9220  168.5900 C.3   467  SER467      0.2103
     38  OG       140.8490  112.1620  167.6920 O.3   467  SER467     -0.2182
     39  N        142.0510  109.5190  169.0370 N.am  468  GLY468     -0.1942
     40  CA       143.3730  109.2150  169.5430 C.3   468  GLY468      0.2014
     41  C        143.4210  107.7900  170.0520 C.2   468  GLY468      0.2640
     42  O        144.4720  107.3450  170.5300 O.2   468  GLY468     -0.2714
     43  N        142.2620  107.1070  169.9900 N.am  469  SER469     -0.1935
     44  CA       142.1010  105.7080  170.3720 C.3   469  SER469      0.2055
     45  C        142.4080  104.7200  169.2290 C.2   469  SER469      0.2644
     46  O        142.4130  103.5030  169.4450 O.2   469  SER469     -0.2714
     47  CB       140.7070  105.4590  170.9030 C.3   469  SER469      0.2130
     48  OG       139.7610  105.6430  169.9030 O.3   469  SER469     -0.2179
     49  N        142.6630  105.2290  168.0140 N.am  470  GLY470     -0.1939
     50  CA       142.9810  104.3910  166.8570 C.3   470  GLY470      0.2014
     51  C        141.8170  104.1560  165.8930 C.2   470  GLY470      0.2639
     52  O        141.7600  103.1190  165.2350 O.2   470  GLY470     -0.2714
     53  N        140.8660  105.0710  165.7960 N.am  471  LYS471     -0.1963
     54  CA       139.7520  104.8070  164.8820 C.3   471  LYS471      0.1728
     55  C        140.2000  104.8710  163.4080 C.2   471  LYS471      0.2617
     56  O        139.8950  103.9640  162.6220 O.2   471  LYS471     -0.2715
     57  CB       138.6140  105.7690  165.1780 C.3   471  LYS471      0.0311
     58  CG       137.9440  105.5280  166.5320 C.3   471  LYS471      0.0038
     59  CD       136.7580  106.4050  166.7400 C.3   471  LYS471      0.0206
     60  CE       137.2050  107.8390  166.8590 C.3   471  LYS471      0.1093
     61  NZ       136.1130  108.7260  167.1770 N.3   471  LYS471     -0.1314
     62  N        140.9690  105.8990  163.0350 N.am  472  THR472     -0.1937
     63  CA       141.4850  105.9970  161.6770 C.3   472  THR472      0.2028
     64  C        142.4910  104.9270  161.4730 C.2   472  THR472      0.2642
     65  O        142.5150  104.2720  160.4300 O.2   472  THR472     -0.2714
     66  CB       142.2180  107.3070  161.3770 C.3   472  THR472      0.1808
     67  OG1      141.3450  108.3890  161.5190 O.3   472  THR472     -0.2208
     68  CG2      142.7940  107.2620  159.9650 C.3   472  THR472      0.0379
     69  N        143.3460  104.7650  162.4790 N.am  473  GLU473     -0.1976
     70  CA       144.3850  103.7730  162.3590 C.3   473  GLU473      0.1602
     71  C        143.7510  102.4470  162.0400 C.2   473  GLU473      0.2287
     72  O        144.1970  101.7710  161.1230 O.2   473  GLU473     -0.2864
     73  CB       145.2500  103.6630  163.6120 C.3   473  GLU473      0.0415
     74  CG       146.4050  102.6740  163.4230 C.3   473  GLU473      0.1163
     75  CD       147.3770  102.6180  164.5500 C.2   473  GLU473      0.3649
     76  OE1      147.1920  103.3030  165.5060 O.co2 473  GLU473     -0.2457
     77  OE2      148.3330  101.8870  164.4340 O.co2 473  GLU473     -0.2457
     78  N        139.4020  107.6000  151.7420 N.3   491  ARG491     -0.1245
     79  CA       139.0350  108.3760  152.9100 C.3   491  ARG491      0.1563
     80  C        138.4920  109.7250  152.5350 C.2   491  ARG491      0.2260
     81  O        139.1550  110.4900  151.8360 O.2   491  ARG491     -0.2867
     82  CB       140.2470  108.5420  153.7570 C.3   491  ARG491      0.0307
     83  CG       140.0600  109.2690  154.9930 C.3   491  ARG491      0.0489
     84  CD       141.3100  109.2740  155.6900 C.3   491  ARG491      0.2205
     85  NE       141.2290  109.9400  156.9050 N.pl3 491  ARG491     -0.0865
     86  CZ       142.2940  110.2030  157.6440 C.cat 491  ARG491      0.5346
     87  NH1      143.4780  109.7970  157.2160 N.pl3 491  ARG491      0.1354
     88  NH2      142.1710  110.8610  158.7700 N.pl3 491  ARG491      0.1354
     89  N        136.5500  105.3590  154.5820 N.3   535  LEU535     -0.1245
     90  CA       136.4980  106.0390  155.8540 C.3   535  LEU535      0.1561
     91  C        135.8730  107.4100  155.7720 C.2   535  LEU535      0.2260
     92  O        136.2680  108.2350  154.9500 O.2   535  LEU535     -0.2867
     93  CB       137.8960  106.1340  156.4560 C.3   535  LEU535      0.0270
     94  CG       138.0040  106.9660  157.7500 C.3   535  LEU535      0.0019
     95  CD1      137.2420  106.3310  158.8260 C.3   535  LEU535      0.0001
     96  CD2      139.4250  107.0380  158.1850 C.3   535  LEU535      0.0001
     97  N        135.3960  110.7310  157.7450 N.3   537  ASP537     -0.1225
     98  CA       136.0400  111.4530  158.8310 C.3   537  ASP537      0.1805
     99  C        135.0770  112.2620  159.6770 C.2   537  ASP537      0.2597
    100  O        134.8410  113.4410  159.4260 O.2   537  ASP537     -0.2718
    101  CB       137.0530  112.4320  158.2760 C.3   537  ASP537      0.1424
    102  CG       138.2210  111.7800  157.5220 C.2   537  ASP537      0.3668
    103  OD1      138.5390  110.6560  157.7820 O.co2 537  ASP537     -0.2456
    104  OD2      138.7900  112.4240  156.6810 O.co2 537  ASP537     -0.2456
    105  N        134.5670  111.6140  160.7020 N.am  538  GLU538     -0.1979
    106  CA       133.6140  112.1690  161.6530 C.3   538  GLU538      0.1602
    107  C        132.2630  112.4500  161.0550 C.2   538  GLU538      0.2287
    108  O        131.9190  113.5920  160.7350 O.2   538  GLU538     -0.2864
    109  CB       134.1540  113.4280  162.3070 C.3   538  GLU538      0.0415
    110  CG       135.4430  113.1800  163.0310 C.3   538  GLU538      0.1163
    111  CD       135.2980  112.3100  164.2530 C.2   538  GLU538      0.3649
    112  OE1      134.8050  112.7940  165.2460 O.co2 538  GLU538     -0.2457
    113  OE2      135.6460  111.1440  164.1770 O.co2 538  GLU538     -0.2457
    114  N        132.9120  107.5060  161.4650 N.3   577  THR577     -0.1218
    115  CA       133.3590  107.7970  162.8410 C.3   577  THR577      0.1862
    116  C        132.6120  108.9010  163.6100 C.2   577  THR577      0.2287
    117  O        132.0410  109.8270  163.0210 O.2   577  THR577     -0.2866
    118  CB       134.8580  108.1540  162.8230 C.3   577  THR577      0.1770
    119  OG1      135.0770  109.3890  162.1010 O.3   577  THR577     -0.2211
    120  CG2      135.6330  107.0300  162.1300 C.3   577  THR577      0.0375
    121  N        142.2050  103.4320  176.1920 N.3   626  LEU626     -0.1245
    122  CA       143.5870  102.9870  176.1980 C.3   626  LEU626      0.1561
    123  C        144.2440  103.1270  177.5570 C.2   626  LEU626      0.2260
    124  O        144.9100  104.1150  177.8570 O.2   626  LEU626     -0.2867
    125  CB       144.3880  103.7050  175.1240 C.3   626  LEU626      0.0270
    126  CG       143.8610  103.4750  173.7090 C.3   626  LEU626      0.0019
    127  CD1      144.7570  104.1840  172.7420 C.3   626  LEU626      0.0001
    128  CD2      143.7790  101.9800  173.4440 C.3   626  LEU626      0.0001
    129  N        151.2070   99.6210  173.1640 N.3   634  ILE634     -0.1245
    130  CA       151.1230  100.6390  172.1310 C.3   634  ILE634      0.1561
    131  C        152.3860  101.4030  171.9420 C.2   634  ILE634      0.2260
    132  O        152.7950  101.6440  170.8140 O.2   634  ILE634     -0.2867
    133  CB       150.0000  101.6140  172.4090 C.3   634  ILE634      0.0252
    134  CG1      148.7320  100.8850  172.2430 C.3   634  ILE634      0.0019
    135  CG2      150.0780  102.8130  171.5010 C.3   634  ILE634      0.0019
    136  CD1      147.5590  101.5900  172.7090 C.3   634  ILE634      0.0001
    137  N        154.7180   99.4920  169.9070 N.3   637  ILE637     -0.1231
    138  CA       154.2540   99.3920  168.5460 C.3   637  ILE637      0.1692
    139  C        154.5310  100.6670  167.8040 C.2   637  ILE637      0.2591
    140  O        155.0110  100.6460  166.6670 O.2   637  ILE637     -0.2718
    141  CB       152.7460   99.1240  168.4930 C.3   637  ILE637      0.0266
    142  CG1      152.4350   97.7370  169.0160 C.3   637  ILE637      0.0019
    143  CG2      152.2210   99.3050  167.0780 C.3   637  ILE637      0.0020
    144  CD1      150.9700   97.5350  169.2730 C.3   637  ILE637      0.0001
    145  N        154.2120  101.7810  168.4340 N.am  638  ARG638     -0.1980
    146  CA       154.3670  103.0290  167.7570 C.3   638  ARG638      0.1597
    147  C        155.8000  103.4180  167.6390 C.2   638  ARG638      0.2287
    148  O        156.2240  103.8140  166.5700 O.2   638  ARG638     -0.2864
    149  CB       153.6080  104.1160  168.4720 C.3   638  ARG638      0.0334
    150  CG       152.1130  103.9230  168.4630 C.3   638  ARG638      0.0492
    151  CD       151.5620  103.7370  167.0880 C.3   638  ARG638      0.2205
    152  NE       151.7420  104.9090  166.2470 N.pl3 638  ARG638     -0.0865
    153  CZ       151.5030  104.9320  164.9170 C.cat 638  ARG638      0.5346
    154  NH1      151.0770  103.8500  164.3090 N.pl3 638  ARG638      0.1354
    155  NH2      151.6930  106.0410  164.2240 N.pl3 638  ARG638      0.1354
    156  N        146.0160  107.7900  172.7950 N.3   676  ALA676     -0.1231
    157  CA       147.4610  107.6130  172.6440 C.3   676  ALA676      0.1694
    158  C        148.0580  108.7720  171.8570 C.2   676  ALA676      0.2591
    159  O        149.2570  109.0380  171.9190 O.2   676  ALA676     -0.2718
    160  CB       147.7690  106.2860  171.9750 C.3   676  ALA676      0.0304
    161  N        147.2180  109.5020  171.1510 N.am  677  ARG677     -0.1980
    162  CA       147.7090  110.6670  170.4170 C.3   677  ARG677      0.1597
    163  C        148.6920  111.5680  171.2320 C.2   677  ARG677      0.2287
    164  O        149.7380  111.9470  170.7060 O.2   677  ARG677     -0.2864
    165  CB       146.5410  111.4970  169.9180 C.3   677  ARG677      0.0334
    166  CG       146.8980  112.8070  169.2370 C.3   677  ARG677      0.0492
    167  CD       147.5640  112.6250  167.9530 C.3   677  ARG677      0.2205
    168  NE       147.8930  113.9120  167.3370 N.pl3 677  ARG677     -0.0865
    169  CZ       149.0540  114.5850  167.4760 C.cat 677  ARG677      0.5346
    170  NH1      150.0340  114.0850  168.1790 N.pl3 677  ARG677      0.1354
    171  NH2      149.2270  115.7510  166.8840 N.pl3 677  ARG677      0.1354
    172  N        152.1810  110.4300  171.3580 N.3   680  ASN680     -0.1240
    173  CA       152.9520  110.7500  170.1700 C.3   680  ASN680      0.1653
    174  C        153.4800  112.1560  170.3010 C.2   680  ASN680      0.2266
    175  O        154.6050  112.4470  169.8940 O.2   680  ASN680     -0.2867
    176  CB       152.1270  110.6150  168.9310 C.3   680  ASN680      0.1155
    177  CG       151.8350  109.2380  168.6440 C.2   680  ASN680      0.2627
    178  OD1      152.5650  108.3090  169.0210 O.2   680  ASN680     -0.2716
    179  ND2      150.7410  109.0600  167.9910 N.am  680  ASN680     -0.0877
@<TRIPOS>BOND
     1    78    79    1
     2    81    80    2
     3    80    79    1
     4    79    82    1
     5    82    83    1
     6    89    90    1
     7    92    91    2
     8    83    84    1
     9    84    85    1
    10    91    90    1
    11    90    93    1
    12    93    94    1
    13   104   102   ar
    14    85    86    2
    15    87    86    1
    16   102   103   ar
    17   102   101    1
    18    86    88    1
    19    97    98    1
    20    94    96    1
    21    94    95    1
    22   101    98    1
    23    98    99    1
    24   100    99    2
    25    99   105   am
    26    68    66    1
    27    65    64    2
    28   105   106    1
    29   108   107    2
    30   107   106    1
    31    72    71    2
    32    66    67    1
    33    66    63    1
    34   114   115    1
    35    64    63    1
    36    64    69   am
    37   106   109    1
    38    63    62    1
    39     8     7   ar
    40    71    70    1
    41     7     9   ar
    42     7     6    1
    43   119   118    1
    44   120   118    1
    45   109   110    1
    46     6     5    1
    47    70    69    1
    48    70    73    1
    49    56    55    2
    50   118   115    1
    51   115   116    1
    52   117   116    2
    53   110   111    1
    54    62    55   am
    55     5     2    1
    56    55    54    1
    57    74    73    1
    58    74    75    1
    59   113   111   ar
    60   155   153    1
    61   111   112   ar
    62   154   153    1
    63    77    75   ar
    64    75    76   ar
    65     2     1    1
    66     2     3    1
    67    54    57    1
    68    54    53    1
    69   153   152    2
    70    57    58    1
    71    52    51    2
    72    15    14    1
    73     3     4    2
    74     3    10   am
    75    53    51   am
    76    51    50    1
    77    16    14    1
    78    10    11    1
    79   152   151    1
    80    14    11    1
    81    58    59    1
    82   148   147    2
    83   140   139    2
    84    59    60    1
    85    50    49    1
    86    60    61    1
    87   171   169    1
    88   143   141    1
    89   151   150    1
    90    11    12    1
    91   168   169    2
    92   168   167    1
    93   169   170    1
    94   147   146    1
    95    38    37    1
    96   146   145    1
    97   146   149    1
    98   139   145   am
    99   139   138    1
   100   167   166    1
   101   179   177   am
   102    49    45   am
   103    13    12    2
   104    12    17   am
   105   150   149    1
   106   141   138    1
   107   141   142    1
   108   138   137    1
   109    37    34    1
   110   177   176    1
   111   177   178    2
   112    27    26    2
   113   176   173    1
   114   142   144    1
   115    39    40    1
   116    39    35   am
   117    34    35    1
   118    34    33    1
   119    45    46    2
   120    45    44    1
   121    31    30    2
   122   166   165    1
   123    17    18    1
   124    40    41    1
   125    35    36    2
   126   175   174    2
   127    48    47    1
   128   165   162    1
   129    43    41   am
   130    43    44    1
   131    41    42    2
   132    28    25    1
   133    28    29    1
   134    26    25    1
   135   173   174    1
   136   173   172    1
   137    30    29    1
   138    30    32   am
   139    44    47    1
   140   162   161    1
   141   162   163    1
   142   164   163    2
   143    18    19    1
   144    18    21    1
   145   132   131    2
   146    25    24    1
   147   161   158   am
   148    23    21    1
   149    19    20    2
   150   135   133    1
   151    21    22    1
   152   158   159    2
   153   158   157    1
   154   131   130    1
   155   160   157    1
   156   130   133    1
   157   130   129    1
   158   134   133    1
   159   134   136    1
   160   157   156    1
   161   127   126    1
   162   128   126    1
   163   126   125    1
   164   125   122    1
   165   121   122    1
   166   122   123    1
   167   123   124    2
