@<TRIPOS>MOLECULE
tmp/5vyaA00.pdb
 176 169 0 0 0
SMALL
GASTEIGER

@<TRIPOS>ATOM
      1  N        163.8980  144.3280  128.4410 N.3    20  ASP20      -0.1225
      2  CA       164.2650  144.7880  129.7490 C.3    20  ASP20       0.1790
      3  C        165.3380  143.8550  130.2910 C.2    20  ASP20       0.2440
      4  O        165.4550  142.7160  129.8300 O.2    20  ASP20      -0.2733
      5  CB       163.0470  144.7900  130.6460 C.3    20  ASP20       0.1423
      6  CG       162.0450  145.8080  130.1910 C.2    20  ASP20       0.3668
      7  OD1      162.3540  146.5650  129.2980 O.co2  20  ASP20      -0.2456
      8  OD2      160.9460  145.8810  130.7120 O.co2  20  ASP20      -0.2456
      9  N        166.1770  144.3000  131.2100 N.am   21  PRO21      -0.2718
     10  CA       167.1020  143.4550  131.9080 C.3    21  PRO21       0.1535
     11  C        166.2750  142.5890  132.8110 C.2    21  PRO21       0.2598
     12  O        165.2020  143.0150  133.2400 O.2    21  PRO21      -0.2715
     13  CB       167.9670  144.4510  132.6710 C.3    21  PRO21       0.0310
     14  CG       167.0850  145.6740  132.8140 C.3    21  PRO21       0.0237
     15  CD       166.2620  145.7190  131.5470 C.3    21  PRO21       0.0939
     16  N        166.7610  141.4040  133.1200 N.am   22  VAL22      -0.1964
     17  CA       166.0390  140.5550  134.0450 C.3    22  VAL22       0.1727
     18  C        166.8180  140.4140  135.3320 C.2    22  VAL22       0.2616
     19  O        168.0030  140.0760  135.3220 O.2    22  VAL22      -0.2715
     20  CB       165.6500  139.2430  133.3840 C.3    22  VAL22       0.0290
     21  CG1      164.9280  138.3430  134.3790 C.3    22  VAL22       0.0023
     22  CG2      164.7270  139.5930  132.2100 C.3    22  VAL22       0.0023
     23  N        166.1520  140.7520  136.4360 N.am   23  ILE23      -0.1977
     24  CA       166.8100  140.8570  137.7210 C.3    23  ILE23       0.1596
     25  C        166.3260  139.9080  138.7960 C.2    23  ILE23       0.2287
     26  O        165.1470  139.8910  139.1360 O.2    23  ILE23      -0.2864
     27  CB       166.5750  142.2690  138.2460 C.3    23  ILE23       0.0276
     28  CG1      167.0570  143.2590  137.2370 C.3    23  ILE23       0.0022
     29  CG2      167.2540  142.4620  139.5410 C.3    23  ILE23       0.0022
     30  CD1      165.9360  143.7360  136.3260 C.3    23  ILE23       0.0001
     31  N        165.9150  136.7430  138.8070 N.3    25  ARG25      -0.1245
     32  CA       165.1690  135.5700  138.3880 C.3    25  ARG25       0.1563
     33  C        166.0430  134.4540  137.8990 C.2    25  ARG25       0.2260
     34  O        165.5640  133.5040  137.2780 O.2    25  ARG25      -0.2867
     35  CB       164.1780  135.9280  137.3150 C.3    25  ARG25       0.0307
     36  CG       163.1750  136.9220  137.7670 C.3    25  ARG25       0.0489
     37  CD       162.3650  136.3560  138.8590 C.3    25  ARG25       0.2205
     38  NE       161.3730  137.2670  139.3140 N.pl3  25  ARG25      -0.0865
     39  CZ       160.5300  137.0290  140.3280 C.cat  25  ARG25       0.5346
     40  NH1      160.5530  135.9140  141.0060 N.pl3  25  ARG25       0.1354
     41  NH2      159.6510  137.9110  140.6690 N.pl3  25  ARG25       0.1354
     42  N        149.4350  137.2810  139.0630 N.3    50  PRO50      -0.2102
     43  CA       149.8140  138.2370  138.0340 C.3    50  PRO50       0.1504
     44  C        150.8490  139.2060  138.5640 C.2    50  PRO50       0.2576
     45  O        150.8620  139.4840  139.7620 O.2    50  PRO50      -0.2718
     46  CB       148.5020  138.9840  137.7700 C.3    50  PRO50       0.0282
     47  CG       147.4150  138.0480  138.2480 C.3    50  PRO50       0.0208
     48  CD       148.0170  137.3670  139.4610 C.3    50  PRO50       0.0893
     49  N        151.7040  139.7430  137.6970 N.am   51  GLY51      -0.1943
     50  CA       152.6330  140.7890  138.1250 C.3    51  GLY51       0.2014
     51  C        153.8280  140.3320  138.9560 C.2    51  GLY51       0.2639
     52  O        154.3510  141.1100  139.7600 O.2    51  GLY51      -0.2714
     53  N        154.2570  139.0810  138.7820 N.am   52  ILE52      -0.1963
     54  CA       155.3730  138.5260  139.5490 C.3    52  ILE52       0.1727
     55  C        156.5850  138.1290  138.6960 C.2    52  ILE52       0.2617
     56  O        157.4130  137.3440  139.1420 O.2    52  ILE52      -0.2715
     57  CB       154.9440  137.3010  140.3080 C.3    52  ILE52       0.0290
     58  CG1      154.5180  136.3270  139.3410 C.3    52  ILE52       0.0022
     59  CG2      153.8360  137.6290  141.2770 C.3    52  ILE52       0.0023
     60  CD1      154.2330  135.0460  139.9360 C.3    52  ILE52       0.0001
     61  N        156.6750  138.6270  137.4680 N.am   53  GLY53      -0.1940
     62  CA       157.8030  138.3420  136.5770 C.3    53  GLY53       0.2014
     63  C        157.6610  137.1040  135.6720 C.2    53  GLY53       0.2639
     64  O        158.6270  136.6870  135.0330 O.2    53  GLY53      -0.2714
     65  N        156.4810  136.5300  135.5510 N.am   54  LYS54      -0.1963
     66  CA       156.3600  135.3280  134.7320 C.3    54  LYS54       0.1728
     67  C        156.8140  135.5600  133.2940 C.2    54  LYS54       0.2617
     68  O        157.5410  134.7430  132.7350 O.2    54  LYS54      -0.2715
     69  CB       154.9260  134.8570  134.7640 C.3    54  LYS54       0.0311
     70  CG       154.5190  134.2820  136.0920 C.3    54  LYS54       0.0038
     71  CD       153.1430  133.7770  136.0300 C.3    54  LYS54       0.0206
     72  CE       152.2060  134.9450  135.8850 C.3    54  LYS54       0.1093
     73  NZ       150.8250  134.5290  135.8810 N.3    54  LYS54      -0.1314
     74  N        156.4780  136.6940  132.6950 N.am   55  THR55      -0.1937
     75  CA       156.9890  136.8880  131.3550 C.3    55  THR55       0.2028
     76  C        158.4160  137.4430  131.3740 C.2    55  THR55       0.2642
     77  O        159.1380  137.3360  130.3800 O.2    55  THR55      -0.2714
     78  CB       156.0400  137.7600  130.5530 C.3    55  THR55       0.1808
     79  OG1      155.8580  138.9800  131.2400 O.3    55  THR55      -0.2208
     80  CG2      154.7240  137.0650  130.3630 C.3    55  THR55       0.0379
     81  N        158.8470  137.9950  132.5140 N.am   56  ALA56      -0.1977
     82  CA       160.2070  138.5240  132.6440 C.3    56  ALA56       0.1597
     83  C        161.1760  137.3840  132.5080 C.2    56  ALA56       0.2287
     84  O        162.2150  137.4920  131.8650 O.2    56  ALA56      -0.2864
     85  CB       160.4270  139.2100  133.9730 C.3    56  ALA56       0.0319
     86  N        161.7280  136.6440  128.9340 N.3    59  GLU59      -0.1245
     87  CA       162.6540  137.5340  128.2510 C.3    59  GLU59       0.1567
     88  C        164.0670  137.1670  128.7060 C.2    59  GLU59       0.2260
     89  O        165.0130  137.1510  127.9180 O.2    59  GLU59      -0.2867
     90  CB       162.3610  139.0130  128.5530 C.3    59  GLU59       0.0388
     91  CG       161.0540  139.5400  127.9460 C.3    59  GLU59       0.1160
     92  CD       160.8050  141.0640  128.1560 C.2    59  GLU59       0.3649
     93  OE1      161.5760  141.7070  128.8230 O.co2  59  GLU59      -0.2457
     94  OE2      159.8500  141.5700  127.6130 O.co2  59  GLU59      -0.2457
     95  N        151.5910  131.8930  127.2070 N.3   120  ASP120     -0.1225
     96  CA       151.4830  132.9310  128.2020 C.3   120  ASP120      0.1805
     97  C        150.3120  132.6270  129.0930 C.2   120  ASP120      0.2597
     98  O        150.3380  132.8970  130.2980 O.2   120  ASP120     -0.2718
     99  CB       151.2940  134.2840  127.5000 C.3   120  ASP120      0.1424
    100  CG       152.5510  134.8010  126.7390 C.2   120  ASP120      0.3668
    101  OD1      153.3910  135.3760  127.3760 O.co2 120  ASP120     -0.2456
    102  OD2      152.6840  134.5530  125.5530 O.co2 120  ASP120     -0.2456
    103  N        149.2850  132.0600  128.4870 N.am  121  GLU121     -0.1979
    104  CA       148.0620  131.7790  129.2080 C.3   121  GLU121      0.1602
    105  C        147.5220  130.3860  128.9280 C.2   121  GLU121      0.2287
    106  O        146.5790  130.2200  128.1650 O.2   121  GLU121     -0.2864
    107  CB       147.0530  132.8670  128.8690 C.3   121  GLU121      0.0415
    108  CG       147.4800  134.2820  129.3550 C.3   121  GLU121      0.1163
    109  CD       146.4990  135.3640  129.0770 C.2   121  GLU121      0.3649
    110  OE1      146.2730  135.6590  127.9290 O.co2 121  GLU121     -0.2457
    111  OE2      145.9760  135.9170  130.0210 O.co2 121  GLU121     -0.2457
    112  N        152.5940  129.1320  131.5410 N.3   151  ALA151     -0.1245
    113  CA       152.4250  130.1590  132.5530 C.3   151  ALA151      0.1562
    114  C        150.9510  130.2850  132.8960 C.2   151  ALA151      0.2260
    115  O        150.0880  130.1480  132.0200 O.2   151  ALA151     -0.2867
    116  CB       152.9940  131.4780  132.0850 C.3   151  ALA151      0.0290
    117  N        164.9280  145.2120  141.0930 N.3   187  ILE187     -0.1245
    118  CA       164.1700  145.1370  139.8570 C.3   187  ILE187      0.1561
    119  C        163.8360  146.5110  139.3550 C.2   187  ILE187      0.2260
    120  O        163.9800  146.8090  138.1640 O.2   187  ILE187     -0.2867
    121  CB       162.8340  144.4130  140.0110 C.3   187  ILE187      0.0252
    122  CG1      163.0450  142.9580  140.3050 C.3   187  ILE187      0.0019
    123  CG2      162.0050  144.6200  138.7410 C.3   187  ILE187      0.0019
    124  CD1      161.7810  142.2910  140.7300 C.3   187  ILE187      0.0001
    125  N        164.8150  148.4270  135.8110 N.3   191  LEU191     -0.1245
    126  CA       163.9230  149.0700  134.8600 C.3   191  LEU191      0.1561
    127  C        163.9760  150.5900  134.9630 C.2   191  LEU191      0.2260
    128  O        163.4820  151.3030  134.0920 O.2   191  LEU191     -0.2867
    129  CB       162.4910  148.5760  135.0570 C.3   191  LEU191      0.0270
    130  CG       162.1380  147.2420  134.3570 C.3   191  LEU191      0.0019
    131  CD1      162.9780  146.1040  134.9380 C.3   191  LEU191      0.0001
    132  CD2      160.6630  146.9570  134.5300 C.3   191  LEU191      0.0001
    133  N        164.6020  152.5750  131.8870 N.3   194  LYS194     -0.1231
    134  CA       163.5510  152.4580  130.9050 C.3   194  LYS194      0.1693
    135  C        162.5580  153.5570  131.1230 C.2   194  LYS194      0.2592
    136  O        162.1690  154.2710  130.1930 O.2   194  LYS194     -0.2718
    137  CB       162.8750  151.1080  131.0250 C.3   194  LYS194      0.0285
    138  CG       161.7500  150.9040  130.1150 C.3   194  LYS194      0.0035
    139  CD       161.3250  149.4840  130.1720 C.3   194  LYS194      0.0206
    140  CE       160.1300  149.2040  129.3030 C.3   194  LYS194      0.1093
    141  NZ       159.9470  147.7690  129.1660 N.3   194  LYS194     -0.1314
    142  N        162.1770  153.7210  132.3740 N.am  195  TYR195     -0.1976
    143  CA       161.1900  154.7210  132.6960 C.3   195  TYR195      0.1639
    144  C        161.7920  156.0940  132.5770 C.2   195  TYR195      0.2290
    145  O        161.1500  157.0150  132.0710 O.2   195  TYR195     -0.2864
    146  CB       160.6940  154.5240  134.1030 C.3   195  TYR195      0.0560
    147  CG       159.9190  153.3250  134.2650 C.ar  195  TYR195     -0.0198
    148  CD1      158.6900  153.2120  133.6730 C.ar  195  TYR195     -0.0009
    149  CD2      160.4330  152.3100  135.0070 C.ar  195  TYR195     -0.0009
    150  CE1      157.9660  152.0640  133.8340 C.ar  195  TYR195      0.0417
    151  CE2      159.7200  151.1740  135.1740 C.ar  195  TYR195      0.0417
    152  CZ       158.4710  151.0430  134.5850 C.ar  195  TYR195      0.1957
    153  OH       157.7390  149.8990  134.7520 O.3   195  TYR195     -0.2866
    154  N        156.4280  143.4270  142.0060 N.3   225  PRO225     -0.2102
    155  CA       156.9910  143.9150  140.7700 C.3   225  PRO225      0.1504
    156  C        156.0300  144.9170  140.1680 C.2   225  PRO225      0.2575
    157  O        156.3520  146.0950  140.0750 O.2   225  PRO225     -0.2718
    158  CB       157.1870  142.6440  139.9640 C.3   225  PRO225      0.0282
    159  CG       157.3900  141.6190  141.0440 C.3   225  PRO225      0.0208
    160  CD       156.3590  142.0160  142.1120 C.3   225  PRO225      0.0893
    161  N        154.7980  144.5010  139.8580 N.am  226  ASP226     -0.1974
    162  CA       153.8820  145.5160  139.3440 C.3   226  ASP226      0.1708
    163  C        153.5640  146.6260  140.3110 C.2   226  ASP226      0.2293
    164  O        153.4520  147.7760  139.9220 O.2   226  ASP226     -0.2864
    165  CB       152.5270  144.9520  138.9500 C.3   226  ASP226      0.1436
    166  CG       152.5150  144.2350  137.7140 C.2   226  ASP226      0.3671
    167  OD1      153.4540  144.3360  136.9800 O.co2 226  ASP226     -0.2456
    168  OD2      151.5420  143.5780  137.4550 O.co2 226  ASP226     -0.2456
    169  N        156.4830  148.9330  140.6080 N.3   229  LEU229     -0.1245
    170  CA       156.7300  149.5430  139.3070 C.3   229  LEU229      0.1561
    171  C        155.6570  150.5280  138.9470 C.2   229  LEU229      0.2260
    172  O        155.9540  151.5430  138.3370 O.2   229  LEU229     -0.2867
    173  CB       156.8810  148.4940  138.2090 C.3   229  LEU229      0.0270
    174  CG       158.1650  147.7100  138.2640 C.3   229  LEU229      0.0019
    175  CD1      158.1030  146.5780  137.3740 C.3   229  LEU229      0.0001
    176  CD2      159.2690  148.5810  137.7790 C.3   229  LEU229      0.0001
@<TRIPOS>BOND
     1   102   100   ar
     2   100   101   ar
     3   100    99    1
     4    95    96    1
     5    99    96    1
     6    94    92   ar
     7    89    88    2
     8   110   109   ar
     9    91    92    1
    10    91    90    1
    11    92    93   ar
    12   106   105    2
    13    96    97    1
    14    87    90    1
    15    87    88    1
    16    87    86    1
    17     1     2    1
    18   103    97   am
    19   103   104    1
    20   107   104    1
    21   107   108    1
    22   105   104    1
    23   109   108    1
    24   109   111   ar
    25    97    98    2
    26   141   140    1
    27     7     6   ar
    28   140   139    1
    29     2     3    1
    30     2     5    1
    31     4     3    2
    32   138   139    1
    33   138   137    1
    34     6     5    1
    35     6     8   ar
    36   136   135    2
    37     3     9   am
    38    80    78    1
    39    77    76    2
    40    78    79    1
    41    78    75    1
    42   134   137    1
    43   134   135    1
    44   134   133    1
    45   135   142   am
    46     9    15    1
    47     9    10    1
    48    75    76    1
    49    75    74    1
    50    76    81   am
    51   112   113    1
    52    15    14    1
    53    84    83    2
    54    10    13    1
    55    10    11    1
    56   115   114    2
    57   145   144    2
    58   116   113    1
    59    22    20    1
    60   142   143    1
    61    83    82    1
    62    81    82    1
    63   113   114    1
    64   144   143    1
    65    82    85    1
    66    13    14    1
    67    74    67   am
    68   143   146    1
    69    68    67    2
    70    11    16   am
    71    11    12    2
    72    16    17    1
    73    67    66    1
    74    20    17    1
    75    20    21    1
    76   148   150   ar
    77   148   147   ar
    78   150   152   ar
    79    17    18    1
    80   128   127    2
    81   146   147    1
    82   147   149   ar
    83   130   132    1
    84   130   131    1
    85   130   129    1
    86   152   153    1
    87   152   151   ar
    88    66    69    1
    89    66    65    1
    90    69    70    1
    91   126   127    1
    92   126   129    1
    93   126   125    1
    94   149   151   ar
    95    64    63    2
    96    19    18    2
    97    18    23   am
    98    65    63   am
    99    63    62    1
   100    73    72    1
   101    72    71    1
   102    71    70    1
   103    30    28    1
   104    23    24    1
   105    62    61    1
   106   167   166   ar
   107    28    27    1
   108    34    33    2
   109    35    36    1
   110    35    32    1
   111   175   174    1
   112   168   166   ar
   113    61    55   am
   114    49    50    1
   115    49    44   am
   116   166   165    1
   117    24    27    1
   118    24    25    1
   119    36    37    1
   120    46    43    1
   121    46    47    1
   122   176   174    1
   123    33    32    1
   124    43    44    1
   125    43    42    1
   126    50    51    1
   127   120   119    2
   128   173   174    1
   129   173   170    1
   130    27    29    1
   131    47    48    1
   132   172   171    2
   133    32    31    1
   134    44    45    2
   135    55    56    2
   136    55    54    1
   137   123   121    1
   138    53    51   am
   139    53    54    1
   140    25    26    2
   141    37    38    1
   142   171   170    1
   143   165   162    1
   144    51    52    2
   145    42    48    1
   146   170   169    1
   147    38    39    2
   148    58    60    1
   149    58    57    1
   150   162   161    1
   151   162   163    1
   152   119   118    1
   153    54    57    1
   154   118   121    1
   155   118   117    1
   156   161   156   am
   157   164   163    2
   158   158   155    1
   159   158   159    1
   160   121   122    1
   161   157   156    2
   162   156   155    1
   163   122   124    1
   164    57    59    1
   165    39    41    1
   166    39    40    1
   167   155   154    1
   168   159   160    1
   169   154   160    1
