@<TRIPOS>MOLECULE
tmp/5vyeB00.pdb
 124 113 0 0 0
SMALL
GASTEIGER

@<TRIPOS>ATOM
      1  N         70.7310   23.3900   66.2400 N.3    10  ASN10      -0.1240
      2  CA        69.9630   22.2960   65.6470 C.3    10  ASN10       0.1653
      3  C         70.8100   21.3870   64.7760 C.2    10  ASN10       0.2266
      4  O         70.2600   20.5460   64.0630 O.2    10  ASN10      -0.2867
      5  CB        68.8040   22.8230   64.7750 C.3    10  ASN10       0.1155
      6  CG        67.8790   23.7840   65.5100 C.2    10  ASN10       0.2627
      7  OD1       68.1210   24.1190   66.6660 O.2    10  ASN10      -0.2716
      8  ND2       66.8340   24.2370   64.8490 N.am   10  ASN10      -0.0877
      9  N         58.3330   18.0570   67.8650 N.3    61  ASN61      -0.1225
     10  CA        59.2470   19.1930   67.6870 C.3    61  ASN61       0.1785
     11  C         58.6310   20.4590   68.2830 C.2    61  ASN61       0.2598
     12  O         57.4840   20.4760   68.7190 O.2    61  ASN61      -0.2718
     13  CB        59.5890   19.4000   66.2070 C.3    61  ASN61       0.1169
     14  CG        58.3750   19.9880   65.3760 C.2    61  ASN61       0.2627
     15  OD1       57.3700   20.3920   65.9310 O.2    61  ASN61      -0.2716
     16  ND2       58.4820   19.9610   64.0720 N.am   61  ASN61      -0.0877
     17  N         59.4090   21.5330   68.2830 N.am   62  GLY62      -0.1942
     18  CA        58.9760   22.7570   68.9360 C.3    62  GLY62       0.2014
     19  C         57.8580   23.4800   68.1890 C.2    62  GLY62       0.2639
     20  O         57.0220   24.1380   68.8040 O.2    62  GLY62      -0.2714
     21  N         57.8320   23.3790   66.8640 N.am   63  THR63      -0.1950
     22  CA        56.8280   24.0970   66.0940 C.3    63  THR63       0.1897
     23  C         55.4310   23.6000   66.4510 C.2    63  THR63       0.2313
     24  O         54.5330   24.3990   66.7140 O.2    63  THR63      -0.2863
     25  CB        57.0600   23.9310   64.5950 C.3    63  THR63       0.1794
     26  OG1       58.2030   24.7040   64.2100 O.3    63  THR63      -0.2208
     27  CG2       55.7780   24.3710   63.7880 C.3    63  THR63       0.0378
     28  N         54.6250   24.2950   70.4360 N.3    66  ASN66      -0.1240
     29  CA        54.1120   25.6510   70.5940 C.3    66  ASN66       0.1653
     30  C         52.7440   25.8290   69.9450 C.2    66  ASN66       0.2266
     31  O         51.8860   26.5430   70.4670 O.2    66  ASN66      -0.2867
     32  CB        55.0950   26.6260   69.9670 C.3    66  ASN66       0.1155
     33  CG        56.3200   26.8900   70.8300 C.2    66  ASN66       0.2627
     34  OD1       57.2600   27.3990   70.2950 O.2    66  ASN66      -0.2716
     35  ND2       56.3130   26.5750   72.0990 N.am   66  ASN66      -0.0877
     36  N         59.6070   33.0580   67.5110 N.3    87  HIS87      -0.1241
     37  CA        59.6660   31.9730   66.5440 C.3    87  HIS87       0.1621
     38  C         58.2720   31.6460   66.0100 C.2    87  HIS87       0.2264
     39  O         58.1110   31.3820   64.8130 O.2    87  HIS87      -0.2867
     40  CB        60.3390   30.7600   67.2210 C.3    87  HIS87       0.0745
     41  CG        60.5550   29.5620   66.3350 C.ar   87  HIS87       0.0817
     42  ND1       59.6360   28.5300   66.2250 N.ar   87  HIS87      -0.2268
     43  CD2       61.6260   29.1910   65.5860 C.ar   87  HIS87       0.1154
     44  CE1       60.1120   27.6000   65.4140 C.ar   87  HIS87       0.1986
     45  NE2       61.3200   27.9740   65.0150 N.ar   87  HIS87      -0.2212
     46  N         57.8770   29.4020   61.7530 N.3    92  GLU92      -0.1245
     47  CA        57.0600   28.1920   61.8460 C.3    92  GLU92       0.1567
     48  C         56.1190   28.0150   60.6610 C.2    92  GLU92       0.2260
     49  O         55.2050   27.2020   60.7360 O.2    92  GLU92      -0.2867
     50  CB        56.2790   28.1690   63.1660 C.3    92  GLU92       0.0388
     51  CG        57.2080   28.1430   64.3400 C.3    92  GLU92       0.1160
     52  CD        56.5270   27.9170   65.6670 C.2    92  GLU92       0.3649
     53  OE1       55.2870   27.8020   65.7060 O.co2  92  GLU92      -0.2457
     54  OE2       57.2420   27.8360   66.6830 O.co2  92  GLU92      -0.2457
     55  N         59.2830   33.8650   74.9520 N.3   141  THR141     -0.1218
     56  CA        60.3590   32.9500   74.6220 C.3   141  THR141      0.1862
     57  C         61.5170   33.0870   75.6160 C.2   141  THR141      0.2287
     58  O         62.0690   34.1760   75.7810 O.2   141  THR141     -0.2866
     59  CB        60.8650   33.2780   73.2240 C.3   141  THR141      0.1770
     60  OG1       59.7490   33.3870   72.3400 O.3   141  THR141     -0.2211
     61  CG2       61.8200   32.2270   72.7900 C.3   141  THR141      0.0375
     62  N         65.1690   31.0900   76.8740 N.3   143  ALA143     -0.1245
     63  CA        65.6770   32.3800   76.4940 C.3   143  ALA143      0.1562
     64  C         65.1100   32.8180   75.1640 C.2   143  ALA143      0.2260
     65  O         64.6620   31.9960   74.3720 O.2   143  ALA143     -0.2867
     66  CB        67.2360   32.3520   76.4150 C.3   143  ALA143      0.0290
     67  N         64.8640   34.7050   71.3150 N.3   145  GLU145     -0.1245
     68  CA        65.4810   34.4800   70.0200 C.3   145  GLU145      0.1567
     69  C         66.6600   35.4030   69.7740 C.2   145  GLU145      0.2260
     70  O         67.3350   35.2340   68.7540 O.2   145  GLU145     -0.2867
     71  CB        64.4370   34.6580   68.9060 C.3   145  GLU145      0.0388
     72  CG        63.1760   33.7420   69.0440 C.3   145  GLU145      0.1160
     73  CD        62.0460   34.2440   69.9960 C.2   145  GLU145      0.3649
     74  OE1       62.1660   35.2900   70.6720 O.co2 145  GLU145     -0.2457
     75  OE2       61.0250   33.5270   70.0700 O.co2 145  GLU145     -0.2457
     76  N         57.5860   29.6240   75.3920 N.3   172  ASP172     -0.1239
     77  CA        58.4260   28.8740   74.4730 C.3   172  ASP172      0.1674
     78  C         59.8010   28.6760   75.1130 C.2   172  ASP172      0.2266
     79  O         60.6330   29.5810   75.0930 O.2   172  ASP172     -0.2867
     80  CB        58.5660   29.6360   73.1640 C.3   172  ASP172      0.1410
     81  CG        59.3490   28.8740   72.1150 C.2   172  ASP172      0.3668
     82  OD1       59.9180   27.8210   72.4350 O.co2 172  ASP172     -0.2456
     83  OD2       59.4110   29.3460   70.9530 O.co2 172  ASP172     -0.2456
     84  N         62.3290   26.7250   74.1460 N.3   174  ALA174     -0.1231
     85  CA        63.2220   25.9830   73.2780 C.3   174  ALA174      0.1694
     86  C         64.6310   25.9920   73.8590 C.2   174  ALA174      0.2591
     87  O         65.3580   25.0060   73.7580 O.2   174  ALA174     -0.2718
     88  CB        63.2130   26.5900   71.8800 C.3   174  ALA174      0.0304
     89  N         65.0130   27.1060   74.4670 N.am  175  ARG175     -0.1980
     90  CA        66.2780   27.3060   75.1510 C.3   175  ARG175      0.1597
     91  C         66.0350   27.5500   76.6340 C.2   175  ARG175      0.2287
     92  O         66.7030   28.3510   77.2860 O.2   175  ARG175     -0.2864
     93  CB        67.0260   28.4490   74.4780 C.3   175  ARG175      0.0334
     94  CG        67.4620   28.0210   73.0730 C.3   175  ARG175      0.0492
     95  CD        68.1900   29.0810   72.2780 C.3   175  ARG175      0.2205
     96  NE        68.5520   28.5390   70.9560 N.pl3 175  ARG175     -0.0865
     97  CZ        67.9370   28.8450   69.8030 C.cat 175  ARG175      0.5346
     98  NH1       66.9320   29.7100   69.7820 N.pl3 175  ARG175      0.1354
     99  NH2       68.3240   28.2870   68.6500 N.pl3 175  ARG175      0.1354
    100  N         65.4460   18.6300   71.8150 N.3   204  THR204     -0.1203
    101  CA        66.2320   18.5300   70.5880 C.3   204  THR204      0.1994
    102  C         67.4660   19.4240   70.6350 C.2   204  THR204      0.2617
    103  O         68.5910   18.9580   70.4180 O.2   204  THR204     -0.2717
    104  CB        65.3530   18.8740   69.3640 C.3   204  THR204      0.1784
    105  OG1       64.3070   17.8980   69.2230 O.3   204  THR204     -0.2211
    106  CG2       66.1300   18.7920   68.0790 C.3   204  THR204      0.0376
    107  N         67.2760   20.7160   70.8900 N.am  205  LYS205     -0.1979
    108  CA        68.4020   21.6390   70.8330 C.3   205  LYS205      0.1596
    109  C         69.4650   21.2960   71.8670 C.2   205  LYS205      0.2287
    110  O         70.6480   21.5740   71.6520 O.2   205  LYS205     -0.2864
    111  CB        67.9240   23.0710   71.0400 C.3   205  LYS205      0.0298
    112  CG        67.3790   23.6340   69.8180 C.3   205  LYS205      0.0038
    113  CD        67.0380   25.0710   69.9720 C.3   205  LYS205      0.0206
    114  CE        66.6380   25.6130   68.6460 C.3   205  LYS205      0.1093
    115  NZ        65.6580   24.7230   67.9800 N.3   205  LYS205     -0.1314
    116  N         59.8880   17.2560   72.1290 N.3   212  GLU212     -0.1245
    117  CA        59.8880   18.3190   73.1150 C.3   212  GLU212      0.1567
    118  C         58.8650   17.9590   74.1770 C.2   212  GLU212      0.2260
    119  O         57.9260   17.2050   73.9360 O.2   212  GLU212     -0.2867
    120  CB        59.5880   19.6970   72.4790 C.3   212  GLU212      0.0388
    121  CG        60.0350   19.8900   71.0150 C.3   212  GLU212      0.1160
    122  CD        61.5610   19.9190   70.7460 C.2   212  GLU212      0.3649
    123  OE1       62.3810   19.9340   71.6950 O.co2 212  GLU212     -0.2457
    124  OE2       61.9300   19.9550   69.5410 O.co2 212  GLU212     -0.2457
@<TRIPOS>BOND
     1    48    49    2
     2    48    47    1
     3    46    47    1
     4    47    50    1
     5    50    51    1
     6    27    25    1
     7     4     3    2
     8    16    14   am
     9    26    25    1
    10    51    52    1
    11    25    22    1
    12     5     6    1
    13     5     2    1
    14     3     2    1
    15    39    38    2
    16     8     6   am
    17    45    44   ar
    18    45    43   ar
    19    14    15    2
    20    14    13    1
    21    44    42   ar
    22     6     7    2
    23    43    41   ar
    24     2     1    1
    25    52    53   ar
    26    52    54   ar
    27    38    37    1
    28    22    23    1
    29    22    21    1
    30    13    10    1
    31    42    41   ar
    32    41    40    1
    33    23    24    2
    34    37    40    1
    35    37    36    1
    36    21    19   am
    37    10     9    1
    38    10    11    1
    39   115   114    1
    40   106   104    1
    41    19    20    2
    42    19    18    1
    43    17    11   am
    44    17    18    1
    45    11    12    2
    46   114   113    1
    47    99    97    1
    48    70    69    2
    49    71    72    1
    50    71    68    1
    51    72    73    1
    52   105   104    1
    53   104   101    1
    54   124   122   ar
    55    69    68    1
    56    98    97    1
    57    97    96    2
    58   112   113    1
    59   112   111    1
    60    30    31    2
    61    30    29    1
    62    32    29    1
    63    32    33    1
    64    73    75   ar
    65    73    74   ar
    66    68    67    1
    67    34    33    2
    68   103   102    2
    69    28    29    1
    70   101   102    1
    71   101   100    1
    72   102   107   am
    73   122   121    1
    74   122   123   ar
    75    33    35   am
    76   108   107    1
    77   108   111    1
    78   108   109    1
    79    83    81   ar
    80    96    95    1
    81   121   120    1
    82   110   109    2
    83    88    85    1
    84    81    82   ar
    85    81    80    1
    86   116   117    1
    87    95    94    1
    88    60    59    1
    89   120   117    1
    90    61    59    1
    91    94    93    1
    92   117   118    1
    93    80    77    1
    94    59    56    1
    95    85    86    1
    96    85    84    1
    97    87    86    2
    98    86    89   am
    99   119   118    2
   100    65    64    2
   101    89    90    1
   102    77    78    1
   103    77    76    1
   104    93    90    1
   105    56    55    1
   106    56    57    1
   107    79    78    2
   108    90    91    1
   109    64    63    1
   110    57    58    2
   111    66    63    1
   112    63    62    1
   113    91    92    2
