@<TRIPOS>MOLECULE
tmp/5vyhA05.pdb
 137 137 0 0 0
SMALL
GASTEIGER

@<TRIPOS>ATOM
      1  N         35.3450   32.8220   70.5300 N.3   103  ILE103     -0.1245
      2  CA        35.1530   33.1730   71.9310 C.3   103  ILE103      0.1561
      3  C         35.9700   32.2280   72.8010 C.2   103  ILE103      0.2260
      4  O         35.8690   31.0060   72.6610 O.2   103  ILE103     -0.2867
      5  CB        33.6650   33.1050   72.3210 C.3   103  ILE103      0.0252
      6  CG1       32.8340   34.0320   71.4340 C.3   103  ILE103      0.0019
      7  CG2       33.4720   33.4230   73.8120 C.3   103  ILE103      0.0019
      8  CD1       31.3410   33.9600   71.7140 C.3   103  ILE103      0.0001
      9  N         32.2380   36.5210   77.5630 N.3   127  TYR127     -0.1228
     10  CA        31.3970   36.6160   76.3840 C.3   127  TYR127      0.1721
     11  C         31.3700   38.0470   75.8590 C.2   127  TYR127      0.2437
     12  O         31.4990   39.0000   76.6340 O.2   127  TYR127     -0.2733
     13  CB        29.9790   36.1510   76.7020 C.3   127  TYR127      0.0547
     14  CG        29.8740   34.6490   76.8920 C.ar  127  TYR127     -0.0200
     15  CD1       29.9920   33.7850   75.8110 C.ar  127  TYR127     -0.0009
     16  CD2       29.6650   34.0970   78.1500 C.ar  127  TYR127     -0.0009
     17  CE1       29.9050   32.4090   75.9780 C.ar  127  TYR127      0.0417
     18  CE2       29.5760   32.7250   78.3240 C.ar  127  TYR127      0.0417
     19  CZ        29.6950   31.8870   77.2330 C.ar  127  TYR127      0.1957
     20  OH        29.6070   30.5210   77.4000 O.3   127  TYR127     -0.2866
     21  N         31.2300   38.1940   74.5450 N.am  128  PRO128     -0.2729
     22  CA        31.2360   39.5180   73.9200 C.3   128  PRO128      0.1401
     23  C         29.8660   40.1810   73.9540 C.2   128  PRO128      0.2269
     24  O         28.8310   39.5330   74.1150 O.2   128  PRO128     -0.2865
     25  CB        31.6380   39.2010   72.4720 C.3   128  PRO128      0.0296
     26  CG        31.0490   37.8440   72.2310 C.3   128  PRO128      0.0237
     27  CD        31.2160   37.1090   73.5430 C.3   128  PRO128      0.0939
     28  N         22.6550   35.3950   78.0370 N.3   163  LEU163     -0.1245
     29  CA        22.8190   36.3720   76.9690 C.3   163  LEU163      0.1561
     30  C         21.4900   37.0830   76.7800 C.2   163  LEU163      0.2260
     31  O         20.4570   36.4300   76.5960 O.2   163  LEU163     -0.2867
     32  CB        23.2610   35.7080   75.6610 C.3   163  LEU163      0.0270
     33  CG        23.1500   36.5880   74.4130 C.3   163  LEU163      0.0019
     34  CD1       24.1780   37.7170   74.4710 C.3   163  LEU163      0.0001
     35  CD2       23.3040   35.7690   73.1280 C.3   163  LEU163      0.0001
     36  N         18.7150   34.1130   77.1040 N.3   226  TYR226     -0.1227
     37  CA        19.1430   32.7590   76.7730 C.3   226  TYR226      0.1736
     38  C         20.1270   32.2970   77.8340 C.2   226  TYR226      0.2595
     39  O         21.1970   32.8930   77.9850 O.2   226  TYR226     -0.2718
     40  CB        19.7840   32.7030   75.3820 C.3   226  TYR226      0.0548
     41  CG        18.9160   33.3020   74.3030 C.ar  226  TYR226     -0.0200
     42  CD1       17.9210   32.5500   73.6970 C.ar  226  TYR226     -0.0009
     43  CD2       19.0820   34.6310   73.9030 C.ar  226  TYR226     -0.0009
     44  CE1       17.1190   33.0910   72.7180 C.ar  226  TYR226      0.0417
     45  CE2       18.2820   35.1820   72.9200 C.ar  226  TYR226      0.0417
     46  CZ        17.3030   34.4040   72.3320 C.ar  226  TYR226      0.1957
     47  OH        16.4960   34.9360   71.3570 O.3   226  TYR226     -0.2866
     48  N         19.7660   31.2370   78.5570 N.am  227  ASN227     -0.1960
     49  CA        20.6080   30.7230   79.6270 C.3   227  ASN227      0.1819
     50  C         21.9090   30.1470   79.0880 C.2   227  ASN227      0.2621
     51  O         21.9370   29.5130   78.0300 O.2   227  ASN227     -0.2715
     52  CB        19.8770   29.6340   80.4000 C.3   227  ASN227      0.1195
     53  CG        18.8780   30.1790   81.3780 C.2   227  ASN227      0.2630
     54  OD1       18.5670   31.3690   81.3850 O.2   227  ASN227     -0.2716
     55  ND2       18.3640   29.3000   82.2190 N.am  227  ASN227     -0.0877
     56  N         22.9850   30.3520   79.8440 N.am  228  ILE228     -0.1977
     57  CA        24.2870   29.7480   79.5850 C.3   228  ILE228      0.1596
     58  C         24.7590   29.1080   80.8790 C.2   228  ILE228      0.2287
     59  O         24.6290   29.7100   81.9500 O.2   228  ILE228     -0.2864
     60  CB        25.3310   30.7860   79.1200 C.3   228  ILE228      0.0276
     61  CG1       24.7120   31.8330   78.1890 C.3   228  ILE228      0.0022
     62  CG2       26.5200   30.0880   78.4790 C.3   228  ILE228      0.0022
     63  CD1       25.7050   32.8750   77.7260 C.3   228  ILE228      0.0001
     64  N         34.0680   28.6180   72.0350 N.3   235  GLU235     -0.1231
     65  CA        32.8180   28.6330   71.2930 C.3   235  GLU235      0.1699
     66  C         32.9380   29.5370   70.0790 C.2   235  GLU235      0.2592
     67  O         33.8260   30.3910   69.9910 O.2   235  GLU235     -0.2718
     68  CB        31.6430   29.1430   72.1340 C.3   235  GLU235      0.0402
     69  CG        31.5230   28.5510   73.5150 C.3   235  GLU235      0.1161
     70  CD        30.4510   29.2360   74.3160 C.2   235  GLU235      0.3649
     71  OE1       29.6740   30.0110   73.7150 O.co2 235  GLU235     -0.2457
     72  OE2       30.3870   29.0000   75.5400 O.co2 235  GLU235     -0.2457
     73  N         31.9870   29.3650   69.1670 N.am  236  TRP236     -0.1962
     74  CA        31.7990   30.2420   68.0250 C.3   236  TRP236      0.1771
     75  C         30.3950   30.8290   68.0780 C.2   236  TRP236      0.2619
     76  O         29.4340   30.1370   68.4210 O.2   236  TRP236     -0.2715
     77  CB        32.0210   29.4860   66.7080 C.3   236  TRP236      0.0590
     78  CG        33.4670   29.1810   66.4600 C.ar  236  TRP236      0.0006
     79  CD1       34.1640   28.0710   66.8620 C.ar  236  TRP236      0.0946
     80  CD2       34.4010   30.0170   65.7750 C.ar  236  TRP236      0.0152
     81  NE1       35.4710   28.1650   66.4520 N.ar  236  TRP236     -0.2442
     82  CE2       35.6430   29.3500   65.7830 C.ar  236  TRP236      0.0810
     83  CE3       34.3040   31.2610   65.1410 C.ar  236  TRP236      0.0012
     84  CZ2       36.7840   29.8920   65.1920 C.ar  236  TRP236      0.0191
     85  CZ3       35.4400   31.7960   64.5490 C.ar  236  TRP236      0.0001
     86  CH2       36.6630   31.1150   64.5880 C.ar  236  TRP236      0.0015
     87  N         30.2910   32.1120   67.7410 N.am  237  PHE237     -0.1974
     88  CA        29.0310   32.8360   67.7020 C.3   237  PHE237      0.1639
     89  C         28.9410   33.5560   66.3660 C.2   237  PHE237      0.2290
     90  O         29.9350   34.1110   65.8910 O.2   237  PHE237     -0.2864
     91  CB        28.9460   33.8360   68.8640 C.3   237  PHE237      0.0560
     92  CG        27.7110   34.6890   68.8530 C.ar  237  PHE237     -0.0200
     93  CD1       26.5270   34.2160   69.3850 C.ar  237  PHE237     -0.0042
     94  CD2       27.7400   35.9750   68.3340 C.ar  237  PHE237     -0.0042
     95  CE1       25.3880   34.9960   69.3880 C.ar  237  PHE237     -0.0003
     96  CE2       26.6000   36.7640   68.3320 C.ar  237  PHE237     -0.0003
     97  CZ        25.4230   36.2710   68.8620 C.ar  237  PHE237     -0.0000
     98  N         25.3100   29.6960   67.1870 N.3   250  SER250     -0.1217
     99  CA        26.2640   29.2820   68.2070 C.3   250  SER250      0.1889
    100  C         26.6680   27.8360   67.9530 C.2   250  SER250      0.2288
    101  O         25.9450   27.0650   67.3130 O.2   250  SER250     -0.2866
    102  CB        25.6920   29.4300   69.6270 C.3   250  SER250      0.2089
    103  OG        26.6410   29.0390   70.6170 O.3   250  SER250     -0.2183
    104  N         27.3410   26.1400   70.7830 N.3   252  ARG252     -0.1231
    105  CA        27.1580   25.5990   72.1290 C.3   252  ARG252      0.1694
    106  C         26.1270   24.4810   72.1690 C.2   252  ARG252      0.2592
    107  O         26.3090   23.4920   72.8880 O.2   252  ARG252     -0.2718
    108  CB        26.7410   26.7110   73.0950 C.3   252  ARG252      0.0321
    109  CG        27.8290   27.1490   74.0430 C.3   252  ARG252      0.0489
    110  CD        27.2690   27.7650   75.3330 C.3   252  ARG252      0.2205
    111  NE        27.2680   26.8110   76.4410 N.pl3 252  ARG252     -0.0865
    112  CZ        28.3710   26.3660   77.0400 C.cat 252  ARG252      0.5346
    113  NH1       29.5660   26.7820   76.6280 N.pl3 252  ARG252      0.1354
    114  NH2       28.2850   25.4920   78.0410 N.pl3 252  ARG252      0.1354
    115  N         25.0160   24.6340   71.4420 N.am  253  TYR253     -0.1976
    116  CA        23.9250   23.6730   71.5880 C.3   253  TYR253      0.1639
    117  C         24.1850   22.3900   70.8140 C.2   253  TYR253      0.2290
    118  O         23.9120   21.2960   71.3150 O.2   253  TYR253     -0.2864
    119  CB        22.6040   24.2860   71.1270 C.3   253  TYR253      0.0560
    120  CG        22.0430   25.3280   72.0590 C.ar  253  TYR253     -0.0198
    121  CD1       21.2050   24.9670   73.1030 C.ar  253  TYR253     -0.0009
    122  CD2       22.3390   26.6760   71.8890 C.ar  253  TYR253     -0.0009
    123  CE1       20.6820   25.9160   73.9600 C.ar  253  TYR253      0.0417
    124  CE2       21.8210   27.6330   72.7420 C.ar  253  TYR253      0.0417
    125  CZ        20.9920   27.2450   73.7760 C.ar  253  TYR253      0.1957
    126  OH        20.4660   28.1870   74.6350 O.3   253  TYR253     -0.2866
    127  N         20.2250   29.3140   66.7300 N.3   264  PHE264     -0.1241
    128  CA        19.4570   29.0440   67.9320 C.3   264  PHE264      0.1605
    129  C         18.3670   30.0700   68.1950 C.2   264  PHE264      0.2264
    130  O         17.5070   29.8200   69.0490 O.2   264  PHE264     -0.2867
    131  CB        20.3770   28.9370   69.1650 C.3   264  PHE264      0.0534
    132  CG        20.9780   30.2450   69.6130 C.ar  264  PHE264     -0.0203
    133  CD1       22.1830   30.6880   69.0930 C.ar  264  PHE264     -0.0042
    134  CD2       20.3570   31.0110   70.5780 C.ar  264  PHE264     -0.0042
    135  CE1       22.7450   31.8840   69.5160 C.ar  264  PHE264     -0.0003
    136  CE2       20.9160   32.2070   71.0070 C.ar  264  PHE264     -0.0003
    137  CZ        22.1090   32.6420   70.4720 C.ar  264  PHE264     -0.0000
@<TRIPOS>BOND
     1    85    86   ar
     2    85    83   ar
     3    86    84   ar
     4    83    80   ar
     5    84    82   ar
     6    80    82   ar
     7    80    78   ar
     8    82    81   ar
     9    90    89    2
    10    89    88    1
    11    81    79   ar
    12    78    77    1
    13    78    79   ar
    14    77    74    1
    15   127   128    1
    16    98    99    1
    17   101   100    2
    18    88    87    1
    19    88    91    1
    20    87    75   am
    21   128   129    1
    22   128   131    1
    23   100    99    1
    24    74    75    1
    25    74    73    1
    26    75    76    2
    27   129   130    2
    28    99   102    1
    29    96    94   ar
    30    96    97   ar
    31    94    92   ar
    32    92    91    1
    33    92    93   ar
    34    97    95   ar
    35   133   135   ar
    36   133   132   ar
    37   131   132    1
    38    73    66   am
    39    93    95   ar
    40   135   137   ar
    41   132   134   ar
    42   102   103    1
    43    67    66    2
    44    66    65    1
    45   137   136   ar
    46     1     2    1
    47   134   136   ar
    48   104   105    1
    49   117   118    2
    50   117   116    1
    51   119   116    1
    52   119   120    1
    53    65    64    1
    54    65    68    1
    55    47    46    1
    56     6     8    1
    57     6     5    1
    58   115   116    1
    59   115   106   am
    60   122   120   ar
    61   122   124   ar
    62     2     5    1
    63     2     3    1
    64   120   121   ar
    65   105   106    1
    66   105   108    1
    67    68    69    1
    68   106   107    2
    69    26    25    1
    70    26    27    1
    71     5     7    1
    72    46    44   ar
    73    46    45   ar
    74    25    22    1
    75     4     3    2
    76    44    42   ar
    77   124   125   ar
    78    45    43   ar
    79   108   109    1
    80   121   123   ar
    81    35    33    1
    82    69    70    1
    83    27    21    1
    84    42    41   ar
    85    71    70   ar
    86   125   123   ar
    87   125   126    1
    88    43    41   ar
    89    22    23    1
    90    22    21    1
    91    23    24    2
    92   109   110    1
    93    41    40    1
    94    70    72   ar
    95    33    34    1
    96    33    32    1
    97    21    11   am
    98   110   111    1
    99    40    37    1
   100    32    29    1
   101    15    17   ar
   102    15    14   ar
   103    11    10    1
   104    11    12    2
   105    17    19   ar
   106    10    13    1
   107    10     9    1
   108   111   112    2
   109    31    30    2
   110   113   112    1
   111    13    14    1
   112    37    36    1
   113    37    38    1
   114    30    29    1
   115    14    16   ar
   116    29    28    1
   117   112   114    1
   118    19    20    1
   119    19    18   ar
   120    63    61    1
   121    38    39    2
   122    38    48   am
   123    51    50    2
   124    16    18   ar
   125    61    60    1
   126    62    60    1
   127    48    49    1
   128    50    49    1
   129    50    56   am
   130    60    57    1
   131    57    56    1
   132    57    58    1
   133    49    52    1
   134    52    53    1
   135    58    59    2
   136    53    54    2
   137    53    55   am
