@<TRIPOS>MOLECULE
tmp/5vyqA01.pdb
 197 196 0 0 0
SMALL
GASTEIGER

@<TRIPOS>ATOM
      1  N        -44.6450   -7.0420   31.7880 N.3    12  ASP12      -0.1225
      2  CA       -45.4290   -6.0100   31.1190 C.3    12  ASP12       0.1805
      3  C        -45.5410   -6.2350   29.6040 C.2    12  ASP12       0.2597
      4  O        -45.8920   -5.3130   28.8570 O.2    12  ASP12      -0.2718
      5  CB       -44.8280   -4.6320   31.3960 C.3    12  ASP12       0.1424
      6  CG       -45.0440   -4.1860   32.8190 C.2    12  ASP12       0.3668
      7  OD1      -46.1140   -4.4780   33.3760 O.co2  12  ASP12      -0.2456
      8  OD2      -44.1330   -3.5290   33.3750 O.co2  12  ASP12      -0.2456
      9  N        -45.1980   -7.4240   29.1380 N.am   13  ASN13      -0.1974
     10  CA       -45.1150   -7.7740   27.7120 C.3    13  ASN13       0.1688
     11  C        -45.9820   -9.0090   27.4450 C.2    13  ASN13       0.2292
     12  O        -45.9540   -9.9900   28.1760 O.2    13  ASN13      -0.2864
     13  CB       -43.6470   -8.0280   27.3280 C.3    13  ASN13       0.1181
     14  CG       -43.4670   -8.5120   25.9080 C.2    13  ASN13       0.2629
     15  OD1      -43.6780   -9.6790   25.6190 O.2    13  ASN13      -0.2716
     16  ND2      -43.0290   -7.6260   25.0210 N.am   13  ASN13      -0.0877
     17  N        -38.0160  -10.6820   36.4430 N.3    64  SER64      -0.1217
     18  CA       -38.4810   -9.6620   35.5020 C.3    64  SER64       0.1889
     19  C        -38.5850  -10.3000   34.1200 C.2    64  SER64       0.2288
     20  O        -37.5640  -10.6360   33.4940 O.2    64  SER64      -0.2866
     21  CB       -37.5300   -8.4700   35.4850 C.3    64  SER64       0.2089
     22  OG       -37.7070   -7.6400   34.3260 O.3    64  SER64      -0.2183
     23  N        -39.5750   -8.8190   31.2640 N.3    66  HIS66      -0.1226
     24  CA       -39.8410   -7.5590   30.6220 C.3    66  HIS66       0.1752
     25  C        -40.7370   -6.6780   31.4870 C.2    66  HIS66       0.2596
     26  O        -41.7310   -6.0960   31.0100 O.2    66  HIS66      -0.2718
     27  CB       -40.5170   -7.6740   29.2490 C.3    66  HIS66       0.0759
     28  CG       -39.8330   -8.5220   28.2110 C.ar   66  HIS66       0.0818
     29  ND1      -40.0370   -8.2830   26.8660 N.ar   66  HIS66      -0.2268
     30  CD2      -39.0510   -9.6280   28.2810 C.ar   66  HIS66       0.1154
     31  CE1      -39.4010   -9.2000   26.1560 C.ar   66  HIS66       0.1986
     32  NE2      -38.7730  -10.0090   26.9900 N.ar   66  HIS66      -0.2212
     33  N        -40.4300   -6.5850   32.7780 N.am   67  CYS67      -0.1956
     34  CA       -41.0570   -5.6120   33.6380 C.3    67  CYS67       0.1843
     35  C        -40.5020   -4.2320   33.3350 C.2    67  CYS67       0.2625
     36  O        -39.2850   -4.0460   33.3290 O.2    67  CYS67      -0.2714
     37  CB       -40.7540   -5.9660   35.1030 C.3    67  CYS67       0.0997
     38  SG       -41.4680   -4.8240   36.2830 S.3    67  CYS67      -0.0797
     39  N        -41.3740   -3.2640   33.1160 N.am   68  LYS68      -0.1977
     40  CA       -40.9220   -1.9200   32.7500 C.3    68  LYS68       0.1596
     41  C        -40.5740   -1.0570   33.9630 C.2    68  LYS68       0.2287
     42  O        -39.8330   -0.0720   33.8000 O.2    68  LYS68      -0.2864
     43  CB       -41.9650   -1.1730   31.8750 C.3    68  LYS68       0.0298
     44  CG       -42.1390   -1.7580   30.4890 C.3    68  LYS68       0.0038
     45  CD       -41.2860   -1.0710   29.4180 C.3    68  LYS68       0.0206
     46  CE       -41.5100   -1.5170   27.9660 C.3    68  LYS68       0.1093
     47  NZ       -42.9280   -1.7120   27.5510 N.3    68  LYS68      -0.1314
     48  N        -33.4760  -11.1730   35.5320 N.3    83  ASN83      -0.1225
     49  CA       -34.0670  -10.5570   34.3720 C.3    83  ASN83       0.1785
     50  C        -33.9230  -11.4400   33.1450 C.2    83  ASN83       0.2597
     51  O        -32.8910  -12.0720   32.9420 O.2    83  ASN83      -0.2718
     52  CB       -33.3370   -9.2380   34.1070 C.3    83  ASN83       0.1169
     53  CG       -34.0290   -8.3760   33.0860 C.2    83  ASN83       0.2627
     54  OD1      -35.2610   -8.2630   33.0650 O.2    83  ASN83      -0.2716
     55  ND2      -33.2400   -7.6650   32.2810 N.am   83  ASN83      -0.0877
     56  N        -34.9870  -11.4660   32.3530 N.am   84  VAL84      -0.1966
     57  CA       -34.9340  -12.0250   31.0300 C.3    84  VAL84       0.1727
     58  C        -35.0400  -10.8940   30.0120 C.2    84  VAL84       0.2616
     59  O        -36.0760  -10.2500   29.8870 O.2    84  VAL84      -0.2715
     60  CB       -36.0590  -13.0340   30.7910 C.3    84  VAL84       0.0290
     61  CG1      -36.0070  -13.5220   29.3520 C.3    84  VAL84       0.0023
     62  CG2      -36.0170  -14.1350   31.8390 C.3    84  VAL84       0.0023
     63  N        -33.9160  -10.6430   29.3770 N.am   85  HIS85      -0.1960
     64  CA       -33.7030   -9.4270   28.5780 C.3    85  HIS85       0.1772
     65  C        -33.5340   -9.7750   27.1090 C.2    85  HIS85       0.2462
     66  O        -32.6470  -10.6060   26.7510 O.2    85  HIS85      -0.2730
     67  CB       -32.4330   -8.7470   29.0200 C.3    85  HIS85       0.0785
     68  CG       -31.9840   -7.6010   28.1700 C.ar   85  HIS85       0.0821
     69  ND1      -32.7630   -6.4800   27.9250 N.ar   85  HIS85      -0.2267
     70  CD2      -30.7880   -7.3730   27.5730 C.ar   85  HIS85       0.1154
     71  CE1      -32.0750   -5.6500   27.1590 C.ar   85  HIS85       0.1986
     72  NE2      -30.8860   -6.1730   26.9250 N.ar   85  HIS85      -0.2212
     73  N        -34.3360   -9.1330   26.2510 N.am   86  PRO86      -0.2727
     74  CA       -34.2420   -9.4050   24.8170 C.3    86  PRO86       0.1402
     75  C        -33.1340   -8.5810   24.1240 C.2    86  PRO86       0.2269
     76  O        -33.3420   -7.9340   23.0880 O.2    86  PRO86      -0.2865
     77  CB       -35.6620   -9.0740   24.3300 C.3    86  PRO86       0.0296
     78  CG       -36.0220   -7.9030   25.1810 C.3    86  PRO86       0.0237
     79  CD       -35.4460   -8.2160   26.5490 C.3    86  PRO86       0.0939
     80  N        -30.5350   -1.9410   27.4930 N.3    94  GLY94      -0.1210
     81  CA       -31.6010   -0.9460   27.6210 C.3    94  GLY94       0.1956
     82  C        -32.5940   -1.1180   26.4800 C.2    94  GLY94       0.2612
     83  O        -33.0770   -2.2120   26.1480 O.2    94  GLY94      -0.2717
     84  N        -32.9240   -0.0320   25.8470 N.am   95  TRP95      -0.1962
     85  CA       -34.1730    0.0430   25.1150 C.3    95  TRP95       0.1771
     86  C        -34.0460   -0.5600   23.7080 C.2    95  TRP95       0.2620
     87  O        -33.1280   -0.2560   22.9760 O.2    95  TRP95      -0.2715
     88  CB       -34.5160    1.5350   25.0210 C.3    95  TRP95       0.0590
     89  CG       -35.9290    1.8220   24.8530 C.ar   95  TRP95       0.0006
     90  CD1      -36.5420    2.2100   23.6970 C.ar   95  TRP95       0.0946
     91  CD2      -36.9570    1.7120   25.8470 C.ar   95  TRP95       0.0152
     92  NE1      -37.8860    2.3860   23.9280 N.ar   95  TRP95      -0.2442
     93  CE2      -38.1680    2.0860   25.2330 C.ar   95  TRP95       0.0810
     94  CE3      -36.9690    1.3500   27.1990 C.ar   95  TRP95       0.0012
     95  CZ2      -39.3950    2.0800   25.9140 C.ar   95  TRP95       0.0191
     96  CZ3      -38.1940    1.3410   27.8800 C.ar   95  TRP95       0.0001
     97  CH2      -39.3850    1.7110   27.2350 C.ar   95  TRP95       0.0015
     98  N        -34.9850   -1.4330   23.3650 N.am   96  PHE96      -0.1960
     99  CA       -35.1550   -1.9740   22.0180 C.3    96  PHE96       0.1756
    100  C        -33.8420   -2.4320   21.3660 C.2    96  PHE96       0.2461
    101  O        -33.4280   -1.9470   20.3290 O.2    96  PHE96      -0.2730
    102  CB       -35.8830   -0.9990   21.1070 C.3    96  PHE96       0.0574
    103  CG       -37.2270   -0.5290   21.6030 C.ar   96  PHE96      -0.0200
    104  CD1      -37.9020   -1.1010   22.6840 C.ar   96  PHE96      -0.0042
    105  CD2      -37.8790    0.4760   20.8830 C.ar   96  PHE96      -0.0042
    106  CE1      -39.1420   -0.6310   23.0790 C.ar   96  PHE96      -0.0003
    107  CE2      -39.1480    0.9190   21.2250 C.ar   96  PHE96      -0.0003
    108  CZ       -39.7840    0.3630   22.3440 C.ar   96  PHE96      -0.0000
    109  N        -33.1790   -3.3930   22.0080 N.am   97  PRO97      -0.2716
    110  CA       -31.8180   -3.6900   21.5070 C.3    97  PRO97       0.1536
    111  C        -31.6520   -3.9520   20.0040 C.2    97  PRO97       0.2598
    112  O        -30.6270   -3.5260   19.4260 O.2    97  PRO97      -0.2715
    113  CB       -31.4320   -4.9310   22.3240 C.3    97  PRO97       0.0310
    114  CG       -32.1080   -4.6960   23.6480 C.3    97  PRO97       0.0237
    115  CD       -33.4590   -4.1000   23.2710 C.3    97  PRO97       0.0939
    116  N        -32.5520   -4.7190   19.3950 N.am   98  GLN98      -0.1964
    117  CA       -32.3800   -5.1190   17.9810 C.3    98  GLN98       0.1733
    118  C        -32.4390   -3.8750   17.0710 C.2    98  GLN98       0.2616
    119  O        -31.8430   -3.8960   16.0050 O.2    98  GLN98      -0.2715
    120  CB       -33.4280   -6.1380   17.5070 C.3    98  GLN98       0.0408
    121  CG       -34.8830   -5.6610   17.2920 C.3    98  GLN98       0.0908
    122  CD       -35.6450   -5.4190   18.5610 C.2    98  GLN98       0.2608
    123  OE1      -35.2030   -5.8090   19.6630 O.2    98  GLN98      -0.2717
    124  NE2      -36.7620   -4.7210   18.4420 N.am   98  GLN98      -0.0878
    125  N        -33.1650   -2.8310   17.4650 N.am   99  VAL99      -0.1977
    126  CA       -33.1970   -1.5950   16.6770 C.3    99  VAL99       0.1596
    127  C        -31.7790   -1.0710   16.5270 C.2    99  VAL99       0.2287
    128  O        -31.2870   -0.8110   15.4350 O.2    99  VAL99      -0.2864
    129  CB       -34.1220   -0.5210   17.2790 C.3    99  VAL99       0.0276
    130  CG1      -33.9810    0.7610   16.5060 C.3    99  VAL99       0.0022
    131  CG2      -35.5620   -1.0140   17.3570 C.3    99  VAL99       0.0022
    132  N        -29.7250   -3.9080   32.7800 N.3   120  ASP120     -0.1239
    133  CA       -29.2790   -4.9720   31.9300 C.3   120  ASP120      0.1674
    134  C        -27.7860   -5.1840   32.1360 C.2   120  ASP120      0.2266
    135  O        -26.9960   -5.1680   31.2000 O.2   120  ASP120     -0.2867
    136  CB       -29.6210   -4.6850   30.4840 C.3   120  ASP120      0.1410
    137  CG       -31.1080   -4.4710   30.2680 C.2   120  ASP120      0.3668
    138  OD1      -31.9320   -5.1140   30.9430 O.co2 120  ASP120     -0.2456
    139  OD2      -31.4470   -3.6880   29.3750 O.co2 120  ASP120     -0.2456
    140  N        -36.6470   -4.6340   12.5540 N.3   138  SER138     -0.1217
    141  CA       -36.8890   -4.7920   13.9900 C.3   138  SER138      0.1889
    142  C        -37.9770   -5.8420   14.2780 C.2   138  SER138      0.2288
    143  O        -37.8360   -6.7390   15.1290 O.2   138  SER138     -0.2866
    144  CB       -37.2100   -3.4640   14.6400 C.3   138  SER138      0.2089
    145  OG       -37.6860   -3.6790   15.9610 O.3   138  SER138     -0.2183
    146  N        -37.3710   -9.3510   16.2700 N.3   142  TYR142     -0.1241
    147  CA       -38.0350   -9.4240   17.5690 C.3   142  TYR142      0.1605
    148  C        -38.8700  -10.7000   17.6870 C.2   142  TYR142      0.2264
    149  O        -38.8570  -11.3490   18.7310 O.2   142  TYR142     -0.2867
    150  CB       -38.9350   -8.2040   17.7460 C.3   142  TYR142      0.0534
    151  CG       -39.4550   -8.0550   19.1520 C.ar  142  TYR142     -0.0201
    152  CD1      -38.6490   -7.6810   20.1980 C.ar  142  TYR142     -0.0009
    153  CD2      -40.7590   -8.3890   19.4260 C.ar  142  TYR142     -0.0009
    154  CE1      -39.1560   -7.5720   21.4940 C.ar  142  TYR142      0.0417
    155  CE2      -41.2780   -8.3220   20.7040 C.ar  142  TYR142      0.0417
    156  CZ       -40.4670   -7.9090   21.7320 C.ar  142  TYR142      0.1957
    157  OH       -40.9640   -7.7950   22.9930 O.3   142  TYR142     -0.2866
    158  N        -33.8400    6.0940   21.3700 N.3   182  PHE182     -0.1241
    159  CA       -34.7520    5.6030   20.3430 C.3   182  PHE182      0.1605
    160  C        -35.6010    6.7450   19.7910 C.2   182  PHE182      0.2264
    161  O        -35.7380    6.9140   18.5720 O.2   182  PHE182     -0.2867
    162  CB       -35.6690    4.5120   20.9170 C.3   182  PHE182      0.0534
    163  CG       -36.6610    4.0080   19.9390 C.ar  182  PHE182     -0.0203
    164  CD1      -36.2580    3.1680   18.9160 C.ar  182  PHE182     -0.0042
    165  CD2      -37.9750    4.4050   20.0140 C.ar  182  PHE182     -0.0042
    166  CE1      -37.1700    2.7100   17.9880 C.ar  182  PHE182     -0.0003
    167  CE2      -38.8740    3.9340   19.0870 C.ar  182  PHE182     -0.0003
    168  CZ       -38.4810    3.1080   18.0780 C.ar  182  PHE182     -0.0000
    169  N        -41.2400   -2.0760   12.2720 N.3   208  HIS208     -0.1241
    170  CA       -41.6960   -3.0650   13.2580 C.3   208  HIS208      0.1621
    171  C        -43.2030   -3.1970   13.1810 C.2   208  HIS208      0.2264
    172  O        -43.9250   -2.3880   13.7560 O.2   208  HIS208     -0.2867
    173  CB       -41.2850   -2.6520   14.6790 C.3   208  HIS208      0.0745
    174  CG       -41.4000   -3.7640   15.6680 C.ar  208  HIS208      0.0817
    175  ND1      -40.3100   -4.3150   16.3130 N.ar  208  HIS208     -0.2268
    176  CD2      -42.4860   -4.4580   16.0930 C.ar  208  HIS208      0.1154
    177  CE1      -40.7360   -5.2620   17.1310 C.ar  208  HIS208      0.1986
    178  NE2      -42.0510   -5.3610   17.0340 N.ar  208  HIS208     -0.2212
    179  N        -46.0320   -0.1820   13.5490 N.3   211  PHE211     -0.1241
    180  CA       -45.6150    0.9690   14.3280 C.3   211  PHE211      0.1605
    181  C        -45.1610    2.1110   13.4270 C.2   211  PHE211      0.2264
    182  O        -44.3900    1.9290   12.4960 O.2   211  PHE211     -0.2867
    183  CB       -44.4760    0.6760   15.3110 C.3   211  PHE211      0.0534
    184  CG       -44.9190   -0.0250   16.5860 C.ar  211  PHE211     -0.0203
    185  CD1      -45.6710    0.6450   17.5480 C.ar  211  PHE211     -0.0042
    186  CD2      -44.5400   -1.3340   16.8440 C.ar  211  PHE211     -0.0042
    187  CE1      -46.0310    0.0180   18.7420 C.ar  211  PHE211     -0.0003
    188  CE2      -44.9020   -1.9790   18.0140 C.ar  211  PHE211     -0.0003
    189  CZ       -45.6450   -1.2880   18.9700 C.ar  211  PHE211     -0.0000
    190  N        -42.8700    4.4630   13.5650 N.3   213  ASN213     -0.1240
    191  CA       -41.6820    4.8950   14.2450 C.3   213  ASN213      0.1653
    192  C        -40.8980    5.9780   13.5030 C.2   213  ASN213      0.2266
    193  O        -40.6310    7.0230   14.0590 O.2   213  ASN213     -0.2867
    194  CB       -40.7140    3.7030   14.4550 C.3   213  ASN213      0.1155
    195  CG       -41.2250    2.6370   15.4150 C.2   213  ASN213      0.2627
    196  OD1      -41.8170    2.9190   16.4840 O.2   213  ASN213     -0.2716
    197  ND2      -40.9500    1.4080   15.0760 N.am  213  ASN213     -0.0877
@<TRIPOS>BOND
     1   169   170    1
     2   182   181    2
     3   140   141    1
     4   171   170    1
     5   171   172    2
     6   170   173    1
     7   181   180    1
     8   192   193    2
     9   192   191    1
    10   179   180    1
    11   190   191    1
    12   141   142    1
    13   141   144    1
    14   191   194    1
    15   142   143    2
    16   180   183    1
    17   194   195    1
    18   144   145    1
    19   173   174    1
    20   197   195   am
    21   183   184    1
    22   195   196    2
    23   128   127    2
    24   174   176   ar
    25   174   175   ar
    26   119   118    2
    27   176   178   ar
    28   146   147    1
    29   175   177   ar
    30   130   129    1
    31   127   126    1
    32   184   186   ar
    33   184   185   ar
    34   126   129    1
    35   126   125    1
    36   186   188   ar
    37   178   177   ar
    38   118   125   am
    39   118   117    1
    40   129   131    1
    41   121   120    1
    42   121   122    1
    43   120   117    1
    44   185   187   ar
    45   147   148    1
    46   147   150    1
    47   148   149    2
    48   150   151    1
    49   117   116    1
    50   166   168   ar
    51   166   164   ar
    52   188   189   ar
    53   168   167   ar
    54   124   122   am
    55   122   123    2
    56   161   160    2
    57   187   189   ar
    58   164   163   ar
    59   167   165   ar
    60   151   153   ar
    61   151   152   ar
    62   116   111   am
    63   112   111    2
    64   153   155   ar
    65   160   159    1
    66   163   165   ar
    67   163   162    1
    68   111   110    1
    69   152   154   ar
    70   101   100    2
    71   159   162    1
    72   159   158    1
    73   155   156   ar
    74   105   107   ar
    75   105   103   ar
    76   102   103    1
    77   102    99    1
    78   107   108   ar
    79   100   109   am
    80   100    99    1
    81   154   156   ar
    82   110   109    1
    83   110   113    1
    84   103   104   ar
    85   156   157    1
    86   109   115    1
    87    99    98    1
    88   113   114    1
    89   108   106   ar
    90   104   106   ar
    91    87    86    2
    92    76    75    2
    93   115   114    1
    94    98    86   am
    95    90    92   ar
    96    90    89   ar
    97    86    85    1
    98    92    93   ar
    99    75    74    1
   100    77    74    1
   101    77    78    1
   102    74    73    1
   103    89    88    1
   104    89    91   ar
   105    88    85    1
   106    16    14   am
   107    85    84    1
   108    78    79    1
   109    93    91   ar
   110    93    95   ar
   111    15    14    2
   112    84    82   am
   113    91    94   ar
   114    14    13    1
   115    95    97   ar
   116    83    82    2
   117    31    29   ar
   118    31    32   ar
   119    73    79    1
   120    73    65   am
   121    82    81    1
   122    66    65    2
   123    29    28   ar
   124    72    71   ar
   125    72    70   ar
   126    32    30   ar
   127    65    64    1
   128    71    69   ar
   129    94    96   ar
   130    97    96   ar
   131    13    10    1
   132    11    10    1
   133    11    12    2
   134    80    81    1
   135    47    46    1
   136    70    68   ar
   137    10     9    1
   138    69    68   ar
   139    46    45    1
   140    68    67    1
   141    28    30   ar
   142    28    27    1
   143    64    67    1
   144    64    63    1
   145     4     3    2
   146     9     3   am
   147    27    24    1
   148    61    60    1
   149   139   137   ar
   150    63    58   am
   151    45    44    1
   152     3     2    1
   153    59    58    2
   154    58    57    1
   155   137   136    1
   156   137   138   ar
   157   136   133    1
   158    44    43    1
   159    24    23    1
   160    24    25    1
   161    60    57    1
   162    60    62    1
   163    26    25    2
   164    57    56    1
   165     2     5    1
   166     2     1    1
   167   135   134    2
   168     5     6    1
   169    25    33   am
   170    43    40    1
   171   133   134    1
   172   133   132    1
   173    55    53   am
   174    56    50   am
   175    40    39    1
   176    40    41    1
   177    33    34    1
   178     6     8   ar
   179     6     7   ar
   180    51    50    2
   181    54    53    2
   182    53    52    1
   183    39    35   am
   184    50    49    1
   185    36    35    2
   186    35    34    1
   187    20    19    2
   188    34    37    1
   189    42    41    2
   190    52    49    1
   191    19    18    1
   192    22    21    1
   193    49    48    1
   194    37    38    1
   195    21    18    1
   196    18    17    1
