@<TRIPOS>MOLECULE
tmp/5vysB02.pdb
 95 91 0 0 0
SMALL
GASTEIGER

@<TRIPOS>ATOM
      1  N         -5.4840   44.6300   35.8270 N.3    88  ARG88      -0.1231
      2  CA        -5.8750   45.9320   35.2580 C.3    88  ARG88       0.1694
      3  C         -6.4150   46.9010   36.2990 C.2    88  ARG88       0.2593
      4  O         -7.0590   47.9040   35.9520 O.2    88  ARG88      -0.2718
      5  CB        -6.8990   45.7690   34.1440 C.3    88  ARG88       0.0321
      6  CG        -6.4290   44.9190   32.9820 C.3    88  ARG88       0.0489
      7  CD        -7.5810   44.6830   32.0210 C.3    88  ARG88       0.2205
      8  NE        -8.0080   45.8990   31.3350 N.pl3  88  ARG88      -0.0865
      9  CZ        -7.4380   46.4040   30.2340 C.cat  88  ARG88       0.5346
     10  NH1       -6.3850   45.8200   29.6230 N.pl3  88  ARG88       0.1354
     11  NH2       -7.9370   47.5220   29.7220 N.pl3  88  ARG88       0.1354
     12  N         -6.1240   46.6300   37.5690 N.am   89  SER89      -0.1938
     13  CA        -6.6070   47.4570   38.6580 C.3    89  SER89       0.2055
     14  C         -5.4660   47.6680   39.6290 C.2    89  SER89       0.2642
     15  O         -4.5170   46.8320   39.7220 O.2    89  SER89      -0.2714
     16  CB        -7.7540   46.7770   39.3680 C.3    89  SER89       0.2130
     17  OG        -8.8240   46.5480   38.4860 O.3    89  SER89      -0.2179
     18  N         -5.5650   48.7840   40.3490 N.am   90  LEU90      -0.1977
     19  CA        -4.6790   49.0440   41.4960 C.3    90  LEU90       0.1596
     20  C         -4.9730   47.9990   42.5780 C.2    90  LEU90       0.2287
     21  O         -6.1130   47.7630   42.9270 O.2    90  LEU90      -0.2864
     22  CB        -4.8530   50.4680   42.0480 C.3    90  LEU90       0.0297
     23  CG        -3.8980   50.8260   43.1960 C.3    90  LEU90       0.0022
     24  CD1       -2.5030   51.0220   42.6370 C.3    90  LEU90       0.0001
     25  CD2       -4.3150   52.0850   43.9290 C.3    90  LEU90       0.0001
     26  N          5.1620   42.6850   39.3850 N.3   105  ASN105     -0.1240
     27  CA         4.2810   43.0910   38.2980 C.3   105  ASN105      0.1653
     28  C          5.1050   43.2900   37.0390 C.2   105  ASN105      0.2266
     29  O          6.2480   43.6980   37.1170 O.2   105  ASN105     -0.2867
     30  CB         3.5230   44.3990   38.6260 C.3   105  ASN105      0.1155
     31  CG         2.7160   44.9250   37.4350 C.2   105  ASN105      0.2627
     32  OD1        3.0670   45.9390   36.8190 O.2   105  ASN105     -0.2716
     33  ND2        1.6960   44.2040   37.0670 N.am  105  ASN105     -0.0877
     34  N          5.6260   45.4050   33.7020 N.3   107  HIS107     -0.1241
     35  CA         5.2740   46.6890   33.1200 C.3   107  HIS107      0.1621
     36  C          6.0130   46.8540   31.8050 C.2   107  HIS107      0.2264
     37  O          7.2220   46.6140   31.7600 O.2   107  HIS107     -0.2867
     38  CB         5.6730   47.8190   34.0550 C.3   107  HIS107      0.0745
     39  CG         5.1920   49.1520   33.5850 C.ar  107  HIS107      0.0817
     40  ND1        3.8870   49.5620   33.7290 N.ar  107  HIS107     -0.2268
     41  CD2        5.8250   50.1330   32.9040 C.ar  107  HIS107      0.1154
     42  CE1        3.7370   50.7500   33.1720 C.ar  107  HIS107      0.1986
     43  NE2        4.8980   51.1200   32.6610 N.ar  107  HIS107     -0.2212
     44  N          6.1590   55.6250   33.0300 N.3   115  ARG115     -0.1231
     45  CA         5.1370   55.3120   33.9970 C.3   115  ARG115      0.1694
     46  C          3.8030   55.6700   33.3640 C.2   115  ARG115      0.2593
     47  O          3.7460   56.4360   32.3810 O.2   115  ARG115     -0.2718
     48  CB         5.3730   56.0470   35.3030 C.3   115  ARG115      0.0321
     49  CG         6.5280   55.4130   36.0610 C.3   115  ARG115      0.0489
     50  CD         6.7670   56.0540   37.4120 C.3   115  ARG115      0.2205
     51  NE         7.9000   55.4120   38.0810 N.pl3 115  ARG115     -0.0865
     52  CZ         8.5000   55.8880   39.1610 C.cat 115  ARG115      0.5346
     53  NH1        9.5040   55.2160   39.6770 N.pl3 115  ARG115      0.1354
     54  NH2        8.1180   57.0510   39.7260 N.pl3 115  ARG115      0.1354
     55  N          2.7420   55.0760   33.8740 N.am  116  GLY116     -0.1942
     56  CA         1.4230   55.2600   33.2760 C.3   116  GLY116      0.2014
     57  C          0.9710   54.1130   32.3980 C.2   116  GLY116      0.2639
     58  O          1.4510   52.9700   32.5210 O.2   116  GLY116     -0.2714
     59  N          0.0320   54.4420   31.5250 N.am  117  THR117     -0.1950
     60  CA        -0.6030   53.5300   30.6330 C.3   117  THR117      0.1897
     61  C         -0.1780   53.8940   29.2210 C.2   117  THR117      0.2313
     62  O          0.4060   54.9450   29.0260 O.2   117  THR117     -0.2863
     63  CB        -2.1150   53.7360   30.7040 C.3   117  THR117      0.1794
     64  OG1       -2.4110   55.1280   30.4880 O.3   117  THR117     -0.2208
     65  CG2       -2.6640   53.2790   32.0600 C.3   117  THR117      0.0378
     66  N          1.0520   52.5500   41.4250 N.3   142  PHE142     -0.1227
     67  CA         1.4460   51.9920   40.1700 C.3   142  PHE142      0.1736
     68  C          2.8940   52.4130   39.8170 C.2   142  PHE142      0.2595
     69  O          3.2880   53.5980   39.9860 O.2   142  PHE142     -0.2718
     70  CB         0.5750   52.5550   39.0590 C.3   142  PHE142      0.0547
     71  CG        -0.8150   52.0200   38.9990 C.ar  142  PHE142     -0.0202
     72  CD1       -1.0410   50.7160   38.6630 C.ar  142  PHE142     -0.0042
     73  CD2       -1.9110   52.8580   39.1700 C.ar  142  PHE142     -0.0042
     74  CE1       -2.3330   50.2240   38.5500 C.ar  142  PHE142     -0.0003
     75  CE2       -3.1970   52.3720   39.0530 C.ar  142  PHE142     -0.0003
     76  CZ        -3.4120   51.0500   38.7480 C.ar  142  PHE142     -0.0000
     77  N          3.6450   51.4380   39.2960 N.am  143  ASP143     -0.1974
     78  CA         4.8290   51.6600   38.4900 C.3   143  ASP143      0.1709
     79  C          6.0670   52.1080   39.2520 C.2   143  ASP143      0.2293
     80  O          7.0530   52.5230   38.6120 O.2   143  ASP143     -0.2864
     81  CB         4.5820   52.6880   37.3610 C.3   143  ASP143      0.1436
     82  CG         3.2770   52.4890   36.6310 C.2   143  ASP143      0.3671
     83  OD1        2.8720   51.3350   36.3850 O.co2 143  ASP143     -0.2456
     84  OD2        2.6600   53.5150   36.2650 O.co2 143  ASP143     -0.2456
     85  N         -3.8960   58.6690   31.3310 N.3   201  ARG201     -0.1245
     86  CA        -4.7320   57.4640   31.1830 C.3   201  ARG201      0.1563
     87  C         -5.1980   57.2210   29.7450 C.2   201  ARG201      0.2260
     88  O         -5.1020   56.0940   29.2480 O.2   201  ARG201     -0.2867
     89  CB        -5.9640   57.4930   32.1330 C.3   201  ARG201      0.0307
     90  CG        -6.6260   56.1280   32.3530 C.3   201  ARG201      0.0489
     91  CD        -8.1070   56.1790   32.7470 C.3   201  ARG201      0.2205
     92  NE        -8.3160   56.1290   34.2050 N.pl3 201  ARG201     -0.0865
     93  CZ        -9.4310   55.7230   34.8270 C.cat 201  ARG201      0.5346
     94  NH1       -9.4830   55.7390   36.1570 N.pl3 201  ARG201      0.1354
     95  NH2      -10.4900   55.2870   34.1470 N.pl3 201  ARG201      0.1354
@<TRIPOS>BOND
     1    62    61    2
     2    61    60    1
     3    88    87    2
     4    10     9    1
     5    11     9    1
     6    87    86    1
     7     9     8    2
     8    64    63    1
     9    60    63    1
    10    60    59    1
    11    63    65    1
    12    86    85    1
    13    86    89    1
    14     8     7    1
    15    59    57   am
    16    37    36    2
    17    36    35    1
    18     7     6    1
    19    89    90    1
    20    90    91    1
    21    47    46    2
    22    57    58    2
    23    57    56    1
    24    43    41   ar
    25    43    42   ar
    26    91    92    1
    27    41    39   ar
    28     6     5    1
    29    44    45    1
    30    35    34    1
    31    35    38    1
    32    42    40   ar
    33    56    55    1
    34    46    55   am
    35    46    45    1
    36    39    40   ar
    37    39    38    1
    38    45    48    1
    39     5     2    1
    40    95    93    1
    41    92    93    2
    42    93    94    1
    43     2     1    1
    44     2     3    1
    45    48    49    1
    46     4     3    2
    47    49    50    1
    48    84    82   ar
    49     3    12   am
    50    83    82   ar
    51    82    81    1
    52    32    31    2
    53    28    29    2
    54    28    27    1
    55    33    31   am
    56    81    78    1
    57    50    51    1
    58    31    30    1
    59    12    13    1
    60    51    52    2
    61    27    30    1
    62    27    26    1
    63    17    16    1
    64    78    79    1
    65    78    77    1
    66    74    72   ar
    67    74    76   ar
    68    80    79    2
    69    13    16    1
    70    13    14    1
    71    72    71   ar
    72    76    75   ar
    73    71    70    1
    74    71    73   ar
    75    75    73   ar
    76    70    67    1
    77    52    53    1
    78    52    54    1
    79    77    68   am
    80    14    15    2
    81    14    18   am
    82    68    69    2
    83    68    67    1
    84    67    66    1
    85    18    19    1
    86    19    22    1
    87    19    20    1
    88    22    23    1
    89    20    21    2
    90    24    23    1
    91    23    25    1
