@<TRIPOS>MOLECULE
tmp/5vysB01.pdb
 149 143 0 0 0
SMALL
GASTEIGER

@<TRIPOS>ATOM
      1  N        -10.5340   38.8050   25.7580 N.3    45  ARG45      -0.1245
      2  CA        -9.1190   38.6030   25.9760 C.3    45  ARG45       0.1563
      3  C         -8.8240   37.6600   27.1260 C.2    45  ARG45       0.2260
      4  O         -7.7190   37.1520   27.1900 O.2    45  ARG45      -0.2867
      5  CB        -8.4580   39.9190   26.2720 C.3    45  ARG45       0.0307
      6  CG        -8.0540   40.6330   25.0270 C.3    45  ARG45       0.0489
      7  CD        -6.9910   41.6330   25.3270 C.3    45  ARG45       0.2205
      8  NE        -7.6170   42.8450   25.7650 N.pl3  45  ARG45      -0.0865
      9  CZ        -6.9440   43.9060   26.2050 C.cat  45  ARG45       0.5346
     10  NH1       -5.5920   43.8820   26.3040 N.pl3  45  ARG45       0.1354
     11  NH2       -7.6500   44.9940   26.5650 N.pl3  45  ARG45       0.1354
     12  N         -0.4700   41.4260   33.9060 N.3    86  HIS86      -0.1241
     13  CA        -1.4610   42.2240   33.1570 C.3    86  HIS86       0.1621
     14  C         -2.7900   42.4510   33.8770 C.2    86  HIS86       0.2264
     15  O         -3.7790   42.7250   33.2250 O.2    86  HIS86      -0.2867
     16  CB        -1.6760   41.6400   31.7270 C.3    86  HIS86       0.0745
     17  CG        -0.5820   41.9840   30.7730 C.ar   86  HIS86       0.0817
     18  ND1       -0.8020   42.1820   29.4290 N.ar   86  HIS86      -0.2268
     19  CD2        0.7380   42.1930   30.9710 C.ar   86  HIS86       0.1154
     20  CE1        0.3350   42.4800   28.8310 C.ar   86  HIS86       0.1986
     21  NE2        1.2880   42.4920   29.7450 N.ar   86  HIS86      -0.2212
     22  N         -5.4840   44.6300   35.8270 N.3    88  ARG88      -0.1245
     23  CA        -5.8750   45.9320   35.2580 C.3    88  ARG88       0.1563
     24  C         -6.4150   46.9010   36.2990 C.2    88  ARG88       0.2260
     25  O         -7.0590   47.9040   35.9520 O.2    88  ARG88      -0.2867
     26  CB        -6.8990   45.7690   34.1440 C.3    88  ARG88       0.0307
     27  CG        -6.4290   44.9190   32.9820 C.3    88  ARG88       0.0489
     28  CD        -7.5810   44.6830   32.0210 C.3    88  ARG88       0.2205
     29  NE        -8.0080   45.8990   31.3350 N.pl3  88  ARG88      -0.0865
     30  CZ        -7.4380   46.4040   30.2340 C.cat  88  ARG88       0.5346
     31  NH1       -6.3850   45.8200   29.6230 N.pl3  88  ARG88       0.1354
     32  NH2       -7.9370   47.5220   29.7220 N.pl3  88  ARG88       0.1354
     33  N          5.3270   47.3080   30.7380 N.3   108  PRO108     -0.2116
     34  CA         5.9720   47.3270   29.4050 C.3   108  PRO108      0.1372
     35  C          6.8110   48.5860   29.0920 C.2   108  PRO108      0.2244
     36  O          6.6530   49.2000   28.0290 O.2   108  PRO108     -0.2868
     37  CB         4.7720   47.2190   28.4710 C.3   108  PRO108      0.0268
     38  CG         3.7350   48.0340   29.1990 C.3   108  PRO108      0.0207
     39  CD         3.9040   47.6730   30.6480 C.3   108  PRO108      0.0892
     40  N          0.0320   54.4420   31.5250 N.3   117  THR117     -0.1203
     41  CA        -0.6030   53.5300   30.6330 C.3   117  THR117      0.1994
     42  C         -0.1780   53.8940   29.2210 C.2   117  THR117      0.2618
     43  O          0.4060   54.9450   29.0260 O.2   117  THR117     -0.2717
     44  CB        -2.1150   53.7360   30.7040 C.3   117  THR117      0.1784
     45  OG1       -2.4110   55.1280   30.4880 O.3   117  THR117     -0.2211
     46  CG2       -2.6640   53.2790   32.0600 C.3   117  THR117      0.0376
     47  N         -0.5160   53.0370   28.2510 N.am  118  ASN118     -0.1960
     48  CA        -0.2180   53.2270   26.8450 C.3   118  ASN118      0.1819
     49  C          1.2700   53.4030   26.5460 C.2   118  ASN118      0.2622
     50  O          1.6650   54.0890   25.5980 O.2   118  ASN118     -0.2715
     51  CB        -1.0360   54.4000   26.2830 C.3   118  ASN118      0.1195
     52  CG        -2.5240   54.1310   26.3290 C.2   118  ASN118      0.2630
     53  OD1       -2.9720   53.0850   25.8820 O.2   118  ASN118     -0.2716
     54  ND2       -3.3060   55.0750   26.8590 N.am  118  ASN118     -0.0877
     55  N          2.1040   52.7540   27.3390 N.am  119  SER119     -0.1936
     56  CA         3.5220   52.9320   27.2040 C.3   119  SER119      0.2055
     57  C          3.9890   52.6040   25.8080 C.2   119  SER119      0.2643
     58  O          4.7450   53.3530   25.2370 O.2   119  SER119     -0.2714
     59  CB         4.2470   52.0810   28.2370 C.3   119  SER119      0.2130
     60  OG         3.6180   52.2860   29.5020 O.3   119  SER119     -0.2179
     61  N          3.4930   51.5040   25.2570 N.am  120  VAL120     -0.1963
     62  CA         3.8630   51.0490   23.9310 C.3   120  VAL120      0.1727
     63  C          3.5480   52.1050   22.8490 C.2   120  VAL120      0.2616
     64  O          4.3560   52.3550   21.9820 O.2   120  VAL120     -0.2715
     65  CB         3.1840   49.6890   23.6740 C.3   120  VAL120      0.0290
     66  CG1        3.1890   49.3300   22.2080 C.3   120  VAL120      0.0023
     67  CG2        3.8850   48.6020   24.5090 C.3   120  VAL120      0.0023
     68  N          2.3870   52.7350   22.9260 N.am  121  ALA121     -0.1977
     69  CA         2.0450   53.8330   22.0430 C.3   121  ALA121      0.1597
     70  C          2.9570   55.0210   22.1930 C.2   121  ALA121      0.2287
     71  O          3.4940   55.5370   21.1930 O.2   121  ALA121     -0.2864
     72  CB         0.6320   54.2610   22.2670 C.3   121  ALA121      0.0319
     73  N          1.9740   50.1480   17.5210 N.3   161  ALA161     -0.1245
     74  CA         1.5700   49.7480   18.8860 C.3   161  ALA161      0.1562
     75  C          1.3070   48.2410   18.9830 C.2   161  ALA161      0.2260
     76  O          1.6860   47.5770   19.9820 O.2   161  ALA161     -0.2867
     77  CB         0.3480   50.5400   19.3570 C.3   161  ALA161      0.0290
     78  N          3.4120   45.7170   21.2610 N.3   165  PHE165     -0.1241
     79  CA         2.6690   45.2310   22.4320 C.3   165  PHE165      0.1605
     80  C          2.7910   43.7400   22.4960 C.2   165  PHE165      0.2264
     81  O          2.9580   43.1680   23.5810 O.2   165  PHE165     -0.2867
     82  CB         1.1950   45.6810   22.3700 C.3   165  PHE165      0.0534
     83  CG         0.2780   45.0390   23.3790 C.ar  165  PHE165     -0.0203
     84  CD1       -0.4070   43.8690   23.0670 C.ar  165  PHE165     -0.0042
     85  CD2        0.0300   45.6380   24.6020 C.ar  165  PHE165     -0.0042
     86  CE1       -1.2750   43.2930   23.9470 C.ar  165  PHE165     -0.0003
     87  CE2       -0.8260   45.0450   25.5360 C.ar  165  PHE165     -0.0003
     88  CZ        -1.4840   43.8730   25.2050 C.ar  165  PHE165     -0.0000
     89  N         -3.8960   58.6690   31.3310 N.3   201  ARG201     -0.1245
     90  CA        -4.7320   57.4640   31.1830 C.3   201  ARG201      0.1563
     91  C         -5.1980   57.2210   29.7450 C.2   201  ARG201      0.2260
     92  O         -5.1020   56.0940   29.2480 O.2   201  ARG201     -0.2867
     93  CB        -5.9640   57.4930   32.1330 C.3   201  ARG201      0.0307
     94  CG        -6.6260   56.1280   32.3530 C.3   201  ARG201      0.0489
     95  CD        -8.1070   56.1790   32.7470 C.3   201  ARG201      0.2205
     96  NE        -8.3160   56.1290   34.2050 N.pl3 201  ARG201     -0.0865
     97  CZ        -9.4310   55.7230   34.8270 C.cat 201  ARG201      0.5346
     98  NH1       -9.4830   55.7390   36.1570 N.pl3 201  ARG201      0.1354
     99  NH2      -10.4900   55.2870   34.1470 N.pl3 201  ARG201      0.1354
    100  N         -6.3140   57.7860   25.4970 N.3   203  LEU203     -0.1245
    101  CA        -5.6560   57.5380   24.2270 C.3   203  LEU203      0.1561
    102  C         -4.8910   58.7970   23.8110 C.2   203  LEU203      0.2260
    103  O         -5.4130   59.9110   23.9010 O.2   203  LEU203     -0.2867
    104  CB        -6.6640   57.1000   23.1520 C.3   203  LEU203      0.0270
    105  CG        -6.1160   56.5050   21.8460 C.3   203  LEU203      0.0019
    106  CD1       -5.4270   55.1430   22.0280 C.3   203  LEU203      0.0001
    107  CD2       -7.2290   56.4270   20.8170 C.3   203  LEU203      0.0001
    108  N          1.5800   54.2680   16.0400 N.3   224  ALA224     -0.1231
    109  CA         1.2810   54.1700   17.4370 C.3   224  ALA224      0.1694
    110  C         -0.1710   53.9500   17.6470 C.2   224  ALA224      0.2591
    111  O         -0.5320   53.3400   18.6190 O.2   224  ALA224     -0.2718
    112  CB         1.7250   55.4150   18.1870 C.3   224  ALA224      0.0304
    113  N         -1.0090   54.4370   16.7460 N.am  225  MET225     -0.1979
    114  CA        -2.4460   54.1830   16.8100 C.3   225  MET225      0.1605
    115  C         -2.8930   52.8760   16.1840 C.2   225  MET225      0.2287
    116  O         -4.0350   52.4740   16.3580 O.2   225  MET225     -0.2864
    117  CB        -3.1870   55.3250   16.1360 C.3   225  MET225      0.0413
    118  CG        -3.1260   56.6460   16.8720 C.3   225  MET225      0.0598
    119  SD        -3.9080   56.5880   18.4950 S.3   225  MET225     -0.1393
    120  CE        -2.4360   56.4970   19.4950 C.3   225  MET225      0.0692
    121  N         -3.7400   49.3690   16.0410 N.3   227  PHE227     -0.1241
    122  CA        -3.9950   48.3120   17.0190 C.3   227  PHE227      0.1605
    123  C         -5.3610   47.6990   16.7720 C.2   227  PHE227      0.2264
    124  O         -6.3400   48.0990   17.3490 O.2   227  PHE227     -0.2867
    125  CB        -3.8650   48.8400   18.4490 C.3   227  PHE227      0.0534
    126  CG        -3.4940   47.7830   19.4660 C.ar  227  PHE227     -0.0203
    127  CD1       -4.4360   46.8470   19.9290 C.ar  227  PHE227     -0.0042
    128  CD2       -2.2000   47.7330   20.0040 C.ar  227  PHE227     -0.0042
    129  CE1       -4.0900   45.9120   20.8950 C.ar  227  PHE227     -0.0003
    130  CE2       -1.8650   46.7900   20.9670 C.ar  227  PHE227     -0.0003
    131  CZ        -2.8150   45.8920   21.4120 C.ar  227  PHE227     -0.0000
    132  N         -9.1810   48.2750   16.8540 N.3   230  PHE230     -0.1228
    133  CA        -9.5390   49.6490   17.2170 C.3   230  PHE230      0.1721
    134  C         -9.3790   50.5380   16.0040 C.2   230  PHE230      0.2437
    135  O         -8.5750   50.2180   15.1030 O.2   230  PHE230     -0.2733
    136  CB        -8.6900   50.1750   18.3510 C.3   230  PHE230      0.0547
    137  CG        -9.0050   49.5410   19.6610 C.ar  230  PHE230     -0.0202
    138  CD1      -10.1630   49.9070   20.3610 C.ar  230  PHE230     -0.0042
    139  CD2       -8.1670   48.5610   20.2030 C.ar  230  PHE230     -0.0042
    140  CE1      -10.4680   49.3220   21.5870 C.ar  230  PHE230     -0.0003
    141  CE2       -8.4730   47.9680   21.4260 C.ar  230  PHE230     -0.0003
    142  CZ        -9.6230   48.3540   22.1180 C.ar  230  PHE230     -0.0000
    143  N        -10.1450   51.6380   15.9610 N.am  231  PRO231     -0.2729
    144  CA        -9.9450   52.5470   14.8340 C.3   231  PRO231      0.1401
    145  C         -8.4900   53.0480   14.7330 C.2   231  PRO231      0.2269
    146  O         -7.8060   53.1870   15.7420 O.2   231  PRO231     -0.2865
    147  CB       -10.9460   53.7020   15.0870 C.3   231  PRO231      0.0296
    148  CG       -11.5190   53.4830   16.4260 C.3   231  PRO231      0.0237
    149  CD       -11.2950   52.0360   16.7980 C.3   231  PRO231      0.0939
@<TRIPOS>BOND
     1   145   144    1
     2   145   146    2
     3   144   147    1
     4   144   143    1
     5   147   148    1
     6   135   134    2
     7   143   134   am
     8   143   149    1
     9   134   133    1
    10   108   109    1
    11   121   122    1
    12   117   114    1
    13   117   118    1
    14   115   116    2
    15   115   114    1
    16   148   149    1
    17   113   114    1
    18   113   110   am
    19   123   122    1
    20   123   124    2
    21   132   133    1
    22   118   119    1
    23   122   125    1
    24   133   136    1
    25   109   110    1
    26   109   112    1
    27    73    74    1
    28   110   111    2
    29   136   137    1
    30   125   126    1
    31   119   120    1
    32    74    75    1
    33    74    77    1
    34    75    76    2
    35   126   127   ar
    36   126   128   ar
    37   137   139   ar
    38   137   138   ar
    39   127   129   ar
    40   128   130   ar
    41   139   141   ar
    42   138   140   ar
    43   107   105    1
    44   129   131   ar
    45   130   131   ar
    46    71    70    2
    47    78    79    1
    48   141   142   ar
    49   140   142   ar
    50   105   106    1
    51   105   104    1
    52    64    63    2
    53    69    70    1
    54    69    72    1
    55    69    68    1
    56    66    65    1
    57    82    79    1
    58    82    83    1
    59    79    80    1
    60    80    81    2
    61    63    68   am
    62    63    62    1
    63    84    83   ar
    64    84    86   ar
    65   104   101    1
    66    83    85   ar
    67    65    62    1
    68    65    67    1
    69   102   103    2
    70   102   101    1
    71    62    61    1
    72    86    88   ar
    73   101   100    1
    74    85    87   ar
    75     6     7    1
    76     6     5    1
    77    88    87   ar
    78    58    57    2
    79    61    57   am
    80     7     8    1
    81    50    49    2
    82     1     2    1
    83     8     9    2
    84    57    56    1
    85    53    52    2
    86     2     5    1
    87     2     3    1
    88     9    10    1
    89     9    11    1
    90    51    52    1
    91    51    48    1
    92    52    54   am
    93    49    48    1
    94    49    55   am
    95    48    47    1
    96     3     4    2
    97    56    55    1
    98    56    59    1
    99    36    35    2
   100    59    60    1
   101    47    42   am
   102    37    38    1
   103    37    34    1
   104    20    18   ar
   105    20    21   ar
   106    43    42    2
   107    35    34    1
   108    38    39    1
   109    42    41    1
   110    92    91    2
   111    34    33    1
   112    18    17   ar
   113    31    30    1
   114    32    30    1
   115    21    19   ar
   116    91    90    1
   117    30    29    2
   118    45    44    1
   119    41    44    1
   120    41    40    1
   121    39    33    1
   122    44    46    1
   123    17    19   ar
   124    17    16    1
   125    90    89    1
   126    90    93    1
   127    29    28    1
   128    16    13    1
   129    28    27    1
   130    93    94    1
   131    94    95    1
   132    95    96    1
   133    27    26    1
   134    13    14    1
   135    13    12    1
   136    15    14    2
   137    26    23    1
   138    99    97    1
   139    96    97    2
   140    97    98    1
   141    23    22    1
   142    23    24    1
   143    25    24    2
