@<TRIPOS>MOLECULE
tmp/5vysB00.pdb
 135 131 0 0 0
SMALL
GASTEIGER

@<TRIPOS>ATOM
      1  N          1.5910   39.8450   39.5910 N.3    84  SER84      -0.1217
      2  CA         0.6860   40.5960   38.7510 C.3    84  SER84       0.1889
      3  C          1.1390   40.4720   37.2910 C.2    84  SER84       0.2288
      4  O          2.1900   40.9600   36.9380 O.2    84  SER84      -0.2866
      5  CB         0.5910   42.0750   39.2140 C.3    84  SER84       0.2089
      6  OG        -0.1530   42.8320   38.2690 O.3    84  SER84      -0.2183
      7  N         -2.8080   42.3590   35.2120 N.3    87  TYR87      -0.1241
      8  CA        -3.9770   42.7070   35.9970 C.3    87  TYR87       0.1605
      9  C         -4.2420   44.1910   35.7770 C.2    87  TYR87       0.2264
     10  O         -3.3350   44.9470   35.5970 O.2    87  TYR87      -0.2867
     11  CB        -3.7320   42.3610   37.4760 C.3    87  TYR87       0.0534
     12  CG        -4.9530   42.4330   38.3430 C.ar   87  TYR87      -0.0201
     13  CD1       -5.1190   43.4680   39.2440 C.ar   87  TYR87      -0.0009
     14  CD2       -5.9470   41.4730   38.2650 C.ar   87  TYR87      -0.0009
     15  CE1       -6.2470   43.5260   40.0780 C.ar   87  TYR87       0.0417
     16  CE2       -7.0850   41.5460   39.0610 C.ar   87  TYR87       0.0417
     17  CZ        -7.2310   42.5880   39.9600 C.ar   87  TYR87       0.1957
     18  OH        -8.3510   42.7060   40.7550 O.3    87  TYR87      -0.2866
     19  N         -6.1240   46.6300   37.5690 N.3    89  SER89      -0.1202
     20  CA        -6.6070   47.4570   38.6580 C.3    89  SER89       0.2020
     21  C         -5.4660   47.6680   39.6290 C.2    89  SER89       0.2619
     22  O         -4.5170   46.8320   39.7220 O.2    89  SER89      -0.2717
     23  CB        -7.7540   46.7770   39.3680 C.3    89  SER89       0.2103
     24  OG        -8.8240   46.5480   38.4860 O.3    89  SER89      -0.2182
     25  N         -5.5650   48.7840   40.3490 N.am   90  LEU90      -0.1965
     26  CA        -4.6790   49.0440   41.4960 C.3    90  LEU90       0.1728
     27  C         -4.9730   47.9990   42.5780 C.2    90  LEU90       0.2616
     28  O         -6.1130   47.7630   42.9270 O.2    90  LEU90      -0.2715
     29  CB        -4.8530   50.4680   42.0480 C.3    90  LEU90       0.0311
     30  CG        -3.8980   50.8260   43.1960 C.3    90  LEU90       0.0022
     31  CD1       -2.5030   51.0220   42.6370 C.3    90  LEU90       0.0001
     32  CD2       -4.3150   52.0850   43.9290 C.3    90  LEU90       0.0001
     33  N         -3.9210   47.4010   43.1080 N.am   91  ILE91      -0.1977
     34  CA        -4.0520   46.3150   44.0470 C.3    91  ILE91       0.1596
     35  C         -3.8290   46.9720   45.3970 C.2    91  ILE91       0.2287
     36  O         -2.7730   47.5550   45.6110 O.2    91  ILE91      -0.2864
     37  CB        -3.0450   45.1650   43.8290 C.3    91  ILE91       0.0276
     38  CG1       -3.3400   44.4410   42.5160 C.3    91  ILE91       0.0022
     39  CG2       -3.1520   44.1470   44.9710 C.3    91  ILE91       0.0022
     40  CD1       -2.2450   43.5020   42.0910 C.3    91  ILE91       0.0001
     41  N         -1.3760   43.3130   49.1020 N.3    96  LEU96      -0.1245
     42  CA         0.0200   43.0420   48.8660 C.3    96  LEU96       0.1561
     43  C          0.6760   42.5900   50.1570 C.2    96  LEU96       0.2260
     44  O          1.4190   41.5920   50.1510 O.2    96  LEU96      -0.2867
     45  CB         0.7530   44.2590   48.3000 C.3    96  LEU96       0.0270
     46  CG         0.3100   44.7740   46.9060 C.3    96  LEU96       0.0019
     47  CD1        1.0140   46.0690   46.5500 C.3    96  LEU96       0.0001
     48  CD2        0.5670   43.7820   45.7910 C.3    96  LEU96       0.0001
     49  N          5.1620   42.6850   39.3850 N.3   105  ASN105     -0.1240
     50  CA         4.2810   43.0910   38.2980 C.3   105  ASN105      0.1653
     51  C          5.1050   43.2900   37.0390 C.2   105  ASN105      0.2266
     52  O          6.2480   43.6980   37.1170 O.2   105  ASN105     -0.2867
     53  CB         3.5230   44.3990   38.6260 C.3   105  ASN105      0.1155
     54  CG         2.7160   44.9250   37.4350 C.2   105  ASN105      0.2627
     55  OD1        3.0670   45.9390   36.8190 O.2   105  ASN105     -0.2716
     56  ND2        1.6960   44.2040   37.0670 N.am  105  ASN105     -0.0877
     57  N          5.6260   45.4050   33.7020 N.3   107  HIS107     -0.1241
     58  CA         5.2740   46.6890   33.1200 C.3   107  HIS107      0.1621
     59  C          6.0130   46.8540   31.8050 C.2   107  HIS107      0.2264
     60  O          7.2220   46.6140   31.7600 O.2   107  HIS107     -0.2867
     61  CB         5.6730   47.8190   34.0550 C.3   107  HIS107      0.0745
     62  CG         5.1920   49.1520   33.5850 C.ar  107  HIS107      0.0817
     63  ND1        3.8870   49.5620   33.7290 N.ar  107  HIS107     -0.2268
     64  CD2        5.8250   50.1330   32.9040 C.ar  107  HIS107      0.1154
     65  CE1        3.7370   50.7500   33.1720 C.ar  107  HIS107      0.1986
     66  NE2        4.8980   51.1200   32.6610 N.ar  107  HIS107     -0.2212
     67  N          8.8280   44.3120   38.3190 N.3   136  HIS136     -0.1241
     68  CA         9.0980   45.0780   39.4990 C.3   136  HIS136      0.1621
     69  C          8.2010   44.6810   40.6360 C.2   136  HIS136      0.2264
     70  O          7.0210   44.3290   40.4280 O.2   136  HIS136     -0.2867
     71  CB         8.9490   46.5760   39.2010 C.3   136  HIS136      0.0745
     72  CG         7.5520   46.9970   38.8890 C.ar  136  HIS136      0.0817
     73  ND1        6.6800   47.4410   39.8580 N.ar  136  HIS136     -0.2268
     74  CD2        6.8810   47.0490   37.7160 C.ar  136  HIS136      0.1154
     75  CE1        5.5290   47.7520   39.2950 C.ar  136  HIS136      0.1986
     76  NE2        5.6190   47.5030   37.9970 N.ar  136  HIS136     -0.2212
     77  N          5.7110   45.3230   43.6420 N.3   138  MET138     -0.1230
     78  CA         4.6330   46.3150   43.7590 C.3   138  MET138      0.1702
     79  C          4.6290   46.9850   45.1320 C.2   138  MET138      0.2592
     80  O          4.6590   46.3240   46.1620 O.2   138  MET138     -0.2718
     81  CB         3.2580   45.6870   43.4820 C.3   138  MET138      0.0401
     82  CG         3.1170   45.1760   42.0450 C.3   138  MET138      0.0596
     83  SD         1.4640   44.6480   41.6500 S.3   138  MET138     -0.1393
     84  CE         1.4680   43.0150   42.3730 C.3   138  MET138      0.0692
     85  N          4.5670   48.3150   45.1400 N.am  139  ASP139     -0.1960
     86  CA         4.2010   49.0120   46.3510 C.3   139  ASP139      0.1840
     87  C          2.7770   49.5590   46.1340 C.2   139  ASP139      0.2622
     88  O          2.0850   49.0840   45.2330 O.2   139  ASP139     -0.2715
     89  CB         5.2890   50.0330   46.7160 C.3   139  ASP139      0.1450
     90  CG         5.5170   51.0980   45.6530 C.2   139  ASP139      0.3671
     91  OD1        6.6690   51.6060   45.5610 O.co2 139  ASP139     -0.2456
     92  OD2        4.5700   51.4620   44.9450 O.co2 139  ASP139     -0.2456
     93  N          2.3640   50.5490   46.9150 N.am  140  GLU140     -0.1963
     94  CA         0.9760   51.0510   46.9400 C.3   140  GLU140      0.1733
     95  C          0.5340   51.8420   45.7390 C.2   140  GLU140      0.2616
     96  O         -0.6830   52.0010   45.5130 O.2   140  GLU140     -0.2715
     97  CB         0.7240   51.9130   48.1990 C.3   140  GLU140      0.0429
     98  CG         0.8500   51.0930   49.4740 C.3   140  GLU140      0.1163
     99  CD         0.2560   51.7480   50.7210 C.2   140  GLU140      0.3649
    100  OE1        0.3420   53.0050   50.8410 O.co2 140  GLU140     -0.2457
    101  OE2       -0.2760   50.9780   51.5760 O.co2 140  GLU140     -0.2457
    102  N          1.5060   52.3570   45.0040 N.am  141  ASN141     -0.1958
    103  CA         1.2730   53.0620   43.7490 C.3   141  ASN141      0.1819
    104  C          1.6330   52.1950   42.5560 C.2   141  ASN141      0.2621
    105  O          2.3980   51.2360   42.6580 O.2   141  ASN141     -0.2715
    106  CB         2.1220   54.3290   43.6760 C.3   141  ASN141      0.1195
    107  CG         1.8920   55.2720   44.8550 C.2   141  ASN141      0.2630
    108  OD1        0.7590   55.6930   45.1080 O.2   141  ASN141     -0.2716
    109  ND2        2.9670   55.5990   45.5770 N.am  141  ASN141     -0.0877
    110  N          1.0520   52.5500   41.4250 N.am  142  PHE142     -0.1960
    111  CA         1.4460   51.9920   40.1700 C.3   142  PHE142      0.1771
    112  C          2.8940   52.4130   39.8170 C.2   142  PHE142      0.2620
    113  O          3.2880   53.5980   39.9860 O.2   142  PHE142     -0.2715
    114  CB         0.5750   52.5550   39.0590 C.3   142  PHE142      0.0574
    115  CG        -0.8150   52.0200   38.9990 C.ar  142  PHE142     -0.0200
    116  CD1       -1.0410   50.7160   38.6630 C.ar  142  PHE142     -0.0042
    117  CD2       -1.9110   52.8580   39.1700 C.ar  142  PHE142     -0.0042
    118  CE1       -2.3330   50.2240   38.5500 C.ar  142  PHE142     -0.0003
    119  CE2       -3.1970   52.3720   39.0530 C.ar  142  PHE142     -0.0003
    120  CZ        -3.4120   51.0500   38.7480 C.ar  142  PHE142     -0.0000
    121  N          3.6450   51.4380   39.2960 N.am  143  ASP143     -0.1957
    122  CA         4.8290   51.6600   38.4900 C.3   143  ASP143      0.1840
    123  C          6.0670   52.1080   39.2520 C.2   143  ASP143      0.2622
    124  O          7.0530   52.5230   38.6120 O.2   143  ASP143     -0.2715
    125  CB         4.5820   52.6880   37.3610 C.3   143  ASP143      0.1450
    126  CG         3.2770   52.4890   36.6310 C.2   143  ASP143      0.3671
    127  OD1        2.8720   51.3350   36.3850 O.co2 143  ASP143     -0.2456
    128  OD2        2.6600   53.5150   36.2650 O.co2 143  ASP143     -0.2456
    129  N          6.0580   51.9790   40.5850 N.am  144  THR144     -0.1951
    130  CA         7.0900   52.5970   41.4330 C.3   144  THR144      0.1897
    131  C          7.9980   51.6410   42.2060 C.2   144  THR144      0.2313
    132  O          9.0790   52.0430   42.6710 O.2   144  THR144     -0.2863
    133  CB         6.4170   53.5380   42.4490 C.3   144  THR144      0.1794
    134  OG1        5.2290   52.9060   42.9520 O.3   144  THR144     -0.2208
    135  CG2        6.0620   54.8930   41.7920 C.3   144  THR144      0.0378
@<TRIPOS>BOND
     1    60    59    2
     2    59    58    1
     3    66    64   ar
     4    66    65   ar
     5    64    62   ar
     6    58    57    1
     7    58    61    1
     8    65    63   ar
     9    62    63   ar
    10    62    61    1
    11     7     8    1
    12    10     9    2
    13     9     8    1
    14     8    11    1
    15   128   126   ar
    16   127   126   ar
    17   126   125    1
    18    55    54    2
    19     4     3    2
    20    51    52    2
    21    51    50    1
    22    56    54   am
    23     3     2    1
    24   125   122    1
    25    54    53    1
    26    11    12    1
    27    19    20    1
    28    74    76   ar
    29    74    72   ar
    30    76    75   ar
    31    14    12   ar
    32    14    16   ar
    33     6     5    1
    34    50    53    1
    35    50    49    1
    36    67    68    1
    37    12    13   ar
    38    24    23    1
    39   122   123    1
    40   122   121    1
    41   118   116   ar
    42   118   120   ar
    43   124   123    2
    44    20    23    1
    45    20    21    1
    46   116   115   ar
    47   120   119   ar
    48     2     5    1
    49     2     1    1
    50    72    71    1
    51    72    73   ar
    52   115   114    1
    53   115   117   ar
    54   119   117   ar
    55   114   111    1
    56    16    17   ar
    57    71    68    1
    58    13    15   ar
    59   123   129   am
    60    75    73   ar
    61   121   112   am
    62    68    69    1
    63    21    22    2
    64    21    25   am
    65   112   113    2
    66   112   111    1
    67    17    15   ar
    68    17    18    1
    69   111   110    1
    70    25    26    1
    71    70    69    2
    72   129   130    1
    73   110   104   am
    74   130   131    1
    75   130   133    1
    76    26    29    1
    77    26    27    1
    78    83    82    1
    79    83    84    1
    80   135   133    1
    81    82    81    1
    82    29    30    1
    83    40    38    1
    84   131   132    2
    85   133   134    1
    86    38    37    1
    87   104   105    2
    88   104   103    1
    89    27    28    2
    90    27    33   am
    91    31    30    1
    92    33    34    1
    93    30    32    1
    94    81    78    1
    95    77    78    1
    96   106   103    1
    97   106   107    1
    98   103   102    1
    99    78    79    1
   100    37    34    1
   101    37    39    1
   102    34    35    1
   103   107   108    2
   104   107   109   am
   105    92    90   ar
   106   102    95   am
   107    79    85   am
   108    79    80    2
   109    85    86    1
   110    88    87    2
   111    35    36    2
   112    96    95    2
   113    91    90   ar
   114    90    89    1
   115    95    94    1
   116    48    46    1
   117    87    86    1
   118    87    93   am
   119    86    89    1
   120    47    46    1
   121    46    45    1
   122    93    94    1
   123    94    97    1
   124    97    98    1
   125    45    42    1
   126    42    41    1
   127    42    43    1
   128    98    99    1
   129    44    43    2
   130    99   100   ar
   131    99   101   ar
