@<TRIPOS>MOLECULE
tmp/5vytC00.pdb
 175 170 0 0 0
SMALL
GASTEIGER

@<TRIPOS>ATOM
      1  N          6.8200    1.4010  -48.2450 N.3    83  SER83      -0.1217
      2  CA         6.1250    0.4370  -49.1060 C.3    83  SER83       0.1889
      3  C          6.3570    0.8830  -50.5410 C.2    83  SER83       0.2288
      4  O          6.0260    2.0140  -50.9120 O.2    83  SER83      -0.2866
      5  CB         4.6540    0.4120  -48.8010 C.3    83  SER83       0.2089
      6  OG         3.9800   -0.3740  -49.7300 O.3    83  SER83      -0.2183
      7  N          4.4320   -2.9870  -52.6420 N.3    86  TYR86      -0.1227
      8  CA         4.1710   -4.1710  -51.8550 C.3    86  TYR86       0.1736
      9  C          2.7510   -4.5200  -52.2150 C.2    86  TYR86       0.2595
     10  O          1.9410   -3.6340  -52.4420 O.2    86  TYR86      -0.2718
     11  CB         4.3130   -3.8840  -50.3380 C.3    86  TYR86       0.0548
     12  CG         4.3190   -5.1450  -49.4820 C.ar   86  TYR86      -0.0200
     13  CD1        5.3650   -6.0620  -49.5470 C.ar   86  TYR86      -0.0009
     14  CD2        3.2580   -5.4320  -48.6020 C.ar   86  TYR86      -0.0009
     15  CE1        5.3610   -7.2140  -48.7840 C.ar   86  TYR86       0.0417
     16  CE2        3.2490   -6.5900  -47.8310 C.ar   86  TYR86       0.0417
     17  CZ         4.3060   -7.4790  -47.9180 C.ar   86  TYR86       0.1957
     18  OH         4.3180   -8.6300  -47.1440 O.3    86  TYR86      -0.2866
     19  N          2.4180   -5.7860  -52.2010 N.am   87  ARG87      -0.1966
     20  CA         1.1610   -6.2610  -52.7890 C.3    87  ARG87       0.1729
     21  C          0.1580   -6.8000  -51.7420 C.2    87  ARG87       0.2617
     22  O         -0.8190   -7.4050  -52.0930 O.2    87  ARG87      -0.2715
     23  CB         1.4660   -7.2920  -53.8700 C.3    87  ARG87       0.0348
     24  CG         2.3870   -6.7760  -54.9870 C.3    87  ARG87       0.0492
     25  CD         2.8660   -7.8920  -55.9120 C.3    87  ARG87       0.2205
     26  NE         1.7770   -8.4270  -56.7320 N.pl3  87  ARG87      -0.0865
     27  CZ         1.2550   -7.8210  -57.7940 C.cat  87  ARG87       0.5346
     28  NH1        1.7100   -6.6410  -58.2280 N.pl3  87  ARG87       0.1354
     29  NH2        0.2800   -8.4130  -58.4600 N.pl3  87  ARG87       0.1354
     30  N          0.4040   -6.5680  -50.4610 N.am   88  SER88      -0.1936
     31  CA        -0.5080   -6.9670  -49.4260 C.3    88  SER88       0.2055
     32  C         -0.6960   -5.8420  -48.4740 C.2    88  SER88       0.2643
     33  O          0.2100   -5.0200  -48.2420 O.2    88  SER88      -0.2714
     34  CB        -0.0070   -8.1600  -48.6440 C.3    88  SER88       0.2130
     35  OG         0.0930   -9.2670  -49.4900 O.3    88  SER88      -0.2179
     36  N         -1.8920   -5.8220  -47.9170 N.am   89  LEU89      -0.1963
     37  CA        -2.2120   -4.9040  -46.8700 C.3    89  LEU89       0.1728
     38  C         -1.3670   -5.2440  -45.6380 C.2    89  LEU89       0.2616
     39  O         -1.2450   -6.3900  -45.2420 O.2    89  LEU89      -0.2715
     40  CB        -3.7000   -4.9760  -46.5580 C.3    89  LEU89       0.0311
     41  CG        -4.1880   -3.8620  -45.6440 C.3    89  LEU89       0.0022
     42  CD1       -4.3140   -2.5570  -46.4320 C.3    89  LEU89       0.0001
     43  CD2       -5.4940   -4.2880  -45.0070 C.3    89  LEU89       0.0001
     44  N         -0.8300   -4.2130  -45.0260 N.am   90  ILE90      -0.1977
     45  CA         0.1350   -4.3310  -43.9610 C.3    90  ILE90       0.1596
     46  C         -0.6450   -3.9470  -42.7230 C.2    90  ILE90       0.2287
     47  O         -1.1360   -2.8500  -42.6470 O.2    90  ILE90      -0.2864
     48  CB         1.3260   -3.3410  -44.1230 C.3    90  ILE90       0.0276
     49  CG1        2.1380   -3.7000  -45.3680 C.3    90  ILE90       0.0022
     50  CG2        2.2120   -3.3390  -42.8770 C.3    90  ILE90       0.0022
     51  CD1        2.9600   -2.5430  -45.9050 C.3    90  ILE90       0.0001
     52  N          2.7220   -1.3900  -38.7220 N.3    95  LEU95      -0.1245
     53  CA         3.0670    0.0170  -38.9540 C.3    95  LEU95       0.1561
     54  C          3.4170    0.7070  -37.6550 C.2    95  LEU95       0.2260
     55  O          4.3140    1.5370  -37.6260 O.2    95  LEU95      -0.2867
     56  CB         1.9090    0.7690  -39.6160 C.3    95  LEU95       0.0270
     57  CG         1.3310    0.2700  -40.9330 C.3    95  LEU95       0.0019
     58  CD1        0.1290    1.1450  -41.2610 C.3    95  LEU95       0.0001
     59  CD2        2.3510    0.3200  -42.0430 C.3    95  LEU95       0.0001
     60  N          3.9760    5.2010  -48.5030 N.3   104  ASN104     -0.1225
     61  CA         3.6490    4.3200  -49.6160 C.3   104  ASN104      0.1785
     62  C          3.4560    5.1110  -50.8970 C.2   104  ASN104      0.2597
     63  O          2.9770    6.2130  -50.8410 O.2   104  ASN104     -0.2718
     64  CB         2.3880    3.5190  -49.3060 C.3   104  ASN104      0.1169
     65  CG         1.9540    2.6640  -50.4800 C.2   104  ASN104      0.2627
     66  OD1        2.5350    1.6230  -50.7160 O.2   104  ASN104     -0.2716
     67  ND2        0.9810    3.1540  -51.2700 N.am  104  ASN104     -0.0877
     68  N          3.7770    4.5010  -52.0350 N.am  105  LEU105     -0.1966
     69  CA         3.6960    5.1400  -53.3490 C.3   105  LEU105      0.1728
     70  C          2.4810    4.6080  -54.1150 C.2   105  LEU105      0.2616
     71  O          2.4070    3.4070  -54.3630 O.2   105  LEU105     -0.2715
     72  CB         4.9620    4.8290  -54.1750 C.3   105  LEU105      0.0311
     73  CG         4.8250    5.1260  -55.6540 C.3   105  LEU105      0.0022
     74  CD1        4.6000    6.6160  -55.8640 C.3   105  LEU105      0.0001
     75  CD2        6.0280    4.6410  -56.4290 C.3   105  LEU105      0.0001
     76  N          1.5600    5.4870  -54.5180 N.am  106  HIS106     -0.1973
     77  CA         0.4020    5.0660  -55.3000 C.3   106  HIS106      0.1656
     78  C          0.2900    5.9310  -56.5630 C.2   106  HIS106      0.2291
     79  O          0.3860    7.1600  -56.4860 O.2   106  HIS106     -0.2864
     80  CB        -0.8310    5.1790  -54.4590 C.3   106  HIS106      0.0771
     81  CG        -2.0860    4.7510  -55.1510 C.ar  106  HIS106      0.0820
     82  ND1       -2.5300    3.4460  -55.1680 N.ar  106  HIS106     -0.2267
     83  CD2       -3.0230    5.4700  -55.8000 C.ar  106  HIS106      0.1154
     84  CE1       -3.6770    3.3770  -55.8180 C.ar  106  HIS106      0.1986
     85  NE2       -3.9980    4.5920  -56.2150 N.ar  106  HIS106     -0.2212
     86  N         -7.4250    1.7530  -54.9520 N.3   115  GLY115     -0.1210
     87  CA        -7.5110    0.3910  -55.4760 C.3   115  GLY115      0.1956
     88  C         -6.4500    0.0900  -56.5170 C.2   115  GLY115      0.2612
     89  O         -5.3260    0.5490  -56.4010 O.2   115  GLY115     -0.2717
     90  N         -6.8060   -0.6740  -57.5390 N.am  116  THR116     -0.1952
     91  CA        -5.8060   -1.2520  -58.4400 C.3   116  THR116      0.1897
     92  C         -6.1550   -0.8630  -59.8760 C.2   116  THR116      0.2313
     93  O         -7.2150   -0.2750  -60.1050 O.2   116  THR116     -0.2863
     94  CB        -5.7280   -2.7840  -58.2490 C.3   116  THR116      0.1794
     95  OG1       -7.0400   -3.3310  -58.3680 O.3   116  THR116     -0.2208
     96  CG2       -5.1730   -3.1490  -56.8220 C.3   116  THR116      0.0378
     97  N          2.2380    8.6480  -49.5240 N.3   135  HIS135     -0.1241
     98  CA         1.4200    8.9270  -48.3580 C.3   135  HIS135      0.1621
     99  C          1.7760    8.0360  -47.1800 C.2   135  HIS135      0.2264
    100  O          2.1540    6.8550  -47.3570 O.2   135  HIS135     -0.2867
    101  CB        -0.0600    8.7990  -48.7480 C.3   135  HIS135      0.0745
    102  CG        -0.4830    7.3970  -49.0560 C.ar  135  HIS135      0.0817
    103  ND1       -0.9980    6.5590  -48.0950 N.ar  135  HIS135     -0.2268
    104  CD2       -0.4340    6.6700  -50.1960 C.ar  135  HIS135      0.1154
    105  CE1       -1.2500    5.3770  -48.6260 C.ar  135  HIS135      0.1986
    106  NE2       -0.9300    5.4250  -49.9010 N.ar  135  HIS135     -0.2212
    107  N          0.9720    5.6060  -44.1100 N.3   137  MET137     -0.1230
    108  CA         0.0110    4.5430  -44.1090 C.3   137  MET137      0.1702
    109  C         -0.7610    4.5210  -42.8060 C.2   137  MET137      0.2592
    110  O         -0.2780    5.0390  -41.8200 O.2   137  MET137     -0.2718
    111  CB         0.7060    3.2120  -44.3940 C.3   137  MET137      0.0401
    112  CG         1.2210    3.1240  -45.8430 C.3   137  MET137      0.0596
    113  SD         1.7780    1.4690  -46.2610 S.3   137  MET137     -0.1393
    114  CE         3.5000    1.6450  -45.8360 C.3   137  MET137      0.0692
    115  N         -2.0010    4.0100  -42.8550 N.am  138  ASP138     -0.1960
    116  CA        -2.7840    3.6480  -41.6710 C.3   138  ASP138      0.1840
    117  C         -3.3710    2.2600  -41.9230 C.2   138  ASP138      0.2622
    118  O         -2.8520    1.5570  -42.7780 O.2   138  ASP138     -0.2715
    119  CB        -3.8090    4.7320  -41.2800 C.3   138  ASP138      0.1450
    120  CG        -4.7930    5.0530  -42.3710 C.2   138  ASP138      0.3671
    121  OD1       -5.1080    4.1470  -43.2010 O.co2 138  ASP138     -0.2456
    122  OD2       -5.2670    6.2320  -42.3870 O.co2 138  ASP138     -0.2456
    123  N         -4.4130    1.8630  -41.1940 N.am  139  GLU139     -0.1963
    124  CA        -4.8460    0.4520  -41.1720 C.3   139  GLU139      0.1733
    125  C         -5.5880    0.0750  -42.4460 C.2   139  GLU139      0.2616
    126  O         -5.6550   -1.1040  -42.7820 O.2   139  GLU139     -0.2715
    127  CB        -5.6340    0.0650  -39.8830 C.3   139  GLU139      0.0429
    128  CG        -7.0710    0.5740  -39.7030 C.3   139  GLU139      0.1163
    129  CD        -7.2220    2.0380  -39.1950 C.2   139  GLU139      0.3649
    130  OE1       -6.2300    2.8380  -39.2480 O.co2 139  GLU139     -0.2457
    131  OE2       -8.3610    2.4070  -38.7730 O.co2 139  GLU139     -0.2457
    132  N         -6.0860    1.0710  -43.1660 N.am  140  ASN140     -0.1958
    133  CA        -6.7710    0.8690  -44.4390 C.3   140  ASN140      0.1819
    134  C         -5.8600    1.0950  -45.6380 C.2   140  ASN140      0.2621
    135  O         -4.7650    1.6980  -45.5250 O.2   140  ASN140     -0.2715
    136  CB        -7.9020    1.8870  -44.5770 C.3   140  ASN140      0.1195
    137  CG        -9.0040    1.7140  -43.5630 C.2   140  ASN140      0.2630
    138  OD1       -9.5710    0.6550  -43.4320 O.2   140  ASN140     -0.2716
    139  ND2       -9.3590    2.7930  -42.9080 N.am  140  ASN140     -0.0877
    140  N         -6.3580    0.6680  -46.7980 N.am  141  ALA141     -0.1963
    141  CA        -5.6900    0.8620  -48.0680 C.3   141  ALA141      0.1728
    142  C         -5.8110    2.2940  -48.5900 C.2   141  ALA141      0.2616
    143  O         -6.8880    2.8540  -48.6180 O.2   141  ALA141     -0.2715
    144  CB        -6.2750   -0.0860  -49.0920 C.3   141  ALA141      0.0334
    145  N         -4.6950    2.8620  -49.0300 N.am  142  ASP142     -0.1971
    146  CA        -4.6730    4.1200  -49.7930 C.3   142  ASP142      0.1709
    147  C         -4.9450    5.3800  -49.0140 C.2   142  ASP142      0.2293
    148  O         -4.8160    6.4630  -49.5530 O.2   142  ASP142     -0.2864
    149  CB        -5.5820    4.0470  -51.0340 C.3   142  ASP142      0.1436
    150  CG        -5.1960    2.8930  -51.9820 C.2   142  ASP142      0.3671
    151  OD1       -4.0070    2.6970  -52.2830 O.co2 142  ASP142     -0.2456
    152  OD2       -6.0870    2.1850  -52.4410 O.co2 142  ASP142     -0.2456
    153  N        -12.7830    4.3950  -56.2050 N.3   197  TYR197     -0.1241
    154  CA       -12.1450    3.1330  -55.9070 C.3   197  TYR197      0.1605
    155  C        -12.4580    2.1640  -57.0200 C.2   197  TYR197      0.2264
    156  O        -13.5510    2.1650  -57.5080 O.2   197  TYR197     -0.2867
    157  CB       -12.6500    2.5640  -54.5740 C.3   197  TYR197      0.0534
    158  CG       -12.2690    1.1030  -54.3680 C.ar  197  TYR197     -0.0201
    159  CD1      -13.2240    0.1020  -54.4710 C.ar  197  TYR197     -0.0009
    160  CD2      -10.9540    0.7170  -54.1070 C.ar  197  TYR197     -0.0009
    161  CE1      -12.9080   -1.2170  -54.3050 C.ar  197  TYR197      0.0417
    162  CE2      -10.6230   -0.6310  -53.9160 C.ar  197  TYR197      0.0417
    163  CZ       -11.6210   -1.5900  -54.0140 C.ar  197  TYR197      0.1957
    164  OH       -11.3840   -2.9350  -53.8410 O.3   197  TYR197     -0.2866
    165  N        -10.0420   -5.2110  -57.9180 N.3   200  ARG200     -0.1245
    166  CA        -8.9640   -5.9520  -58.5880 C.3   200  ARG200      0.1563
    167  C         -9.3170   -6.4040  -60.0440 C.2   200  ARG200      0.2260
    168  O         -8.4150   -6.5920  -60.8640 O.2   200  ARG200     -0.2867
    169  CB        -8.5010   -7.1180  -57.7000 C.3   200  ARG200      0.0307
    170  CG        -8.1260   -6.7000  -56.2760 C.3   200  ARG200      0.0489
    171  CD        -7.1930   -7.7000  -55.6000 C.3   200  ARG200      0.2205
    172  NE        -5.7850   -7.3670  -55.8510 N.pl3 200  ARG200     -0.0865
    173  CZ        -4.8870   -6.9320  -54.9510 C.cat 200  ARG200      0.5346
    174  NH1       -5.1940   -6.7750  -53.6540 N.pl3 200  ARG200      0.1354
    175  NH2       -3.6360   -6.6570  -55.3610 N.pl3 200  ARG200      0.1354
@<TRIPOS>BOND
     1   168   167    2
     2    93    92    2
     3   167   166    1
     4    92    91    1
     5   166   165    1
     6   166   169    1
     7    29    27    1
     8    91    94    1
     9    91    90    1
    10    95    94    1
    11    94    96    1
    12    28    27    1
    13    27    26    2
    14   169   170    1
    15    90    88   am
    16   156   155    2
    17   155   154    1
    18    26    25    1
    19    78    79    2
    20    78    77    1
    21    88    89    2
    22    88    87    1
    23    75    73    1
    24   170   171    1
    25    85    84   ar
    26    85    83   ar
    27   153   154    1
    28    25    24    1
    29   154   157    1
    30    74    73    1
    31   172   171    1
    32   172   173    2
    33    84    82   ar
    34    83    81   ar
    35    73    72    1
    36    87    86    1
    37   175   173    1
    38    77    76    1
    39    77    80    1
    40    82    81   ar
    41    81    80    1
    42    24    23    1
    43   173   174    1
    44   157   158    1
    45    76    70   am
    46   159   158   ar
    47   159   161   ar
    48   158   160   ar
    49    71    70    2
    50   161   163   ar
    51    72    69    1
    52    70    69    1
    53   160   162   ar
    54   163   162   ar
    55   163   164    1
    56    23    20    1
    57    69    68    1
    58    20    19    1
    59    20    21    1
    60     7     8    1
    61    10     9    2
    62   152   150   ar
    63   151   150   ar
    64     9    19   am
    65     9     8    1
    66    22    21    2
    67    68    62   am
    68   150   149    1
    69     8    11    1
    70    21    30   am
    71    67    65   am
    72   149   146    1
    73     4     3    2
    74    62    63    2
    75    62    61    1
    76    66    65    2
    77     3     2    1
    78    65    64    1
    79    30    31    1
    80    11    12    1
    81   104   106   ar
    82   104   102   ar
    83   106   105   ar
    84   146   145    1
    85   146   147    1
    86     6     5    1
    87    61    64    1
    88    61    60    1
    89   148   147    2
    90    13    12   ar
    91    13    15   ar
    92    97    98    1
    93    35    34    1
    94    12    14   ar
    95    31    34    1
    96    31    32    1
    97     2     5    1
    98     2     1    1
    99   144   141    1
   100   102   101    1
   101   102   103   ar
   102   145   142   am
   103    15    17   ar
   104   101    98    1
   105   105   103   ar
   106   143   142    2
   107    14    16   ar
   108   142   141    1
   109    32    33    2
   110    32    36   am
   111    98    99    1
   112   141   140    1
   113    17    16   ar
   114    17    18    1
   115    36    37    1
   116   100    99    2
   117    37    40    1
   118    37    38    1
   119   140   134   am
   120    40    41    1
   121    42    41    1
   122   113   112    1
   123   113   114    1
   124    51    49    1
   125   112   111    1
   126    41    43    1
   127    38    39    2
   128    38    44   am
   129   134   135    2
   130   134   133    1
   131    49    48    1
   132    44    45    1
   133   136   133    1
   134   136   137    1
   135   133   132    1
   136   111   108    1
   137    48    45    1
   138    48    50    1
   139   107   108    1
   140   108   109    1
   141    45    46    1
   142   137   138    2
   143   137   139   am
   144   121   120   ar
   145   132   125   am
   146   115   109   am
   147   115   116    1
   148   109   110    2
   149   126   125    2
   150   118   117    2
   151    46    47    2
   152   125   124    1
   153   122   120   ar
   154   120   119    1
   155    59    57    1
   156   117   116    1
   157   117   123   am
   158   116   119    1
   159    58    57    1
   160   123   124    1
   161   124   127    1
   162    57    56    1
   163   127   128    1
   164   128   129    1
   165    56    53    1
   166   130   129   ar
   167   129   131   ar
   168    53    52    1
   169    53    54    1
   170    54    55    2
