@<TRIPOS>MOLECULE
tmp/5vytC01.pdb
 142 136 0 0 0
SMALL
GASTEIGER

@<TRIPOS>ATOM
      1  N          9.1460  -10.4650  -62.1070 N.3    44  ARG44      -0.1245
      2  CA         9.2940   -9.0530  -61.8240 C.3    44  ARG44       0.1563
      3  C         10.1200   -8.7990  -60.5950 C.2    44  ARG44       0.2260
      4  O         10.5480   -7.6830  -60.4310 O.2    44  ARG44      -0.2867
      5  CB         7.9400   -8.3750  -61.6960 C.3    44  ARG44       0.0307
      6  CG         7.1580   -8.3850  -62.9940 C.3    44  ARG44       0.0489
      7  CD         5.6580   -8.2860  -62.7430 C.3    44  ARG44       0.2205
      8  NE         5.3290   -6.9850  -62.1730 N.pl3  44  ARG44      -0.0865
      9  CZ         4.1070   -6.5840  -61.7970 C.cat  44  ARG44       0.5346
     10  NH1        3.9570   -5.3530  -61.2690 N.pl3  44  ARG44       0.1354
     11  NH2        3.0460   -7.3940  -61.9270 N.pl3  44  ARG44       0.1354
     12  N          5.4350   -0.6550  -53.8530 N.3    85  HIS85      -0.1241
     13  CA         4.6920   -1.6490  -54.6660 C.3    85  HIS85       0.1621
     14  C          4.4940   -3.0080  -53.9810 C.2    85  HIS85       0.2264
     15  O          4.4220   -4.0370  -54.6650 O.2    85  HIS85      -0.2867
     16  CB         5.3920   -1.8850  -56.0060 C.3    85  HIS85       0.0745
     17  CG         5.1460   -0.8110  -56.9900 C.ar   85  HIS85       0.0817
     18  ND1        5.1230   -1.0500  -58.3430 N.ar   85  HIS85      -0.2268
     19  CD2        4.8540    0.4940  -56.8210 C.ar   85  HIS85       0.1154
     20  CE1        4.8360    0.0700  -58.9700 C.ar   85  HIS85       0.1986
     21  NE2        4.6870    1.0260  -58.0700 N.ar   85  HIS85      -0.2212
     22  N          2.4180   -5.7860  -52.2010 N.3    87  ARG87      -0.1245
     23  CA         1.1610   -6.2610  -52.7890 C.3    87  ARG87       0.1563
     24  C          0.1580   -6.8000  -51.7420 C.2    87  ARG87       0.2260
     25  O         -0.8190   -7.4050  -52.0930 O.2    87  ARG87      -0.2867
     26  CB         1.4660   -7.2920  -53.8700 C.3    87  ARG87       0.0307
     27  CG         2.3870   -6.7760  -54.9870 C.3    87  ARG87       0.0489
     28  CD         2.8660   -7.8920  -55.9120 C.3    87  ARG87       0.2205
     29  NE         1.7770   -8.4270  -56.7320 N.pl3  87  ARG87      -0.0865
     30  CZ         1.2550   -7.8210  -57.7940 C.cat  87  ARG87       0.5346
     31  NH1        1.7100   -6.6410  -58.2280 N.pl3  87  ARG87       0.1354
     32  NH2        0.2800   -8.4130  -58.4600 N.pl3  87  ARG87       0.1354
     33  N         -6.8060   -0.6740  -57.5390 N.3   116  THR116     -0.1203
     34  CA        -5.8060   -1.2520  -58.4400 C.3   116  THR116      0.1994
     35  C         -6.1550   -0.8630  -59.8760 C.2   116  THR116      0.2618
     36  O         -7.2150   -0.2750  -60.1050 O.2   116  THR116     -0.2717
     37  CB        -5.7280   -2.7840  -58.2490 C.3   116  THR116      0.1784
     38  OG1       -7.0400   -3.3310  -58.3680 O.3   116  THR116     -0.2211
     39  CG2       -5.1730   -3.1490  -56.8220 C.3   116  THR116      0.0376
     40  N         -5.2460   -1.1370  -60.8220 N.am  117  ASN117     -0.1960
     41  CA        -5.4710   -0.8060  -62.2350 C.3   117  ASN117      0.1819
     42  C         -5.7670    0.6930  -62.4230 C.2   117  ASN117      0.2622
     43  O         -6.5100    1.0960  -63.3630 O.2   117  ASN117     -0.2715
     44  CB        -6.6520   -1.6090  -62.8410 C.3   117  ASN117      0.1195
     45  CG        -6.4410   -3.1170  -62.8210 C.2   117  ASN117      0.2630
     46  OD1       -5.3480   -3.6090  -63.0930 O.2   117  ASN117     -0.2716
     47  ND2       -7.5150   -3.8670  -62.5370 N.am  117  ASN117     -0.0877
     48  N         -5.1900    1.5150  -61.5520 N.am  118  SER118     -0.1936
     49  CA        -5.3840    2.9540  -61.6610 C.3   118  SER118      0.2055
     50  C         -5.0400    3.4640  -63.0400 C.2   118  SER118      0.2643
     51  O         -5.8560    4.1900  -63.6230 O.2   118  SER118     -0.2714
     52  CB        -4.5900    3.7090  -60.6210 C.3   118  SER118      0.2130
     53  OG        -4.9820    3.2640  -59.3340 O.3   118  SER118     -0.2179
     54  N         -3.8840    3.0650  -63.5860 N.am  119  VAL119     -0.1963
     55  CA        -3.4360    3.6610  -64.8570 C.3   119  VAL119      0.1727
     56  C         -4.4060    3.2900  -65.9990 C.2   119  VAL119      0.2616
     57  O         -4.6880    4.0980  -66.8820 O.2   119  VAL119     -0.2715
     58  CB        -1.9780    3.2990  -65.2400 C.3   119  VAL119      0.0290
     59  CG1       -1.0160    3.7270  -64.1520 C.3   119  VAL119      0.0023
     60  CG2       -1.8330    1.8180  -65.5490 C.3   119  VAL119      0.0023
     61  N         -4.9340    2.0720  -65.9670 N.am  120  ALA120     -0.1977
     62  CA        -5.9780    1.7070  -66.9190 C.3   120  ALA120      0.1597
     63  C         -7.2180    2.6030  -66.8090 C.2   120  ALA120      0.2287
     64  O         -7.7110    3.1020  -67.8300 O.2   120  ALA120     -0.2864
     65  CB        -6.3520    0.2500  -66.7710 C.3   120  ALA120      0.0319
     66  N         -1.7460    1.7930  -70.9740 N.3   160  ALA160     -0.1245
     67  CA        -1.4800    1.4210  -69.5970 C.3   160  ALA160      0.1562
     68  C          0.0340    1.2330  -69.4060 C.2   160  ALA160      0.2260
     69  O          0.6120    1.7480  -68.4390 O.2   160  ALA160     -0.2867
     70  CB        -2.2230    0.1690  -69.2150 C.3   160  ALA160      0.0290
     71  N          2.2360    3.2980  -66.9020 N.3   164  PHE164     -0.1241
     72  CA         2.7300    2.5000  -65.8070 C.3   164  PHE164      0.1605
     73  C          4.2410    2.6670  -65.5610 C.2   164  PHE164      0.2264
     74  O          4.6830    2.8030  -64.4350 O.2   164  PHE164     -0.2867
     75  CB         2.3800    1.0630  -66.0500 C.3   164  PHE164      0.0534
     76  CG         2.9020    0.1650  -65.0030 C.ar  164  PHE164     -0.0203
     77  CD1        4.1610   -0.4090  -65.1340 C.ar  164  PHE164     -0.0042
     78  CD2        2.1690   -0.0660  -63.8640 C.ar  164  PHE164     -0.0042
     79  CE1        4.6470   -1.2390  -64.1560 C.ar  164  PHE164     -0.0003
     80  CE2        2.6460   -0.8920  -62.8750 C.ar  164  PHE164     -0.0003
     81  CZ         3.8880   -1.4770  -63.0170 C.ar  164  PHE164     -0.0000
     82  N        -10.0420   -5.2110  -57.9180 N.3   200  ARG200     -0.1245
     83  CA        -8.9640   -5.9520  -58.5880 C.3   200  ARG200      0.1563
     84  C         -9.3170   -6.4040  -60.0440 C.2   200  ARG200      0.2260
     85  O         -8.4150   -6.5920  -60.8640 O.2   200  ARG200     -0.2867
     86  CB        -8.5010   -7.1180  -57.7000 C.3   200  ARG200      0.0307
     87  CG        -8.1260   -6.7000  -56.2760 C.3   200  ARG200      0.0489
     88  CD        -7.1930   -7.7000  -55.6000 C.3   200  ARG200      0.2205
     89  NE        -5.7850   -7.3670  -55.8510 N.pl3 200  ARG200     -0.0865
     90  CZ        -4.8870   -6.9320  -54.9510 C.cat 200  ARG200      0.5346
     91  NH1       -5.1940   -6.7750  -53.6540 N.pl3 200  ARG200      0.1354
     92  NH2       -3.6360   -6.6570  -55.3610 N.pl3 200  ARG200      0.1354
     93  N        -10.3200   -6.8550  -63.9130 N.3   202  LEU202     -0.1245
     94  CA        -9.8180   -6.1810  -65.1040 C.3   202  LEU202      0.1561
     95  C        -10.9760   -5.4050  -65.7200 C.2   202  LEU202      0.2260
     96  O        -12.0280   -5.9780  -65.9060 O.2   202  LEU202     -0.2867
     97  CB        -9.3160   -7.2400  -66.0780 C.3   202  LEU202      0.0270
     98  CG        -8.6470   -6.8240  -67.3800 C.3   202  LEU202      0.0019
     99  CD1       -7.3430   -6.0880  -67.0810 C.3   202  LEU202      0.0001
    100  CD2       -8.4210   -8.0600  -68.2460 C.3   202  LEU202      0.0001
    101  N         -5.8590    1.4540  -72.8510 N.3   223  ALA223     -0.1231
    102  CA        -5.8660    1.0610  -71.4380 C.3   223  ALA223      0.1694
    103  C         -5.5970   -0.4210  -71.2120 C.2   223  ALA223      0.2591
    104  O         -5.0930   -0.7830  -70.1350 O.2   223  ALA223     -0.2718
    105  CB        -7.1760    1.4310  -70.7900 C.3   223  ALA223      0.0304
    106  N         -5.9530   -1.2620  -72.1890 N.am  224  MET224     -0.1979
    107  CA        -5.7170   -2.7060  -72.1370 C.3   224  MET224      0.1605
    108  C         -4.3590   -3.1580  -72.7080 C.2   224  MET224      0.2287
    109  O         -4.0110   -4.3500  -72.5800 O.2   224  MET224     -0.2864
    110  CB        -6.8250   -3.4680  -72.8950 C.3   224  MET224      0.0413
    111  CG        -8.1890   -3.4430  -72.2380 C.3   224  MET224      0.0598
    112  SD        -8.2240   -3.8690  -70.4850 S.3   224  MET224     -0.1393
    113  CE        -7.9040   -5.6100  -70.6120 C.3   224  MET224      0.0692
    114  N         -0.8250   -4.0020  -72.4630 N.3   226  PHE226     -0.1241
    115  CA         0.1920   -4.2580  -71.4070 C.3   226  PHE226      0.1605
    116  C          0.8250   -5.6710  -71.6270 C.2   226  PHE226      0.2264
    117  O          0.3880   -6.6700  -71.0380 O.2   226  PHE226     -0.2867
    118  CB        -0.4300   -4.1010  -69.9850 C.3   226  PHE226      0.0534
    119  CG         0.5560   -3.7570  -68.8900 C.ar  226  PHE226     -0.0203
    120  CD1        1.5650   -4.6460  -68.5100 C.ar  226  PHE226     -0.0042
    121  CD2        0.4580   -2.5350  -68.1980 C.ar  226  PHE226     -0.0042
    122  CE1        2.4700   -4.3230  -67.4840 C.ar  226  PHE226     -0.0003
    123  CE2        1.3450   -2.2080  -67.1950 C.ar  226  PHE226     -0.0003
    124  CZ         2.3540   -3.0970  -66.8290 C.ar  226  PHE226     -0.0000
    125  N          0.3460   -9.4570  -71.5160 N.3   229  PHE229     -0.1228
    126  CA        -1.0440   -9.7810  -71.3120 C.3   229  PHE229      0.1721
    127  C         -1.7170   -9.5640  -72.6400 C.2   229  PHE229      0.2437
    128  O         -1.2410   -8.7250  -73.4390 O.2   229  PHE229     -0.2733
    129  CB        -1.7390   -8.8870  -70.2780 C.3   229  PHE229      0.0547
    130  CG        -1.2500   -9.0890  -68.8780 C.ar  229  PHE229     -0.0202
    131  CD1       -1.5580  -10.2850  -68.1850 C.ar  229  PHE229     -0.0042
    132  CD2       -0.5000   -8.1010  -68.2330 C.ar  229  PHE229     -0.0042
    133  CE1       -1.1170  -10.4870  -66.8920 C.ar  229  PHE229     -0.0003
    134  CE2       -0.0630   -8.2970  -66.9330 C.ar  229  PHE229     -0.0003
    135  CZ        -0.3720   -9.4940  -66.2640 C.ar  229  PHE229     -0.0000
    136  N         -2.8500  -10.2740  -72.8580 N.am  230  PRO230     -0.2729
    137  CA        -3.6350  -10.0600  -74.0670 C.3   230  PRO230      0.1401
    138  C         -4.1560   -8.6130  -74.1980 C.2   230  PRO230      0.2269
    139  O         -4.5100   -7.9970  -73.1890 O.2   230  PRO230     -0.2865
    140  CB        -4.8140  -11.0380  -73.9070 C.3   230  PRO230      0.0296
    141  CG        -4.4190  -12.0120  -72.8420 C.3   230  PRO230      0.0237
    142  CD        -3.4720  -11.2710  -71.9550 C.3   230  PRO230      0.0939
@<TRIPOS>BOND
     1   138   137    1
     2   138   139    2
     3   137   140    1
     4   137   136    1
     5   140   141    1
     6   128   127    2
     7   110   111    1
     8   110   107    1
     9   136   127   am
    10   136   142    1
    11   101   102    1
    12   141   142    1
    13   108   109    2
    14   108   107    1
    15   127   126    1
    16   114   115    1
    17   111   112    1
    18   106   107    1
    19   106   103   am
    20   116   115    1
    21   116   117    2
    22   125   126    1
    23   102   103    1
    24   102   105    1
    25   115   118    1
    26   126   129    1
    27   103   104    2
    28    66    67    1
    29   113   112    1
    30   129   130    1
    31   118   119    1
    32    67    68    1
    33    67    70    1
    34    68    69    2
    35   119   120   ar
    36   119   121   ar
    37   130   132   ar
    38   130   131   ar
    39   120   122   ar
    40   100    98    1
    41   132   134   ar
    42   121   123   ar
    43   131   133   ar
    44    64    63    2
    45   122   124   ar
    46    98    99    1
    47    98    97    1
    48   123   124   ar
    49   134   135   ar
    50    62    63    1
    51    62    65    1
    52    62    61    1
    53    71    72    1
    54   133   135   ar
    55    57    56    2
    56    97    94    1
    57    75    72    1
    58    75    76    1
    59    56    61   am
    60    56    55    1
    61    96    95    2
    62    72    73    1
    63    95    94    1
    64    73    74    2
    65    60    58    1
    66    58    55    1
    67    58    59    1
    68    77    76   ar
    69    77    79   ar
    70    94    93    1
    71    76    78   ar
    72    55    54    1
    73    79    81   ar
    74    78    80   ar
    75    51    50    2
    76    54    50   am
    77    43    42    2
    78    46    45    2
    79    50    49    1
    80    81    80   ar
    81     6     7    1
    82     6     5    1
    83    44    45    1
    84    44    41    1
    85    45    47   am
    86     7     8    1
    87    42    41    1
    88    42    48   am
    89    41    40    1
    90     8     9    2
    91     1     2    1
    92    11     9    1
    93     2     5    1
    94     2     3    1
    95     9    10    1
    96    49    48    1
    97    49    52    1
    98    85    84    2
    99    40    35   am
   100    52    53    1
   101     3     4    2
   102    36    35    2
   103    84    83    1
   104    35    34    1
   105    20    18   ar
   106    20    21   ar
   107    83    82    1
   108    83    86    1
   109    32    30    1
   110    34    37    1
   111    34    33    1
   112    38    37    1
   113    18    17   ar
   114    37    39    1
   115    31    30    1
   116    21    19   ar
   117    30    29    2
   118    86    87    1
   119    17    19   ar
   120    17    16    1
   121    29    28    1
   122    87    88    1
   123    16    13    1
   124    28    27    1
   125    89    88    1
   126    89    90    2
   127    92    90    1
   128    27    26    1
   129    90    91    1
   130    13    14    1
   131    13    12    1
   132    15    14    2
   133    26    23    1
   134    23    22    1
   135    23    24    1
   136    25    24    2
