@<TRIPOS>MOLECULE
tmp/5vytD00.pdb
 137 131 0 0 0
SMALL
GASTEIGER

@<TRIPOS>ATOM
      1  N         24.6830    3.5740  -73.5110 N.3    83  SER83      -0.1217
      2  CA        25.5340    2.6990  -72.7300 C.3    83  SER83       0.1889
      3  C         25.3020    2.9650  -71.2520 C.2    83  SER83       0.2288
      4  O         25.5200    4.0780  -70.7770 O.2    83  SER83      -0.2866
      5  CB        26.9950    2.9200  -73.0650 C.3    83  SER83       0.2089
      6  OG        27.8040    2.0810  -72.2520 O.3    83  SER83      -0.2183
      7  N         27.6230   -0.9410  -69.4270 N.3    86  TYR86      -0.1227
      8  CA        28.0250   -2.0340  -70.2990 C.3    86  TYR86       0.1736
      9  C         29.4950   -2.2730  -69.9580 C.2    86  TYR86       0.2595
     10  O         30.1920   -1.3340  -69.7310 O.2    86  TYR86      -0.2718
     11  CB        27.7840   -1.6650  -71.7830 C.3    86  TYR86       0.0548
     12  CG        27.9420   -2.8360  -72.7510 C.ar   86  TYR86      -0.0200
     13  CD1       28.9890   -2.8770  -73.6650 C.ar   86  TYR86      -0.0009
     14  CD2       27.0610   -3.9220  -72.7300 C.ar   86  TYR86      -0.0009
     15  CE1       29.1620   -3.9600  -74.5250 C.ar   86  TYR86       0.0417
     16  CE2       27.2330   -5.0190  -73.6000 C.ar   86  TYR86       0.0417
     17  CZ        28.3010   -5.0370  -74.4840 C.ar   86  TYR86       0.1957
     18  OH        28.4690   -6.0980  -75.3490 O.3    86  TYR86      -0.2866
     19  N         29.9570   -3.5210  -69.9830 N.am   87  ARG87      -0.1966
     20  CA        31.2520   -3.9450  -69.3950 C.3    87  ARG87       0.1729
     21  C         32.3370   -4.2700  -70.4290 C.2    87  ARG87       0.2617
     22  O         33.3550   -4.8720  -70.0910 O.2    87  ARG87      -0.2715
     23  CB        31.0330   -5.1820  -68.5310 C.3    87  ARG87       0.0348
     24  CG        30.1210   -4.9420  -67.3420 C.3    87  ARG87       0.0492
     25  CD        29.7770   -6.2340  -66.6210 C.3    87  ARG87       0.2205
     26  NE        30.8080   -6.6440  -65.6830 N.pl3  87  ARG87      -0.0865
     27  CZ        31.0660   -6.0600  -64.5070 C.cat  87  ARG87       0.5346
     28  NH1       30.4030   -4.9890  -64.0710 N.pl3  87  ARG87       0.1354
     29  NH2       32.0430   -6.5410  -63.7500 N.pl3  87  ARG87       0.1354
     30  N         32.1120   -3.8800  -71.6930 N.am   88  SER88      -0.1936
     31  CA        33.0000   -4.1910  -72.8270 C.3    88  SER88       0.2055
     32  C         33.1580   -3.0030  -73.7150 C.2    88  SER88       0.2643
     33  O         32.2830   -2.1640  -73.8100 O.2    88  SER88      -0.2714
     34  CB        32.4440   -5.3080  -73.6830 C.3    88  SER88       0.2130
     35  OG        32.1980   -6.4430  -72.9070 O.3    88  SER88      -0.2179
     36  N         34.2880   -2.9430  -74.3900 N.am   89  LEU89      -0.1963
     37  CA        34.4960   -1.9230  -75.3870 C.3    89  LEU89       0.1728
     38  C         33.5970   -2.2370  -76.6000 C.2    89  LEU89       0.2616
     39  O         33.5910   -3.3560  -77.1130 O.2    89  LEU89      -0.2715
     40  CB        35.9820   -1.8650  -75.7770 C.3    89  LEU89       0.0311
     41  CG        36.3270   -0.7520  -76.7710 C.3    89  LEU89       0.0022
     42  CD1       36.2570    0.6370  -76.1160 C.3    89  LEU89       0.0001
     43  CD2       37.7030   -1.0420  -77.3720 C.3    89  LEU89       0.0001
     44  N         32.8900   -1.2210  -77.0730 N.am   90  ILE90      -0.1977
     45  CA        31.9580   -1.3440  -78.1920 C.3    90  ILE90       0.1596
     46  C         32.6870   -0.8830  -79.4480 C.2    90  ILE90       0.2287
     47  O         33.1660    0.2500  -79.4830 O.2    90  ILE90      -0.2864
     48  CB        30.6890   -0.4990  -78.0030 C.3    90  ILE90       0.0276
     49  CG1       29.9170   -1.0120  -76.7790 C.3    90  ILE90       0.0022
     50  CG2       29.8220   -0.5650  -79.2470 C.3    90  ILE90       0.0022
     51  CD1       28.7820   -0.1040  -76.3380 C.3    90  ILE90       0.0001
     52  N         29.1730    1.5140  -83.2970 N.3    95  LEU95      -0.1245
     53  CA        28.7730    2.8710  -82.9420 C.3    95  LEU95       0.1561
     54  C         28.3820    3.6790  -84.1610 C.2    95  LEU95       0.2260
     55  O         27.4690    4.4960  -84.0960 O.2    95  LEU95      -0.2867
     56  CB        29.8990    3.5790  -82.1690 C.3    95  LEU95       0.0270
     57  CG        30.1100    3.0440  -80.7520 C.3    95  LEU95       0.0019
     58  CD1       31.2520    3.8230  -80.1240 C.3    95  LEU95       0.0001
     59  CD2       28.8380    3.1210  -79.8870 C.3    95  LEU95       0.0001
     60  N         27.0730    7.5760  -72.9190 N.3   104  ASN104     -0.1225
     61  CA        27.4840    6.6530  -71.8600 C.3   104  ASN104      0.1785
     62  C         27.4390    7.3450  -70.5130 C.2   104  ASN104      0.2597
     63  O         27.7470    8.5110  -70.4480 O.2   104  ASN104     -0.2718
     64  CB        28.8840    6.1240  -72.1490 C.3   104  ASN104      0.1169
     65  CG        29.4600    5.3300  -70.9900 C.2   104  ASN104      0.2627
     66  OD1       30.3020    5.8450  -70.2200 O.2   104  ASN104     -0.2716
     67  ND2       29.0120    4.0880  -70.8530 N.am  104  ASN104     -0.0877
     68  N         27.0110    6.6290  -69.4730 N.am  105  LEU105     -0.1966
     69  CA        27.0840    7.1000  -68.0800 C.3   105  LEU105      0.1728
     70  C         28.4450    6.7900  -67.4620 C.2   105  LEU105      0.2616
     71  O         28.8140    5.6260  -67.3060 O.2   105  LEU105     -0.2715
     72  CB        26.0110    6.4220  -67.2330 C.3   105  LEU105      0.0311
     73  CG        26.0120    6.6630  -65.7310 C.3   105  LEU105      0.0022
     74  CD1       25.9930    8.1420  -65.3510 C.3   105  LEU105      0.0001
     75  CD2       24.7950    5.9470  -65.1590 C.3   105  LEU105      0.0001
     76  N         29.2130    7.8240  -67.1520 N.am  106  HIS106     -0.1973
     77  CA        30.4890    7.6420  -66.4870 C.3   106  HIS106      0.1656
     78  C         30.3990    8.2970  -65.0910 C.2   106  HIS106      0.2291
     79  O         30.0710    9.4880  -64.9880 O.2   106  HIS106     -0.2864
     80  CB        31.6720    8.2270  -67.2980 C.3   106  HIS106      0.0771
     81  CG        32.9930    7.9530  -66.6540 C.ar  106  HIS106      0.0820
     82  ND1       33.5530    6.6960  -66.6080 N.ar  106  HIS106     -0.2267
     83  CD2       33.8060    8.7520  -65.9200 C.ar  106  HIS106      0.1154
     84  CE1       34.6870    6.7400  -65.9310 C.ar  106  HIS106      0.1986
     85  NE2       34.8620    7.9800  -65.4940 N.ar  106  HIS106     -0.2212
     86  N         38.4360    3.2110  -64.8400 N.3   116  THR116     -0.1218
     87  CA        37.6110    2.3820  -63.9960 C.3   116  THR116      0.1862
     88  C         37.9380    2.6590  -62.5180 C.2   116  THR116      0.2287
     89  O         38.9090    3.3420  -62.1970 O.2   116  THR116     -0.2866
     90  CB        37.7250    0.8840  -64.4270 C.3   116  THR116      0.1770
     91  OG1       39.0690    0.5940  -64.7760 O.3   116  THR116     -0.2211
     92  CG2       36.9150    0.6050  -65.6810 C.3   116  THR116      0.0375
     93  N         28.1230   11.2960  -71.4130 N.3   135  HIS135     -0.1241
     94  CA        28.9800   11.8590  -72.4190 C.3   135  HIS135      0.1621
     95  C         28.8320   11.0690  -73.7020 C.2   135  HIS135      0.2264
     96  O         28.6490    9.8550  -73.6590 O.2   135  HIS135     -0.2867
     97  CB        30.4210   11.8410  -71.9480 C.3   135  HIS135      0.0745
     98  CG        30.9920   10.4670  -71.7690 C.ar  135  HIS135      0.0817
     99  ND1       31.6520    9.8030  -72.7740 N.ar  135  HIS135     -0.2268
    100  CD2       31.0300    9.6430  -70.6940 C.ar  135  HIS135      0.1154
    101  CE1       32.0470    8.6180  -72.3380 C.ar  135  HIS135      0.1986
    102  NE2       31.6960    8.4990  -71.0720 N.ar  135  HIS135     -0.2212
    103  N         29.5630    8.8750  -76.6960 N.3   137  MET137     -0.1230
    104  CA        30.5490    7.8300  -76.9420 C.3   137  MET137      0.1702
    105  C         31.0670    7.8860  -78.3750 C.2   137  MET137      0.2592
    106  O         30.3690    8.3460  -79.2790 O.2   137  MET137     -0.2718
    107  CB        29.9540    6.4510  -76.6510 C.3   137  MET137      0.0401
    108  CG        30.4710    5.8090  -75.3740 C.3   137  MET137      0.0596
    109  SD        29.8970    4.1120  -75.1670 S.3   137  MET137     -0.1393
    110  CE        28.3090    4.1900  -75.9910 C.3   137  MET137      0.0692
    111  N         32.2930    7.4150  -78.5750 N.am  138  ASP138     -0.1974
    112  CA        32.9060    7.4100  -79.8980 C.3   138  ASP138      0.1709
    113  C         34.3930    7.0830  -79.8150 C.2   138  ASP138      0.2293
    114  O         34.7740    5.9490  -79.5260 O.2   138  ASP138     -0.2864
    115  CB        32.7020    8.7600  -80.5880 C.3   138  ASP138      0.1436
    116  CG        33.0340    8.7140  -82.0670 C.2   138  ASP138      0.3671
    117  OD1       32.1490    8.3430  -82.8660 O.co2 138  ASP138     -0.2456
    118  OD2       34.1810    9.0500  -82.4300 O.co2 138  ASP138     -0.2456
    119  N         35.4470    7.3440  -72.8000 N.3   139  ASP139     -0.1239
    120  CA        35.3120    8.6660  -72.2000 C.3   139  ASP139      0.1674
    121  C         36.1460    9.7000  -72.9500 C.2   139  ASP139      0.2266
    122  O         37.1840   10.1450  -72.4620 O.2   139  ASP139     -0.2867
    123  CB        35.7200    8.6300  -70.7260 C.3   139  ASP139      0.1410
    124  CG        35.4200    7.2960  -70.0710 C.2   139  ASP139      0.3668
    125  OD1       34.3170    6.7550  -70.2980 O.co2 139  ASP139     -0.2456
    126  OD2       36.2860    6.7880  -69.3280 O.co2 139  ASP139     -0.2456
    127  N         42.3950   -0.8400  -64.9320 N.3   197  ARG197     -0.1245
    128  CA        41.3530   -1.7900  -64.6470 C.3   197  ARG197      0.1563
    129  C         41.4730   -2.3460  -63.2270 C.2   197  ARG197      0.2260
    130  O         40.4740   -2.6840  -62.5650 O.2   197  ARG197     -0.2867
    131  CB        41.4470   -2.8980  -65.7000 C.3   197  ARG197      0.0307
    132  CG        40.1190   -3.5280  -66.0530 C.3   197  ARG197      0.0489
    133  CD        39.7830   -3.4480  -67.5380 C.3   197  ARG197      0.2205
    134  NE        38.4010   -2.9970  -67.6600 N.pl3 197  ARG197     -0.0865
    135  CZ        37.3240   -3.7220  -67.3460 C.cat 197  ARG197      0.5346
    136  NH1       36.1120   -3.1790  -67.4740 N.pl3 197  ARG197      0.1354
    137  NH2       37.4390   -4.9810  -66.9090 N.pl3 197  ARG197      0.1354
@<TRIPOS>BOND
     1    54    55    2
     2    54    53    1
     3    52    53    1
     4    53    56    1
     5   117   116   ar
     6   118   116   ar
     7    56    57    1
     8   116   115    1
     9    57    58    1
    10    57    59    1
    11   115   112    1
    12   112   113    1
    13   112   111    1
    14   113   114    2
    15    47    46    2
    16    46    45    1
    17   106   105    2
    18    50    48    1
    19   111   105   am
    20   105   104    1
    21    45    48    1
    22    45    44    1
    23    48    49    1
    24    43    41    1
    25    39    38    2
    26    44    38   am
    27   104   103    1
    28   104   107    1
    29    49    51    1
    30    41    42    1
    31    41    40    1
    32   107   108    1
    33    38    37    1
    34   110   109    1
    35    40    37    1
    36    37    36    1
    37   108   109    1
    38    18    17    1
    39    15    17   ar
    40    15    13   ar
    41    17    16   ar
    42    36    32   am
    43    33    32    2
    44    32    31    1
    45    95    96    2
    46    95    94    1
    47    34    35    1
    48    34    31    1
    49    13    12   ar
    50    16    14   ar
    51     1     2    1
    52     5     2    1
    53     5     6    1
    54   121   122    2
    55   121   120    1
    56    60    61    1
    57    31    30    1
    58   119   120    1
    59    99   101   ar
    60    99    98   ar
    61    12    14   ar
    62    12    11    1
    63     2     3    1
    64    94    97    1
    65    94    93    1
    66   101   102   ar
    67   120   123    1
    68    64    61    1
    69    64    65    1
    70    97    98    1
    71    61    62    1
    72    11     8    1
    73    98   100   ar
    74    30    21   am
    75     3     4    2
    76   102   100   ar
    77    65    67   am
    78    65    66    2
    79   123   124    1
    80    62    63    2
    81    62    68   am
    82    21    22    2
    83    21    20    1
    84     8     9    1
    85     8     7    1
    86   125   124   ar
    87   124   126   ar
    88    19     9   am
    89    19    20    1
    90     9    10    2
    91    68    69    1
    92    20    23    1
    93    23    24    1
    94    69    70    1
    95    69    72    1
    96   134   133    1
    97   134   135    2
    98   133   132    1
    99   136   135    1
   100    70    71    2
   101    70    76   am
   102   135   137    1
   103    24    25    1
   104    80    81    1
   105    80    77    1
   106    72    73    1
   107    76    77    1
   108    81    82   ar
   109    81    83   ar
   110    25    26    1
   111    82    84   ar
   112    77    78    1
   113   132   131    1
   114    84    85   ar
   115    83    85   ar
   116    73    74    1
   117    73    75    1
   118   131   128    1
   119    26    27    2
   120    92    90    1
   121    78    79    2
   122   127   128    1
   123    86    87    1
   124    91    90    1
   125   128   129    1
   126    27    28    1
   127    27    29    1
   128    90    87    1
   129    87    88    1
   130   129   130    2
   131    88    89    2
