@<TRIPOS>MOLECULE
tmp/5vyuA01.pdb
 173 168 0 0 0
SMALL
GASTEIGER

@<TRIPOS>ATOM
      1  N        -10.2050   24.4240   26.1810 N.3    44  ARG44      -0.1245
      2  CA        -8.7750   24.7080   26.0130 C.3    44  ARG44       0.1563
      3  C         -8.5810   25.7840   24.9410 C.2    44  ARG44       0.2260
      4  O         -7.6020   26.4860   24.9900 O.2    44  ARG44      -0.2867
      5  CB        -7.9370   23.4430   25.6800 C.3    44  ARG44       0.0307
      6  CG        -8.4000   22.1130   26.2840 C.3    44  ARG44       0.0489
      7  CD        -7.2870   21.2570   26.9010 C.3    44  ARG44       0.2205
      8  NE        -5.9690   21.3020   26.2220 N.pl3  44  ARG44      -0.0865
      9  CZ        -5.3350   20.2670   25.6570 C.cat  44  ARG44       0.5346
     10  NH1       -4.1450   20.4600   25.0740 N.pl3  44  ARG44       0.1354
     11  NH2       -5.8650   19.0430   25.6360 N.pl3  44  ARG44       0.1354
     12  N         -1.9200   21.4040   16.9200 N.3    86  TYR86      -0.1227
     13  CA        -2.9630   20.9830   16.0010 C.3    86  TYR86       0.1736
     14  C         -3.1960   19.4840   16.2230 C.2    86  TYR86       0.2595
     15  O         -2.2430   18.7050   16.3880 O.2    86  TYR86      -0.2718
     16  CB        -2.5520   21.2950   14.5530 C.3    86  TYR86       0.0548
     17  CG        -3.7300   21.2690   13.6030 C.ar   86  TYR86      -0.0200
     18  CD1       -4.7090   22.2280   13.6840 C.ar   86  TYR86      -0.0009
     19  CD2       -3.8760   20.2650   12.6560 C.ar   86  TYR86      -0.0009
     20  CE1       -5.8060   22.2270   12.8310 C.ar   86  TYR86       0.0417
     21  CE2       -4.9820   20.2370   11.7890 C.ar   86  TYR86       0.0417
     22  CZ        -5.9430   21.2320   11.8900 C.ar   86  TYR86       0.1957
     23  OH        -7.0330   21.2370   11.0840 O.3    86  TYR86      -0.2866
     24  N         -4.4610   19.0860   16.1780 N.am   87  ARG87      -0.1980
     25  CA        -4.9290   17.7830   16.6820 C.3    87  ARG87       0.1597
     26  C         -5.3530   16.7970   15.6030 C.2    87  ARG87       0.2287
     27  O         -5.9740   15.7790   15.9210 O.2    87  ARG87      -0.2864
     28  CB        -6.0870   17.9930   17.6530 C.3    87  ARG87       0.0334
     29  CG        -5.6910   18.7480   18.9390 C.3    87  ARG87       0.0492
     30  CD        -6.8770   18.9580   19.8650 C.3    87  ARG87       0.2205
     31  NE        -7.1230   17.7590   20.6700 N.pl3  87  ARG87      -0.0865
     32  CZ        -6.4450   17.3920   21.7770 C.cat  87  ARG87       0.5346
     33  NH1       -5.4410   18.1230   22.2800 N.pl3  87  ARG87       0.1354
     34  NH2       -6.7800   16.2420   22.3820 N.pl3  87  ARG87       0.1354
     35  N          6.5030   19.1400   18.9510 N.3   106  HIS106     -0.1227
     36  CA         6.2170   17.8630   19.5900 C.3   106  HIS106      0.1737
     37  C          6.9270   17.7630   20.9120 C.2   106  HIS106      0.2438
     38  O          8.1360   17.9930   20.9520 O.2   106  HIS106     -0.2733
     39  CB         6.6290   16.6870   18.7260 C.3   106  HIS106      0.0758
     40  CG         6.1030   15.4060   19.2540 C.ar  106  HIS106      0.0818
     41  ND1        4.7850   15.0390   19.1040 N.ar  106  HIS106     -0.2268
     42  CD2        6.6740   14.4690   20.0430 C.ar  106  HIS106      0.1154
     43  CE1        4.5790   13.8980   19.7420 C.ar  106  HIS106      0.1986
     44  NE2        5.7090   13.5350   20.3220 N.ar  106  HIS106     -0.2212
     45  N          6.1940   17.4270   22.0010 N.am  107  PRO107     -0.2729
     46  CA         6.7650   17.4570   23.3400 C.3   107  PRO107      0.1401
     47  C          7.5520   16.1610   23.7130 C.2   107  PRO107      0.2269
     48  O          7.2740   15.5290   24.7230 O.2   107  PRO107     -0.2865
     49  CB         5.5210   17.6770   24.2270 C.3   107  PRO107      0.0296
     50  CG         4.4510   16.9330   23.5150 C.3   107  PRO107      0.0237
     51  CD         4.7420   17.1490   22.0600 C.3   107  PRO107      0.0939
     52  N          3.8180   10.2820   19.0320 N.3   115  GLY115     -0.1210
     53  CA         2.4120   10.0100   19.2330 C.3   115  GLY115      0.1956
     54  C          1.8170   10.7320   20.4190 C.2   115  GLY115      0.2613
     55  O          2.1210   11.8860   20.6390 O.2   115  GLY115     -0.2717
     56  N          1.0000   10.0230   21.1910 N.am  116  THR116     -0.1938
     57  CA         0.1830   10.6020   22.2470 C.3   116  THR116      0.2028
     58  C          0.6660   10.2530   23.6580 C.2   116  THR116      0.2642
     59  O          1.3930    9.2920   23.8450 O.2   116  THR116     -0.2714
     60  CB        -1.2800   10.1010   22.0990 C.3   116  THR116      0.1808
     61  OG1       -1.3170    8.6710   22.1130 O.3   116  THR116     -0.2208
     62  CG2       -1.8240   10.5020   20.8090 C.3   116  THR116      0.0379
     63  N          0.2020   11.0250   24.6420 N.am  117  ASN117     -0.1957
     64  CA         0.4720   10.7710   26.0630 C.3   117  ASN117      0.1819
     65  C          1.9660   10.8100   26.3880 C.2   117  ASN117      0.2622
     66  O          2.4380   10.1170   27.2730 O.2   117  ASN117     -0.2715
     67  CB        -0.1610    9.4310   26.5000 C.3   117  ASN117      0.1195
     68  CG        -1.6790    9.4930   26.5720 C.2   117  ASN117      0.2630
     69  OD1       -2.2620   10.5470   26.8240 O.2   117  ASN117     -0.2716
     70  ND2       -2.3240    8.3650   26.3590 N.am  117  ASN117     -0.0877
     71  N          2.7140   11.6550   25.6720 N.am  118  SER118     -0.1936
     72  CA         4.1660   11.5710   25.7170 C.3   118  SER118      0.2055
     73  C          4.6770   11.8630   27.0930 C.2   118  SER118      0.2643
     74  O          5.5520   11.1540   27.5600 O.2   118  SER118     -0.2714
     75  CB         4.8110   12.4970   24.7080 C.3   118  SER118      0.2130
     76  OG         4.3480   12.1740   23.4190 O.3   118  SER118     -0.2179
     77  N          4.1360   12.8920   27.7370 N.am  119  VAL119     -0.1963
     78  CA         4.5770   13.2580   29.0880 C.3   119  VAL119      0.1727
     79  C          4.2310   12.2110   30.1390 C.2   119  VAL119      0.2616
     80  O          4.9150   12.1120   31.1590 O.2   119  VAL119     -0.2715
     81  CB         4.0620   14.6520   29.5550 C.3   119  VAL119      0.0290
     82  CG1        4.6380   15.7620   28.6750 C.3   119  VAL119      0.0023
     83  CG2        2.5370   14.7160   29.5980 C.3   119  VAL119      0.0023
     84  N          3.1680   11.4460   29.9100 N.am  120  ALA120     -0.1977
     85  CA         2.7990   10.3520   30.8190 C.3   120  ALA120      0.1597
     86  C          3.7710    9.1980   30.6650 C.2   120  ALA120      0.2287
     87  O          4.2830    8.6810   31.6440 O.2   120  ALA120     -0.2864
     88  CB         1.3850    9.8830   30.5690 C.3   120  ALA120      0.0319
     89  N          5.2280   13.2870   13.0010 N.3   142  ASP142     -0.1239
     90  CA         6.3910   13.3460   13.8800 C.3   142  ASP142      0.1674
     91  C          7.6940   12.7460   13.3010 C.2   142  ASP142      0.2266
     92  O          8.6250   12.4290   14.0350 O.2   142  ASP142     -0.2867
     93  CB         6.0450   12.7150   15.2470 C.3   142  ASP142      0.1410
     94  CG         4.7480   13.2610   15.8310 C.2   142  ASP142      0.3668
     95  OD1        4.4050   14.4510   15.5790 O.co2 142  ASP142     -0.2456
     96  OD2        4.0780   12.4950   16.5430 O.co2 142  ASP142     -0.2456
     97  N          2.4750   14.2110   35.1620 N.3   160  ALA160     -0.1245
     98  CA         2.0540   14.5120   33.8090 C.3   160  ALA160      0.1562
     99  C          1.6670   16.0180   33.6560 C.2   160  ALA160      0.2260
    100  O          2.0820   16.6880   32.7190 O.2   160  ALA160     -0.2867
    101  CB         0.9120   13.6180   33.4000 C.3   160  ALA160      0.0290
    102  N          3.7080   18.6390   31.4250 N.3   164  PHE164     -0.1241
    103  CA         2.9640   19.1300   30.2770 C.3   164  PHE164      0.1605
    104  C          3.0220   20.6630   30.1330 C.2   164  PHE164      0.2264
    105  O          3.2020   21.2040   28.9900 O.2   164  PHE164     -0.2867
    106  CB         1.5050   18.6860   30.4390 C.3   164  PHE164      0.0534
    107  CG         0.5530   19.2200   29.3870 C.ar  164  PHE164     -0.0203
    108  CD1       -0.1630   20.3870   29.6090 C.ar  164  PHE164     -0.0042
    109  CD2        0.3730   18.5490   28.2200 C.ar  164  PHE164     -0.0042
    110  CE1       -1.0350   20.8890   28.6610 C.ar  164  PHE164     -0.0003
    111  CE2       -0.4990   19.0310   27.2590 C.ar  164  PHE164     -0.0003
    112  CZ        -1.2200   20.1950   27.4810 C.ar  164  PHE164     -0.0000
    113  N         -3.4010    6.2310   22.1270 N.3   200  ARG200     -0.1245
    114  CA        -4.2400    7.0890   22.9850 C.3   200  ARG200      0.1563
    115  C         -4.6820    6.4410   24.3070 C.2   200  ARG200      0.2260
    116  O         -5.2440    7.1110   25.1700 O.2   200  ARG200     -0.2867
    117  CB        -5.4760    7.5610   22.1990 C.3   200  ARG200      0.0307
    118  CG        -5.1500    8.2670   20.8740 C.3   200  ARG200      0.0489
    119  CD        -5.4350    9.7720   20.8690 C.3   200  ARG200      0.2205
    120  NE        -6.8600   10.0750   21.0600 N.pl3 200  ARG200     -0.0865
    121  CZ        -7.8370    9.8510   20.1690 C.cat 200  ARG200      0.5346
    122  NH1       -7.5900    9.2990   18.9740 N.pl3 200  ARG200      0.1354
    123  NH2       -9.0920   10.1810   20.4770 N.pl3 200  ARG200      0.1354
    124  N         -4.2860    5.1690   27.9470 N.3   202  LEU202     -0.1245
    125  CA        -3.5560    5.0440   29.1890 C.3   202  LEU202      0.1561
    126  C         -3.3080    3.5650   29.4730 C.2   202  LEU202      0.2260
    127  O         -4.1920    2.7380   29.2450 O.2   202  LEU202     -0.2867
    128  CB        -4.3270    5.6450   30.3750 C.3   202  LEU202      0.0270
    129  CG        -4.2020    7.1490   30.7050 C.3   202  LEU202      0.0019
    130  CD1       -2.8180    7.7190   30.3440 C.3   202  LEU202      0.0001
    131  CD2       -5.3350    7.9650   30.0830 C.3   202  LEU202      0.0001
    132  N          2.3050    9.9890   36.6890 N.3   223  ALA223     -0.1231
    133  CA         1.9880   10.0350   35.2480 C.3   223  ALA223      0.1694
    134  C          0.5040   10.1060   34.9790 C.2   223  ALA223      0.2591
    135  O          0.0890   10.5050   33.8860 O.2   223  ALA223     -0.2718
    136  CB         2.5380    8.8080   34.5410 C.3   223  ALA223      0.0304
    137  N         -0.2750    9.6470   35.9500 N.am  224  MET224     -0.1979
    138  CA        -1.7290    9.6910   35.8730 C.3   224  MET224      0.1605
    139  C         -2.3230   10.9630   36.4210 C.2   224  MET224      0.2287
    140  O         -3.5340   11.1810   36.2630 O.2   224  MET224     -0.2864
    141  CB        -2.3370    8.5190   36.6390 C.3   224  MET224      0.0413
    142  CG        -2.1940    7.1580   35.9650 C.3   224  MET224      0.0598
    143  SD        -2.9890    7.0640   34.3590 S.3   224  MET224     -0.1393
    144  CE        -4.7180    7.1970   34.7820 C.3   224  MET224      0.0692
    145  N         -3.4390   14.5490   36.3930 N.3   226  PHE226     -0.1241
    146  CA        -3.7340   15.5170   35.3410 C.3   226  PHE226      0.1605
    147  C         -5.1500   16.0060   35.5030 C.2   226  PHE226      0.2264
    148  O         -6.0480   15.5210   34.8260 O.2   226  PHE226     -0.2867
    149  CB        -3.5430   14.9180   33.9270 C.3   226  PHE226      0.0534
    150  CG        -3.1450   15.9430   32.9130 C.ar  226  PHE226     -0.0203
    151  CD1       -4.0640   16.8950   32.4700 C.ar  226  PHE226     -0.0042
    152  CD2       -1.8320   16.0110   32.4650 C.ar  226  PHE226     -0.0042
    153  CE1       -3.6940   17.8600   31.5780 C.ar  226  PHE226     -0.0003
    154  CE2       -1.4510   16.9780   31.5780 C.ar  226  PHE226     -0.0003
    155  CZ        -2.3840   17.9110   31.1370 C.ar  226  PHE226     -0.0000
    156  N         -8.9030   15.0570   34.9040 N.3   229  PHE229     -0.1228
    157  CA        -9.1160   13.6590   34.6010 C.3   229  PHE229      0.1721
    158  C         -9.0260   12.8560   35.8950 C.2   229  PHE229      0.2437
    159  O         -8.3320   13.2680   36.8490 O.2   229  PHE229     -0.2733
    160  CB        -8.0450   13.1120   33.6410 C.3   229  PHE229      0.0547
    161  CG        -8.0940   13.6780   32.2460 C.ar  229  PHE229     -0.0202
    162  CD1       -9.0040   13.1990   31.3170 C.ar  229  PHE229     -0.0042
    163  CD2       -7.1880   14.6660   31.8380 C.ar  229  PHE229     -0.0042
    164  CE1       -9.0210   13.6980   30.0100 C.ar  229  PHE229     -0.0003
    165  CE2       -7.2140   15.1810   30.5450 C.ar  229  PHE229     -0.0003
    166  CZ        -8.1210   14.6900   29.6220 C.ar  229  PHE229     -0.0000
    167  N         -9.6850   11.6730   35.9290 N.am  230  PRO230     -0.2729
    168  CA        -9.4780   10.8760   37.1270 C.3   230  PRO230      0.1401
    169  C         -8.0140   10.3850   37.2920 C.2   230  PRO230      0.2269
    170  O         -7.3070   10.1520   36.3000 O.2   230  PRO230     -0.2865
    171  CB       -10.4690    9.7150   36.9620 C.3   230  PRO230      0.0296
    172  CG       -11.4690   10.1720   35.9570 C.3   230  PRO230      0.0237
    173  CD       -10.6820   11.0470   35.0290 C.3   230  PRO230      0.0939
@<TRIPOS>BOND
     1    23    22    1
     2    21    22   ar
     3    21    19   ar
     4    22    20   ar
     5    19    17   ar
     6    20    18   ar
     7    89    90    1
     8    91    90    1
     9    91    92    2
    10    17    18   ar
    11    17    16    1
    12    90    93    1
    13    16    13    1
    14    93    94    1
    15    95    94   ar
    16    26    27    2
    17    26    25    1
    18    94    96   ar
    19    13    14    1
    20    13    12    1
    21    24    14   am
    22    24    25    1
    23    14    15    2
    24    25    28    1
    25    28    29    1
    26    39    40    1
    27    39    36    1
    28    29    30    1
    29    35    36    1
    30   122   121    1
    31    52    53    1
    32    41    40   ar
    33    41    43   ar
    34    53    54    1
    35    40    42   ar
    36    36    37    1
    37    43    44   ar
    38    30    31    1
    39    42    44   ar
    40   121   123    1
    41   121   120    2
    42    54    55    2
    43    54    56   am
    44    31    32    2
    45    62    60    1
    46   119   118    1
    47   119   120    1
    48   118   117    1
    49    37    38    2
    50    37    45   am
    51    56    57    1
    52    32    33    1
    53    32    34    1
    54    45    51    1
    55    45    46    1
    56    51    50    1
    57    60    61    1
    58    60    57    1
    59   113   114    1
    60   117   114    1
    61    57    58    1
    62   114   115    1
    63    46    47    1
    64    46    49    1
    65    76    75    1
    66    50    49    1
    67    58    59    2
    68    58    63   am
    69    47    48    2
    70   115   116    2
    71    63    64    1
    72    75    72    1
    73     3     4    2
    74     3     2    1
    75    10     9    1
    76    11     9    1
    77     9     8    2
    78    71    72    1
    79    71    65   am
    80     5     2    1
    81     5     6    1
    82    72    73    1
    83     2     1    1
    84    64    65    1
    85    64    67    1
    86     8     7    1
    87     6     7    1
    88    70    68   am
    89    65    66    2
    90    67    68    1
    91    68    69    2
    92    73    74    2
    93    73    77   am
    94   111   112   ar
    95   111   109   ar
    96   112   110   ar
    97    77    78    1
    98   124   125    1
    99   109   107   ar
   100   110   108   ar
   101    82    81    1
   102   105   104    2
   103    78    81    1
   104    78    79    1
   105   125   126    1
   106   125   128    1
   107   127   126    2
   108   107   108   ar
   109   107   106    1
   110    81    83    1
   111   166   164   ar
   112   166   165   ar
   113    84    79   am
   114    84    85    1
   115   164   162   ar
   116   131   129    1
   117   104   103    1
   118    79    80    2
   119   103   106    1
   120   103   102    1
   121   130   129    1
   122   128   129    1
   123   165   163   ar
   124    88    85    1
   125    86    85    1
   126    86    87    2
   127   155   154   ar
   128   155   153   ar
   129   162   161   ar
   130   154   152   ar
   131   153   151   ar
   132   163   161   ar
   133   161   160    1
   134   152   150   ar
   135   151   150   ar
   136   100    99    2
   137   150   149    1
   138   101    98    1
   139   160   157    1
   140    99    98    1
   141    98    97    1
   142   135   134    2
   143   149   146    1
   144   143   144    1
   145   143   142    1
   146   136   133    1
   147   157   156    1
   148   157   158    1
   149   148   147    2
   150   134   133    1
   151   134   137   am
   152   173   167    1
   153   173   172    1
   154   133   132    1
   155   146   147    1
   156   146   145    1
   157   138   137    1
   158   138   139    1
   159   138   141    1
   160   158   167   am
   161   158   159    2
   162   167   168    1
   163   172   171    1
   164   142   141    1
   165   140   139    2
   166   170   169    2
   167   171   168    1
   168   168   169    1
