@<TRIPOS>MOLECULE
tmp/5vyuA00.pdb
 169 166 0 0 0
SMALL
GASTEIGER

@<TRIPOS>ATOM
      1  N          2.3860   24.4270   12.9790 N.3    83  SER83      -0.1217
      2  CA         1.4510   23.5980   13.7260 C.3    83  SER83       0.1889
      3  C          1.7910   23.7150   15.1900 C.2    83  SER83       0.2288
      4  O          2.9150   23.4270   15.5850 O.2    83  SER83      -0.2866
      5  CB         1.5170   22.1600   13.3160 C.3    83  SER83       0.2089
      6  OG         0.8780   21.3800   14.3130 O.3    83  SER83      -0.2183
      7  N          0.1230   22.5140   18.4330 N.3    85  HIS85      -0.1226
      8  CA        -0.8430   21.6010   19.0760 C.3    85  HIS85       0.1752
      9  C         -2.0810   21.3330   18.2330 C.2    85  HIS85       0.2596
     10  O         -3.1360   21.0450   18.7380 O.2    85  HIS85      -0.2718
     11  CB        -1.2020   22.0540   20.4940 C.3    85  HIS85       0.0759
     12  CG        -0.1150   21.8320   21.4970 C.ar   85  HIS85       0.0818
     13  ND1       -0.3640   21.7880   22.8520 N.ar   85  HIS85      -0.2268
     14  CD2        1.2270   21.6740   21.3470 C.ar   85  HIS85       0.1154
     15  CE1        0.7750   21.6080   23.5000 C.ar   85  HIS85       0.1986
     16  NE2        1.7580   21.5500   22.6080 N.ar   85  HIS85      -0.2212
     17  N         -1.9200   21.4040   16.9200 N.am   86  TYR86      -0.1962
     18  CA        -2.9630   20.9830   16.0010 C.3    86  TYR86       0.1771
     19  C         -3.1960   19.4840   16.2230 C.2    86  TYR86       0.2619
     20  O         -2.2430   18.7050   16.3880 O.2    86  TYR86      -0.2715
     21  CB        -2.5520   21.2950   14.5530 C.3    86  TYR86       0.0574
     22  CG        -3.7300   21.2690   13.6030 C.ar   86  TYR86      -0.0198
     23  CD1       -4.7090   22.2280   13.6840 C.ar   86  TYR86      -0.0009
     24  CD2       -3.8760   20.2650   12.6560 C.ar   86  TYR86      -0.0009
     25  CE1       -5.8060   22.2270   12.8310 C.ar   86  TYR86       0.0417
     26  CE2       -4.9820   20.2370   11.7890 C.ar   86  TYR86       0.0417
     27  CZ        -5.9430   21.2320   11.8900 C.ar   86  TYR86       0.1957
     28  OH        -7.0330   21.2370   11.0840 O.3    86  TYR86      -0.2866
     29  N         -4.4610   19.0860   16.1780 N.am   87  ARG87      -0.1963
     30  CA        -4.9290   17.7830   16.6820 C.3    87  ARG87       0.1729
     31  C         -5.3530   16.7970   15.6030 C.2    87  ARG87       0.2617
     32  O         -5.9740   15.7790   15.9210 O.2    87  ARG87      -0.2715
     33  CB        -6.0870   17.9930   17.6530 C.3    87  ARG87       0.0348
     34  CG        -5.6910   18.7480   18.9390 C.3    87  ARG87       0.0492
     35  CD        -6.8770   18.9580   19.8650 C.3    87  ARG87       0.2205
     36  NE        -7.1230   17.7590   20.6700 N.pl3  87  ARG87      -0.0865
     37  CZ        -6.4450   17.3920   21.7770 C.cat  87  ARG87       0.5346
     38  NH1       -5.4410   18.1230   22.2800 N.pl3  87  ARG87       0.1354
     39  NH2       -6.7800   16.2420   22.3820 N.pl3  87  ARG87       0.1354
     40  N         -5.0030   17.0810   14.3360 N.am   88  SER88      -0.1936
     41  CA        -5.2540   16.1930   13.2110 C.3    88  SER88       0.2055
     42  C         -3.9900   16.0660   12.3840 C.2    88  SER88       0.2643
     43  O         -3.1060   16.9170   12.4710 O.2    88  SER88      -0.2714
     44  CB        -6.3430   16.7530   12.3250 C.3    88  SER88       0.2130
     45  OG        -7.4930   17.0570   13.0740 O.3    88  SER88      -0.2179
     46  N         -3.9100   14.9970   11.5880 N.am   89  LEU89      -0.1963
     47  CA        -2.8510   14.8550   10.6020 C.3    89  LEU89       0.1728
     48  C         -3.1540   15.7870    9.4480 C.2    89  LEU89       0.2616
     49  O         -4.2770   15.7940    8.9380 O.2    89  LEU89      -0.2715
     50  CB        -2.8210   13.4330   10.0710 C.3    89  LEU89       0.0311
     51  CG        -1.5930   13.0530    9.2710 C.3    89  LEU89       0.0022
     52  CD1       -0.3770   12.8240   10.1580 C.3    89  LEU89       0.0001
     53  CD2       -1.9260   11.7850    8.4910 C.3    89  LEU89       0.0001
     54  N         -2.1820   16.5930    9.0410 N.am   90  ILE90      -0.1977
     55  CA        -2.3950   17.5320    7.9480 C.3    90  ILE90       0.1596
     56  C         -2.0010   16.8710    6.6420 C.2    90  ILE90       0.2287
     57  O         -0.9240   16.3600    6.5190 O.2    90  ILE90      -0.2864
     58  CB        -1.6240   18.8310    8.1490 C.3    90  ILE90       0.0276
     59  CG1       -2.0920   19.5050    9.4450 C.3    90  ILE90       0.0022
     60  CG2       -1.8530   19.7540    6.9470 C.3    90  ILE90       0.0022
     61  CD1       -0.9840   20.2250   10.1580 C.3    90  ILE90       0.0001
     62  N          0.2200   20.7850    3.0480 N.3    95  LEU95      -0.1245
     63  CA         1.5740   21.2040    3.3740 C.3    95  LEU95       0.1561
     64  C          2.3180   21.7080    2.1370 C.2    95  LEU95       0.2260
     65  O          2.9880   22.7030    2.1380 O.2    95  LEU95      -0.2867
     66  CB         2.3360   20.0100    3.9590 C.3    95  LEU95       0.0270
     67  CG         1.8350   19.4690    5.3120 C.3    95  LEU95       0.0019
     68  CD1        2.4360   18.0750    5.5960 C.3    95  LEU95       0.0001
     69  CD2        2.1330   20.4900    6.4120 C.3    95  LEU95       0.0001
     70  N          6.1770   21.7660   13.3450 N.3   104  ASN104     -0.1225
     71  CA         5.2830   21.3110   14.3580 C.3   104  ASN104      0.1785
     72  C          6.0630   21.2360   15.6270 C.2   104  ASN104      0.2597
     73  O          7.2490   20.9050   15.6050 O.2   104  ASN104     -0.2718
     74  CB         4.7750   19.9240   13.9850 C.3   104  ASN104      0.1169
     75  CG         3.9690   19.2780   15.0690 C.2   104  ASN104      0.2627
     76  OD1        4.4290   18.3580   15.7260 O.2   104  ASN104     -0.2716
     77  ND2        2.7870   19.7240   15.2520 N.am  104  ASN104     -0.0877
     78  N          5.3880   21.5480   16.7270 N.am  105  LEU105     -0.1966
     79  CA         5.9260   21.3460   18.0690 C.3   105  LEU105      0.1728
     80  C          5.5270   19.9810   18.6510 C.2   105  LEU105      0.2616
     81  O          4.3500   19.7190   18.8870 O.2   105  LEU105     -0.2715
     82  CB         5.4360   22.4580   18.9860 C.3   105  LEU105      0.0311
     83  CG         5.7450   22.2940   20.4930 C.3   105  LEU105      0.0022
     84  CD1        7.2140   22.0000   20.8020 C.3   105  LEU105      0.0001
     85  CD2        5.2620   23.5500   21.2190 C.3   105  LEU105      0.0001
     86  N          6.5030   19.1400   18.9510 N.am  106  HIS106     -0.1973
     87  CA         6.2170   17.8630   19.5900 C.3   106  HIS106      0.1656
     88  C          6.9270   17.7630   20.9120 C.2   106  HIS106      0.2291
     89  O          8.1360   17.9930   20.9520 O.2   106  HIS106     -0.2864
     90  CB         6.6290   16.6870   18.7260 C.3   106  HIS106      0.0771
     91  CG         6.1030   15.4060   19.2540 C.ar  106  HIS106      0.0820
     92  ND1        4.7850   15.0390   19.1040 N.ar  106  HIS106     -0.2267
     93  CD2        6.6740   14.4690   20.0430 C.ar  106  HIS106      0.1154
     94  CE1        4.5790   13.8980   19.7420 C.ar  106  HIS106      0.1986
     95  NE2        5.7090   13.5350   20.3220 N.ar  106  HIS106     -0.2212
     96  N          9.8940   20.3110   14.5500 N.3   135  HIS135     -0.1241
     97  CA        10.3130   19.6200   13.3290 C.3   135  HIS135      0.1621
     98  C          9.4220   19.9080   12.1420 C.2   135  HIS135      0.2264
     99  O          8.2330   20.1870   12.2940 O.2   135  HIS135     -0.2867
    100  CB        10.2960   18.1300   13.5530 C.3   135  HIS135      0.0745
    101  CG         8.9380   17.6030   13.8250 C.ar  135  HIS135      0.0817
    102  ND1        8.0950   17.1750   12.8200 N.ar  135  HIS135     -0.2268
    103  CD2        8.2540   17.4750   14.9770 C.ar  135  HIS135      0.1154
    104  CE1        6.9510   16.8000   13.3490 C.ar  135  HIS135      0.1986
    105  NE2        7.0220   16.9690   14.6580 N.ar  135  HIS135     -0.2212
    106  N          7.0410   19.1610    9.0940 N.3   137  MET137     -0.1230
    107  CA         6.0270   18.1500    8.8920 C.3   137  MET137      0.1702
    108  C          6.1550   17.5390    7.5000 C.2   137  MET137      0.2592
    109  O          6.0940   18.2390    6.4880 O.2   137  MET137     -0.2718
    110  CB         4.6180   18.7120    9.1070 C.3   137  MET137      0.0401
    111  CG         4.3480   19.0850   10.5690 C.3   137  MET137      0.0596
    112  SD         2.6630   19.6830   10.7510 S.3   137  MET137     -0.1393
    113  CE         2.7720   21.2970    9.9610 C.3   137  MET137      0.0692
    114  N          6.3630   16.2250    7.4690 N.am  138  ASP138     -0.1960
    115  CA         6.1290   15.4760    6.2390 C.3   138  ASP138      0.1840
    116  C          4.7600   14.7910    6.3700 C.2   138  ASP138      0.2622
    117  O          4.0230   15.0640    7.3040 O.2   138  ASP138     -0.2715
    118  CB         7.2950   14.5350    5.9150 C.3   138  ASP138      0.1450
    119  CG         7.4950   13.5090    6.9400 C.2   138  ASP138      0.3671
    120  OD1        6.4800   13.0650    7.4820 O.co2 138  ASP138     -0.2456
    121  OD2        8.6650   13.1600    7.2170 O.co2 138  ASP138     -0.2456
    122  N          4.4020   13.9150    5.4480 N.am  139  GLU139     -0.1963
    123  CA         3.0100   13.4820    5.4050 C.3   139  GLU139      0.1733
    124  C          2.6320   12.4740    6.5010 C.2   139  GLU139      0.2616
    125  O          1.4480   12.3170    6.7960 O.2   139  GLU139     -0.2715
    126  CB         2.6230   13.0300    3.9940 C.3   139  GLU139      0.0429
    127  CG         3.1250   11.6710    3.6020 C.3   139  GLU139      0.1163
    128  CD         2.6630   11.2810    2.2140 C.2   139  GLU139      0.3649
    129  OE1        1.5270   11.6950    1.8020 O.co2 139  GLU139     -0.2457
    130  OE2        3.4450   10.5420    1.5570 O.co2 139  GLU139     -0.2457
    131  N          3.6370   11.8340    7.1070 N.am  140  ASN140     -0.1958
    132  CA         3.4710   11.0700    8.3560 C.3   140  ASN140      0.1819
    133  C          3.7440   11.9260    9.5880 C.2   140  ASN140      0.2621
    134  O          4.3280   12.9980    9.5060 O.2   140  ASN140     -0.2715
    135  CB         4.3880    9.8460    8.3790 C.3   140  ASN140      0.1195
    136  CG         4.1760    8.9290    7.1750 C.2   140  ASN140      0.2630
    137  OD1        3.2800    9.1540    6.3570 O.2   140  ASN140     -0.2716
    138  ND2        5.0120    7.9040    7.0560 N.am  140  ASN140     -0.0877
    139  N          3.3200   11.4290   10.7370 N.am  141  ALA141     -0.1963
    140  CA         3.3060   12.2090   11.9520 C.3   141  ALA141      0.1728
    141  C          4.6610   12.1370   12.6560 C.2   141  ALA141      0.2616
    142  O          5.2020   11.0540   12.8550 O.2   141  ALA141     -0.2715
    143  CB         2.1920   11.7120   12.8530 C.3   141  ALA141      0.0334
    144  N          5.2280   13.2870   13.0010 N.am  142  ASP142     -0.1957
    145  CA         6.3910   13.3460   13.8800 C.3   142  ASP142      0.1840
    146  C          7.6940   12.7460   13.3010 C.2   142  ASP142      0.2622
    147  O          8.6250   12.4290   14.0350 O.2   142  ASP142     -0.2715
    148  CB         6.0450   12.7150   15.2470 C.3   142  ASP142      0.1450
    149  CG         4.7480   13.2610   15.8310 C.2   142  ASP142      0.3671
    150  OD1        4.4050   14.4510   15.5790 O.co2 142  ASP142     -0.2456
    151  OD2        4.0780   12.4950   16.5430 O.co2 142  ASP142     -0.2456
    152  N          7.7650   12.6200   11.9830 N.am  143  THR143     -0.1951
    153  CA         8.9070   11.9780   11.3200 C.3   143  THR143      0.1897
    154  C          9.8310   12.9610   10.6080 C.2   143  THR143      0.2313
    155  O         10.9730   12.6080   10.2740 O.2   143  THR143     -0.2863
    156  CB         8.3980   10.9960   10.2770 C.3   143  THR143      0.1794
    157  OG1        7.3190   11.6100    9.5680 O.3   143  THR143     -0.2208
    158  CG2        7.9210    9.7250   10.9410 C.3   143  THR143      0.0378
    159  N         -3.4010    6.2310   22.1270 N.3   200  ARG200     -0.1245
    160  CA        -4.2400    7.0890   22.9850 C.3   200  ARG200      0.1563
    161  C         -4.6820    6.4410   24.3070 C.2   200  ARG200      0.2260
    162  O         -5.2440    7.1110   25.1700 O.2   200  ARG200     -0.2867
    163  CB        -5.4760    7.5610   22.1990 C.3   200  ARG200      0.0307
    164  CG        -5.1500    8.2670   20.8740 C.3   200  ARG200      0.0489
    165  CD        -5.4350    9.7720   20.8690 C.3   200  ARG200      0.2205
    166  NE        -6.8600   10.0750   21.0600 N.pl3 200  ARG200     -0.0865
    167  CZ        -7.8370    9.8510   20.1690 C.cat 200  ARG200      0.5346
    168  NH1       -7.5900    9.2990   18.9740 N.pl3 200  ARG200      0.1354
    169  NH2       -9.0920   10.1810   20.4770 N.pl3 200  ARG200      0.1354
@<TRIPOS>BOND
     1   130   128   ar
     2   129   128   ar
     3    64    65    2
     4    64    63    1
     5   128   127    1
     6    62    63    1
     7    63    66    1
     8   127   126    1
     9    66    67    1
    10   126   123    1
    11    67    68    1
    12    67    69    1
    13   123   122    1
    14   123   124    1
    15   122   116   am
    16   118   115    1
    17   118   119    1
    18   115   116    1
    19   115   114    1
    20   137   136    2
    21   116   117    2
    22   109   108    2
    23   124   125    2
    24   124   131   am
    25    57    56    2
    26    56    55    1
    27   119   121   ar
    28   119   120   ar
    29    60    58    1
    30   138   136   am
    31   131   132    1
    32   136   135    1
    33   114   108   am
    34   108   107    1
    35    55    58    1
    36    55    54    1
    37    58    59    1
    38   132   135    1
    39   132   133    1
    40    53    51    1
    41   107   106    1
    42   107   110    1
    43    49    48    2
    44    54    48   am
    45   110   111    1
    46    51    50    1
    47    51    52    1
    48    59    61    1
    49    48    47    1
    50   134   133    2
    51   157   156    1
    52   133   139   am
    53   113   112    1
    54    50    47    1
    55   155   154    2
    56   156   158    1
    57   156   153    1
    58   111   112    1
    59    47    46    1
    60   154   153    1
    61   139   140    1
    62    28    27    1
    63   153   152    1
    64    46    42   am
    65    26    27   ar
    66    26    24   ar
    67    27    25   ar
    68   140   141    1
    69   140   143    1
    70   152   146   am
    71    98    99    2
    72    98    97    1
    73    44    45    1
    74    44    41    1
    75    42    43    2
    76    42    41    1
    77    24    22   ar
    78   141   142    2
    79   141   144   am
    80   102   104   ar
    81   102   101   ar
    82    25    23   ar
    83     1     2    1
    84   144   145    1
    85    41    40    1
    86   146   145    1
    87   146   147    2
    88     5     2    1
    89     5     6    1
    90    97   100    1
    91    97    96    1
    92    70    71    1
    93   104   105   ar
    94   100   101    1
    95    22    23   ar
    96    22    21    1
    97     2     3    1
    98   101   103   ar
    99   145   148    1
   100    74    71    1
   101    74    75    1
   102    40    31   am
   103    71    72    1
   104    21    18    1
   105   105   103   ar
   106    75    77   am
   107    75    76    2
   108     3     4    2
   109   148   149    1
   110   150   149   ar
   111    31    32    2
   112    31    30    1
   113    73    72    2
   114    72    78   am
   115   149   151   ar
   116    18    19    1
   117    18    17    1
   118    29    19   am
   119    29    30    1
   120    19    20    2
   121    30    33    1
   122    78    79    1
   123    17     9   am
   124    33    34    1
   125    79    80    1
   126    79    82    1
   127     9    10    2
   128     9     8    1
   129     7     8    1
   130    80    81    2
   131    80    86   am
   132    90    91    1
   133    90    87    1
   134    34    35    1
   135    86    87    1
   136   168   167    1
   137    82    83    1
   138     8    11    1
   139    92    91   ar
   140    92    94   ar
   141    91    93   ar
   142    87    88    1
   143    94    95   ar
   144    35    36    1
   145    93    95   ar
   146   167   169    1
   147   167   166    2
   148    83    84    1
   149    83    85    1
   150    11    12    1
   151    36    37    2
   152   165   164    1
   153   165   166    1
   154   164   163    1
   155    88    89    2
   156    14    12   ar
   157    14    16   ar
   158    12    13   ar
   159    37    38    1
   160    37    39    1
   161   159   160    1
   162   163   160    1
   163    16    15   ar
   164    13    15   ar
   165   160   161    1
   166   161   162    2
