@<TRIPOS>MOLECULE
tmp/5vywA00.pdb
 139 137 0 0 0
SMALL
GASTEIGER

@<TRIPOS>ATOM
      1  N        -45.0110   60.7700   63.4740 N.3   396  TYR396     -0.1241
      2  CA       -45.9770   59.6690   63.3200 C.3   396  TYR396      0.1605
      3  C        -45.7020   58.8680   62.0630 C.2   396  TYR396      0.2264
      4  O        -45.4990   57.6570   62.1220 O.2   396  TYR396     -0.2867
      5  CB       -47.4260   60.1710   63.2670 C.3   396  TYR396      0.0534
      6  CG       -48.4140   59.0350   63.1630 C.ar  396  TYR396     -0.0201
      7  CD1      -49.0050   58.6850   61.9570 C.ar  396  TYR396     -0.0009
      8  CD2      -48.7300   58.3040   64.2680 C.ar  396  TYR396     -0.0009
      9  CE1      -49.8960   57.6310   61.8860 C.ar  396  TYR396      0.0417
     10  CE2      -49.6240   57.2560   64.2100 C.ar  396  TYR396      0.0417
     11  CZ       -50.2000   56.9090   63.0320 C.ar  396  TYR396      0.1957
     12  OH       -51.0830   55.8430   63.0530 O.3   396  TYR396     -0.2866
     13  N        -42.6950   56.7890   62.6730 N.3   399  MET399     -0.1230
     14  CA       -42.9480   55.6830   63.5810 C.3   399  MET399      0.1702
     15  C        -43.5850   54.4740   62.8770 C.2   399  MET399      0.2592
     16  O        -43.1540   53.3190   63.0220 O.2   399  MET399     -0.2718
     17  CB       -43.8630   56.1490   64.6840 C.3   399  MET399      0.0401
     18  CG       -44.1340   55.1130   65.7590 C.3   399  MET399      0.0596
     19  SD       -42.6630   54.8210   66.7230 S.3   399  MET399     -0.1393
     20  CE       -43.2690   53.9000   68.1310 C.3   399  MET399      0.0692
     21  N        -44.6210   54.7620   62.1000 N.am  400  ILE400     -0.1980
     22  CA       -45.4110   53.7200   61.4560 C.3   400  ILE400      0.1595
     23  C        -44.6290   53.1880   60.2790 C.2   400  ILE400      0.2287
     24  O        -44.7090   51.9910   59.9890 O.2   400  ILE400     -0.2864
     25  CB       -46.7950   54.2520   60.9730 C.3   400  ILE400      0.0276
     26  CG1      -47.6030   54.8590   62.1340 C.3   400  ILE400      0.0022
     27  CG2      -47.6000   53.1560   60.3130 C.3   400  ILE400      0.0022
     28  CD1      -47.5780   54.0410   63.4050 C.3   400  ILE400      0.0001
     29  N        -41.8010   50.9840   62.3470 N.3   403  ASN403     -0.1225
     30  CA       -42.2890   49.9270   63.2530 C.3   403  ASN403      0.1785
     31  C        -43.6930   49.3980   62.9290 C.2   403  ASN403      0.2598
     32  O        -44.2100   48.5750   63.6820 O.2   403  ASN403     -0.2718
     33  CB       -42.2960   50.4190   64.6960 C.3   403  ASN403      0.1169
     34  CG       -41.0840   51.2530   65.0340 C.2   403  ASN403      0.2627
     35  OD1      -41.2190   52.3500   65.6200 O.2   403  ASN403     -0.2716
     36  ND2      -39.9020   50.7620   64.6630 N.am  403  ASN403     -0.0877
     37  N        -44.3320   49.9010   61.8700 N.am  404  GLY404     -0.1942
     38  CA       -45.7010   49.5010   61.5400 C.3   404  GLY404      0.2014
     39  C        -46.7560   49.9300   62.5480 C.2   404  GLY404      0.2639
     40  O        -46.4370   50.5310   63.5800 O.2   404  GLY404     -0.2714
     41  N        -48.0090   49.5570   62.2810 N.am  405  PHE405     -0.1960
     42  CA       -49.1190   49.8930   63.1730 C.3   405  PHE405      0.1756
     43  C        -49.3800   48.7680   64.1830 C.2   405  PHE405      0.2461
     44  O        -49.2450   47.5940   63.8370 O.2   405  PHE405     -0.2730
     45  CB       -50.3200   50.1190   62.3310 C.3   405  PHE405      0.0574
     46  CG       -51.4130   50.7970   63.0440 C.ar  405  PHE405     -0.0200
     47  CD1      -52.3680   50.0620   63.7240 C.ar  405  PHE405     -0.0042
     48  CD2      -51.5290   52.1750   62.9990 C.ar  405  PHE405     -0.0042
     49  CE1      -53.4120   50.6940   64.3720 C.ar  405  PHE405     -0.0003
     50  CE2      -52.5650   52.8130   63.6510 C.ar  405  PHE405     -0.0003
     51  CZ       -53.5130   52.0740   64.3340 C.ar  405  PHE405     -0.0000
     52  N        -49.7110   49.1040   65.4390 N.am  406  PRO406     -0.2727
     53  CA       -49.7340   48.0520   66.4480 C.3   406  PRO406      0.1402
     54  C        -50.9080   47.0950   66.2720 C.2   406  PRO406      0.2269
     55  O        -52.0520   47.5370   66.0820 O.2   406  PRO406     -0.2865
     56  CB       -49.8770   48.8310   67.7620 C.3   406  PRO406      0.0296
     57  CG       -50.6470   50.0310   67.3710 C.3   406  PRO406      0.0237
     58  CD       -50.1210   50.3990   66.0080 C.3   406  PRO406      0.0939
     59  N        -60.6640   57.0370   70.8430 N.3   507  TYR507     -0.1227
     60  CA       -59.5840   57.4740   71.6840 C.3   507  TYR507      0.1736
     61  C        -58.4760   56.3570   71.6790 C.2   507  TYR507      0.2595
     62  O        -57.3950   56.4910   71.1060 O.2   507  TYR507     -0.2718
     63  CB       -60.1220   57.7160   73.1410 C.3   507  TYR507      0.0548
     64  CG       -60.8380   59.0460   73.4580 C.ar  507  TYR507     -0.0200
     65  CD1      -60.3550   60.2690   72.9600 C.ar  507  TYR507     -0.0009
     66  CD2      -61.9620   59.0920   74.3080 C.ar  507  TYR507     -0.0009
     67  CE1      -60.9790   61.4850   73.2550 C.ar  507  TYR507      0.0417
     68  CE2      -62.5970   60.3180   74.6340 C.ar  507  TYR507      0.0417
     69  CZ       -62.0990   61.5330   74.1190 C.ar  507  TYR507      0.1957
     70  OH       -62.6440   62.8070   74.4450 O.3   507  TYR507     -0.2866
     71  N        -58.7890   55.2380   72.3010 N.am  508  ARG508     -0.1966
     72  CA       -57.8410   54.1440   72.5150 C.3   508  ARG508      0.1729
     73  C        -57.0640   53.6360   71.2970 C.2   508  ARG508      0.2616
     74  O        -55.9470   53.2510   71.4650 O.2   508  ARG508     -0.2715
     75  CB       -58.5680   52.9370   73.1330 C.3   508  ARG508      0.0348
     76  CG       -57.6460   51.8750   73.6760 C.3   508  ARG508      0.0492
     77  CD       -58.3420   50.5400   73.9330 C.3   508  ARG508      0.2205
     78  NE       -58.6160   50.3080   75.3360 N.pl3 508  ARG508     -0.0865
     79  CZ       -59.7260   50.6800   75.9560 C.cat 508  ARG508      0.5346
     80  NH1      -60.6900   51.2890   75.2910 N.pl3 508  ARG508      0.1354
     81  NH2      -59.8840   50.4480   77.2570 N.pl3 508  ARG508      0.1354
     82  N        -57.6420   53.5920   70.1020 N.am  509  PHE509     -0.1974
     83  CA       -56.9990   52.9230   68.9390 C.3   509  PHE509      0.1639
     84  C        -56.8840   53.7740   67.6930 C.2   509  PHE509      0.2290
     85  O        -56.0440   53.5090   66.8480 O.2   509  PHE509     -0.2864
     86  CB       -57.7730   51.6980   68.4810 C.3   509  PHE509      0.0560
     87  CG       -57.7930   50.5580   69.4600 C.ar  509  PHE509     -0.0200
     88  CD1      -56.6880   49.7810   69.6680 C.ar  509  PHE509     -0.0042
     89  CD2      -58.9510   50.2340   70.1270 C.ar  509  PHE509     -0.0042
     90  CE1      -56.7280   48.6990   70.5520 C.ar  509  PHE509     -0.0003
     91  CE2      -58.9950   49.1500   71.0020 C.ar  509  PHE509     -0.0003
     92  CZ       -57.8770   48.3780   71.2210 C.ar  509  PHE509     -0.0000
     93  N        -56.6720   57.2530   67.9600 N.3   511  ASN511     -0.1240
     94  CA       -56.1620   58.5140   68.4610 C.3   511  ASN511      0.1653
     95  C        -56.9100   59.6810   67.7890 C.2   511  ASN511      0.2266
     96  O        -56.3010   60.5980   67.2410 O.2   511  ASN511     -0.2867
     97  CB       -54.6440   58.5410   68.2680 C.3   511  ASN511      0.1155
     98  CG       -53.9690   59.7250   68.9300 C.2   511  ASN511      0.2627
     99  OD1      -54.3140   60.0960   70.0400 O.2   511  ASN511     -0.2716
    100  ND2      -53.0060   60.3410   68.2210 N.am  511  ASN511     -0.0877
    101  N        -50.6710   60.5760   73.3900 N.3   911  MET911     -0.1245
    102  CA       -50.6310   60.3380   71.9530 C.3   911  MET911      0.1570
    103  C        -50.7590   61.6520   71.1640 C.2   911  MET911      0.2261
    104  O        -50.0820   61.8720   70.1340 O.2   911  MET911     -0.2867
    105  CB       -51.7550   59.3650   71.5440 C.3   911  MET911      0.0387
    106  CG       -51.6600   57.9570   72.0990 C.3   911  MET911      0.0595
    107  SD       -50.2000   57.0710   71.5000 S.3   911  MET911     -0.1393
    108  CE       -48.9020   57.5440   72.6550 C.3   911  MET911      0.0692
    109  N        -47.9560   62.8480   68.8560 N.3   915  PHE915     -0.1241
    110  CA       -48.2220   62.6100   67.4200 C.3   915  PHE915      0.1605
    111  C        -49.1470   63.5800   66.7260 C.2   915  PHE915      0.2264
    112  O        -49.2160   63.6260   65.4990 O.2   915  PHE915     -0.2867
    113  CB       -48.8320   61.2330   67.2540 C.3   915  PHE915      0.0534
    114  CG       -47.9030   60.1210   67.5780 C.ar  915  PHE915     -0.0203
    115  CD1      -46.7280   59.9650   66.8440 C.ar  915  PHE915     -0.0042
    116  CD2      -48.1960   59.2190   68.5920 C.ar  915  PHE915     -0.0042
    117  CE1      -45.8570   58.9410   67.1290 C.ar  915  PHE915     -0.0003
    118  CE2      -47.3380   58.1760   68.8690 C.ar  915  PHE915     -0.0003
    119  CZ       -46.1670   58.0360   68.1390 C.ar  915  PHE915     -0.0000
    120  N        -52.3530   56.5000   57.5290 N.3   926  PHE926     -0.1241
    121  CA       -52.4900   56.3470   58.9810 C.3   926  PHE926      0.1605
    122  C        -52.0890   54.9490   59.4850 C.2   926  PHE926      0.2264
    123  O        -51.6620   54.7800   60.6200 O.2   926  PHE926     -0.2867
    124  CB       -53.9370   56.7080   59.3870 C.3   926  PHE926      0.0534
    125  CG       -54.3180   56.2970   60.7950 C.ar  926  PHE926     -0.0203
    126  CD1      -54.2120   57.1690   61.8240 C.ar  926  PHE926     -0.0042
    127  CD2      -54.8370   55.0560   61.0510 C.ar  926  PHE926     -0.0042
    128  CE1      -54.5890   56.8160   63.0930 C.ar  926  PHE926     -0.0003
    129  CE2      -55.2050   54.6880   62.3260 C.ar  926  PHE926     -0.0003
    130  CZ       -55.0670   55.5720   63.3590 C.ar  926  PHE926     -0.0000
    131  N        -37.3750   49.4200   66.0680 N.3   980  GLN980     -0.1245
    132  CA       -37.5850   48.6040   67.2720 C.3   980  GLN980      0.1566
    133  C        -37.0170   47.1810   67.1940 C.2   980  GLN980      0.2260
    134  O        -37.1210   46.4720   68.1890 O.2   980  GLN980     -0.2867
    135  CB       -39.0700   48.5930   67.6700 C.3   980  GLN980      0.0367
    136  CG       -39.7120   49.9770   67.8050 C.3   980  GLN980      0.0905
    137  CD       -41.1060   49.9380   68.4350 C.2   980  GLN980      0.2608
    138  OE1      -41.9690   49.1790   67.9850 O.2   980  GLN980     -0.2717
    139  NE2      -41.3380   50.7500   69.4770 N.am  980  GLN980     -0.0878
@<TRIPOS>BOND
     1   120   121    1
     2   121   124    1
     3   121   122    1
     4   124   125    1
     5   122   123    2
     6    24    23    2
     7    23    22    1
     8    27    25    1
     9   125   127   ar
    10   125   126   ar
    11    25    22    1
    12    25    26    1
    13   127   129   ar
    14    22    21    1
    15    38    37    1
    16    38    39    1
    17   126   128   ar
    18    37    31   am
    19     9     7   ar
    20     9    11   ar
    21     7     6   ar
    22     3     4    2
    23     3     2    1
    24    21    15   am
    25    26    28    1
    26    41    39   am
    27    41    42    1
    28   129   130   ar
    29    45    46    1
    30    45    42    1
    31    29    30    1
    32    39    40    2
    33    13    14    1
    34    15    16    2
    35    15    14    1
    36    31    30    1
    37    31    32    2
    38    48    46   ar
    39    48    50   ar
    40    11    12    1
    41    11    10   ar
    42    46    47   ar
    43   128   130   ar
    44     6     5    1
    45     6     8   ar
    46    42    43    1
    47    30    33    1
    48     5     2    1
    49     2     1    1
    50    14    17    1
    51    50    51   ar
    52    47    49   ar
    53    44    43    2
    54    43    52   am
    55    10     8   ar
    56    51    49   ar
    57    36    34   am
    58    17    18    1
    59    33    34    1
    60    34    35    2
    61    52    58    1
    62    52    53    1
    63   112   111    2
    64    18    19    1
    65    58    57    1
    66   131   132    1
    67    55    54    2
    68    54    53    1
    69    53    56    1
    70    19    20    1
    71   111   110    1
    72   115   117   ar
    73   115   114   ar
    74    85    84    2
    75   117   119   ar
    76   133   132    1
    77   133   134    2
    78    96    95    2
    79   113   110    1
    80   113   114    1
    81   132   135    1
    82    57    56    1
    83   110   109    1
    84   114   116   ar
    85   135   136    1
    86    84    83    1
    87    95    94    1
    88   136   137    1
    89    93    94    1
    90   138   137    2
    91   119   118   ar
    92   100    98   am
    93    97    94    1
    94    97    98    1
    95   137   139   am
    96    86    83    1
    97    86    87    1
    98   116   118   ar
    99    98    99    2
   100    83    82    1
   101    87    88   ar
   102    87    89   ar
   103    88    90   ar
   104    82    73   am
   105    89    91   ar
   106   104   103    2
   107    90    92   ar
   108    59    60    1
   109    91    92   ar
   110    62    61    2
   111   103   102    1
   112    73    74    2
   113    73    72    1
   114   107   106    1
   115   107   108    1
   116   105   102    1
   117   105   106    1
   118    61    60    1
   119    61    71   am
   120    60    63    1
   121   102   101    1
   122    71    72    1
   123    72    75    1
   124    65    67   ar
   125    65    64   ar
   126    75    76    1
   127    63    64    1
   128    67    69   ar
   129    64    66   ar
   130    76    77    1
   131    77    78    1
   132    69    70    1
   133    69    68   ar
   134    66    68   ar
   135    80    79    1
   136    78    79    2
   137    79    81    1
