@<TRIPOS>MOLECULE
tmp/5vyyA00.pdb
 163 151 0 0 0
SMALL
GASTEIGER

@<TRIPOS>ATOM
      1  N         -4.3790  -36.1090   -4.4940 N.3    33  LEU33      -0.1245
      2  CA        -4.8800  -35.2110   -3.4640 C.3    33  LEU33       0.1561
      3  C         -6.2370  -35.6580   -2.9550 C.2    33  LEU33       0.2260
      4  O         -6.5090  -35.5680   -1.7580 O.2    33  LEU33      -0.2867
      5  CB        -4.9440  -33.7820   -3.9970 C.3    33  LEU33       0.0270
      6  CG        -3.5930  -33.2510   -4.4560 C.3    33  LEU33       0.0019
      7  CD1       -3.7960  -31.8880   -5.1020 C.3    33  LEU33       0.0001
      8  CD2       -2.6050  -33.1680   -3.3000 C.3    33  LEU33       0.0001
      9  N         -5.5740  -38.3570   -0.5050 N.3    36  ASN36      -0.1225
     10  CA        -5.1840  -37.7830    0.7830 C.3    36  ASN36       0.1785
     11  C         -6.3990  -37.2520    1.5580 C.2    36  ASN36       0.2597
     12  O         -6.5230  -37.4850    2.7700 O.2    36  ASN36      -0.2718
     13  CB        -4.1430  -36.6740    0.5740 C.3    36  ASN36       0.1169
     14  CG        -2.7550  -37.2260    0.1580 C.2    36  ASN36       0.2627
     15  OD1       -2.5270  -38.4280    0.1250 O.2    36  ASN36      -0.2716
     16  ND2       -1.8360  -36.3280   -0.1440 N.am   36  ASN36      -0.0877
     17  N         -7.3220  -36.5750    0.8720 N.am   37  SER37      -0.1952
     18  CA        -8.5370  -36.0990    1.5390 C.3    37  SER37       0.1924
     19  C         -9.3470  -37.2610    2.0860 C.2    37  SER37       0.2314
     20  O         -9.8270  -37.2240    3.2290 O.2    37  SER37      -0.2863
     21  CB        -9.3910  -35.2840    0.5770 C.3    37  SER37       0.2116
     22  OG        -8.7700  -34.0710    0.2320 O.3    37  SER37      -0.2180
     23  N         -7.8740  -38.5680    5.1850 N.3    40  ALA40      -0.1245
     24  CA        -8.0770  -37.6550    6.2920 C.3    40  ALA40       0.1562
     25  C         -9.5210  -37.7010    6.7790 C.2    40  ALA40       0.2260
     26  O         -9.7780  -37.6100    7.9860 O.2    40  ALA40      -0.2867
     27  CB        -7.7170  -36.2350    5.8790 C.3    40  ALA40       0.0290
     28  N         -9.8130  -40.7360    8.8450 N.3    43  LYS43      -0.1245
     29  CA        -9.1880  -40.6260   10.1540 C.3    43  LYS43       0.1561
     30  C        -10.1430  -39.9910   11.1480 C.2    43  LYS43       0.2260
     31  O        -10.2890  -40.4780   12.2790 O.2    43  LYS43      -0.2867
     32  CB        -7.8990  -39.8250   10.0580 C.3    43  LYS43       0.0271
     33  CG        -6.9040  -40.0790   11.1830 C.3    43  LYS43       0.0035
     34  CD        -5.8280  -41.0470   10.7460 C.3    43  LYS43       0.0206
     35  CE        -4.9030  -40.4190    9.7010 C.3    43  LYS43       0.1093
     36  NZ        -3.7460  -41.3050    9.3720 N.3    43  LYS43      -0.1314
     37  N         -8.9050  -27.7540   -3.5500 N.3    76  ILE76      -0.1245
     38  CA        -9.4890  -28.9990   -3.0720 C.3    76  ILE76       0.1561
     39  C         -9.6920  -28.8560   -1.5730 C.2    76  ILE76       0.2260
     40  O         -8.7250  -28.7230   -0.8110 O.2    76  ILE76      -0.2867
     41  CB        -8.6070  -30.2150   -3.3950 C.3    76  ILE76       0.0252
     42  CG1       -8.3610  -30.3170   -4.8890 C.3    76  ILE76       0.0019
     43  CG2       -9.2930  -31.4920   -2.9310 C.3    76  ILE76       0.0019
     44  CD1       -7.0230  -29.7980   -5.3490 C.3    76  ILE76       0.0001
     45  N        -11.4430  -30.4480    1.9310 N.3    78  ASP78      -0.1239
     46  CA       -12.0460  -31.5790    2.6060 C.3    78  ASP78       0.1674
     47  C        -12.2990  -31.1940    4.0600 C.2    78  ASP78       0.2266
     48  O        -11.7510  -30.2170    4.5750 O.2    78  ASP78      -0.2867
     49  CB       -11.2090  -32.8440    2.4730 C.3    78  ASP78       0.1410
     50  CG        -9.8980  -32.7860    3.2430 C.2    78  ASP78       0.3668
     51  OD1       -9.9590  -32.7130    4.4820 O.co2  78  ASP78      -0.2456
     52  OD2       -8.8100  -32.8590    2.6150 O.co2  78  ASP78      -0.2456
     53  N         -9.5750  -34.7090    9.1040 N.3    81  ILE81      -0.1231
     54  CA        -9.0460  -34.5310   10.4480 C.3    81  ILE81       0.1692
     55  C         -8.1870  -33.2780   10.5720 C.2    81  ILE81       0.2593
     56  O         -7.9820  -32.7800   11.6930 O.2    81  ILE81      -0.2718
     57  CB        -8.2720  -35.7930   10.8820 C.3    81  ILE81       0.0266
     58  CG1       -7.9220  -35.6760   12.3710 C.3    81  ILE81       0.0019
     59  CG2       -7.0060  -36.0330    9.9950 C.3    81  ILE81       0.0020
     60  CD1       -7.4840  -36.9670   12.9700 C.3    81  ILE81       0.0001
     61  N         -7.7180  -32.7220    9.4620 N.am   82  GLY82      -0.1942
     62  CA        -6.8240  -31.5820    9.5240 C.3    82  GLY82       0.2014
     63  C         -5.4830  -31.9470   10.1380 C.2    82  GLY82       0.2638
     64  O         -5.1880  -33.0950   10.5030 O.2    82  GLY82      -0.2714
     65  N         -4.6470  -30.9080   10.2530 N.am   83  MET83      -0.1976
     66  CA        -3.3000  -31.0240   10.7870 C.3    83  MET83       0.1605
     67  C         -3.0260  -29.9280   11.8110 C.2    83  MET83       0.2287
     68  O         -3.3470  -28.7560   11.5890 O.2    83  MET83      -0.2864
     69  CB        -2.2830  -30.9130    9.6700 C.3    83  MET83       0.0413
     70  CG        -2.2870  -32.1090    8.7150 C.3    83  MET83       0.0598
     71  SD        -1.0860  -31.9190    7.3720 S.3    83  MET83      -0.1393
     72  CE        -1.9170  -30.7450    6.3290 C.3    83  MET83       0.0692
     73  N          2.0010  -30.3620   10.6860 N.3    88  LEU88      -0.1245
     74  CA         2.5380  -29.7320    9.4820 C.3    88  LEU88       0.1561
     75  C          4.0530  -29.8730    9.4020 C.2    88  LEU88       0.2260
     76  O          4.6180  -30.0320    8.3120 O.2    88  LEU88      -0.2867
     77  CB         2.1790  -28.2510    9.4320 C.3    88  LEU88       0.0270
     78  CG         0.7780  -27.8430    9.0200 C.3    88  LEU88       0.0019
     79  CD1        0.6320  -26.3400    9.2240 C.3    88  LEU88       0.0001
     80  CD2        0.5160  -28.2250    7.5610 C.3    88  LEU88       0.0001
     81  N          5.0020  -33.9720    9.2410 N.3    91  ASN91      -0.1225
     82  CA         4.6580  -34.6510    7.9910 C.3    91  ASN91       0.1785
     83  C          5.6760  -34.3850    6.9040 C.2    91  ASN91       0.2597
     84  O          5.7230  -35.1200    5.9120 O.2    91  ASN91      -0.2718
     85  CB         3.2700  -34.2090    7.5200 C.3    91  ASN91       0.1169
     86  CG         2.1680  -34.7030    8.4410 C.2    91  ASN91       0.2627
     87  OD1        2.4160  -35.5770    9.2770 O.2    91  ASN91      -0.2716
     88  ND2        0.9420  -34.1570    8.2880 N.am   91  ASN91      -0.0877
     89  N          6.4780  -33.3390    7.0720 N.am   92  LEU92      -0.1980
     90  CA         7.6070  -33.0380    6.2070 C.3    92  LEU92       0.1596
     91  C          8.9220  -33.5470    6.7940 C.2    92  LEU92       0.2287
     92  O          9.9940  -33.0460    6.4380 O.2    92  LEU92      -0.2864
     93  CB         7.6510  -31.5310    5.9560 C.3    92  LEU92       0.0297
     94  CG         6.2130  -31.0180    5.7580 C.3    92  LEU92       0.0022
     95  CD1        6.1940  -29.5090    5.6620 C.3    92  LEU92       0.0001
     96  CD2        5.5370  -31.6720    4.5400 C.3    92  LEU92       0.0001
     97  N          8.5450  -38.6920    5.2050 N.3    96  ALA96      -0.1245
     98  CA         8.5550  -38.0990    3.8710 C.3    96  ALA96       0.1562
     99  C          9.9520  -38.1100    3.2590 C.2    96  ALA96       0.2260
    100  O         10.0920  -38.2010    2.0330 O.2    96  ALA96      -0.2867
    101  CB         8.0110  -36.6640    3.9200 C.3    96  ALA96       0.0290
    102  N          3.9440  -42.9600   -0.4790 N.3   120  GLY120     -0.1225
    103  CA         3.3710  -42.0820    0.5200 C.3   120  GLY120      0.1811
    104  C          3.7210  -40.6170    0.3390 C.2   120  GLY120      0.2280
    105  O          3.5390  -39.8290    1.2730 O.2   120  GLY120     -0.2866
    106  N          1.4860  -36.2430   -2.4530 N.3   123  PHE123     -0.1227
    107  CA         1.1940  -34.8090   -2.3970 C.3   123  PHE123      0.1736
    108  C          2.0430  -34.0200   -3.3860 C.2   123  PHE123      0.2595
    109  O          1.5760  -33.0420   -3.9850 O.2   123  PHE123     -0.2718
    110  CB         1.4460  -34.2570   -0.9920 C.3   123  PHE123      0.0547
    111  CG         1.5490  -32.7720   -0.9530 C.ar  123  PHE123     -0.0202
    112  CD1        0.4140  -31.9840   -1.0630 C.ar  123  PHE123     -0.0042
    113  CD2        2.7850  -32.1400   -0.8200 C.ar  123  PHE123     -0.0042
    114  CE1        0.5140  -30.6050   -1.0530 C.ar  123  PHE123     -0.0003
    115  CE2        2.8710  -30.7460   -0.7950 C.ar  123  PHE123     -0.0003
    116  CZ         1.7440  -29.9990   -0.9190 C.ar  123  PHE123     -0.0000
    117  N          3.2980  -34.4220   -3.5640 N.am  124  TYR124     -0.1976
    118  CA         4.2060  -33.6160   -4.3800 C.3   124  TYR124      0.1639
    119  C          3.8940  -33.6700   -5.8750 C.2   124  TYR124      0.2290
    120  O          4.4090  -32.8340   -6.6380 O.2   124  TYR124     -0.2864
    121  CB         5.6460  -34.0430   -4.0920 C.3   124  TYR124      0.0560
    122  CG         6.0210  -33.6170   -2.6670 C.ar  124  TYR124     -0.0198
    123  CD1        6.2320  -32.2740   -2.3530 C.ar  124  TYR124     -0.0009
    124  CD2        6.0500  -34.5530   -1.6170 C.ar  124  TYR124     -0.0009
    125  CE1        6.4890  -31.8780   -1.0320 C.ar  124  TYR124      0.0417
    126  CE2        6.3360  -34.1520   -0.3040 C.ar  124  TYR124      0.0417
    127  CZ         6.5450  -32.8150   -0.0300 C.ar  124  TYR124      0.1957
    128  OH         6.8070  -32.3640    1.2560 O.3   124  TYR124     -0.2866
    129  N         -1.4650  -24.7560    1.5860 N.3   135  VAL135     -0.1245
    130  CA        -2.2560  -25.7110    2.3390 C.3   135  VAL135      0.1561
    131  C         -2.7590  -24.9880    3.5800 C.2   135  VAL135      0.2260
    132  O         -1.9800  -24.6750    4.4870 O.2   135  VAL135     -0.2867
    133  CB        -1.4560  -26.9750    2.6940 C.3   135  VAL135      0.0252
    134  CG1       -2.2810  -27.9180    3.5250 C.3   135  VAL135      0.0019
    135  CG2       -1.0150  -27.7250    1.4230 C.3   135  VAL135      0.0019
    136  N          0.3160  -23.3990    5.3350 N.3   147  TRP147     -0.1241
    137  CA         1.5770  -23.8880    4.7790 C.3   147  TRP147      0.1605
    138  C          1.6580  -23.5060    3.3050 C.2   147  TRP147      0.2264
    139  O          0.6490  -23.5190    2.5890 O.2   147  TRP147     -0.2867
    140  CB         1.6570  -25.4020    4.9540 C.3   147  TRP147      0.0550
    141  CG         2.8540  -26.1290    4.4280 C.ar  147  TRP147      0.0003
    142  CD1        3.8570  -26.6550    5.1750 C.ar  147  TRP147      0.0946
    143  CD2        3.1490  -26.4920    3.0590 C.ar  147  TRP147      0.0152
    144  NE1        4.7710  -27.2700    4.3780 N.ar  147  TRP147     -0.2442
    145  CE2        4.3550  -27.2130    3.0770 C.ar  147  TRP147      0.0810
    146  CE3        2.5250  -26.2610    1.8330 C.ar  147  TRP147      0.0012
    147  CZ2        4.9580  -27.7120    1.9170 C.ar  147  TRP147      0.0191
    148  CZ3        3.1240  -26.7660    0.6690 C.ar  147  TRP147      0.0001
    149  CH2        4.3320  -27.4870    0.7290 C.ar  147  TRP147      0.0015
    150  N         -8.8140  -29.5860    5.6620 N.3   169  THR169     -0.1218
    151  CA        -7.6660  -29.1310    4.8880 C.3   169  THR169      0.1862
    152  C         -8.1220  -28.6350    3.5330 C.2   169  THR169      0.2287
    153  O         -8.9720  -29.2520    2.8780 O.2   169  THR169     -0.2866
    154  CB        -6.6560  -30.2590    4.7390 C.3   169  THR169      0.1770
    155  OG1       -6.1020  -30.5290    6.0200 O.3   169  THR169     -0.2211
    156  CG2       -5.5230  -29.9000    3.8320 C.3   169  THR169      0.0375
    157  N         -6.3740  -27.3620   -0.0300 N.3   171  VAL171     -0.1245
    158  CA        -5.1750  -27.2970   -0.8630 C.3   171  VAL171      0.1561
    159  C         -5.4610  -26.3790   -2.0410 C.2   171  VAL171      0.2260
    160  O         -6.3170  -26.6790   -2.8760 O.2   171  VAL171     -0.2867
    161  CB        -4.7320  -28.6780   -1.3490 C.3   171  VAL171      0.0252
    162  CG1       -3.5200  -28.5430   -2.2760 C.3   171  VAL171      0.0019
    163  CG2       -4.4420  -29.5830   -0.1310 C.3   171  VAL171      0.0019
@<TRIPOS>BOND
     1   120   119    2
     2   119   118    1
     3    44    42    1
     4     7     6    1
     5    42    41    1
     6     1     2    1
     7     6     5    1
     8     6     8    1
     9   118   121    1
    10   118   117    1
    11   121   122    1
    12     5     2    1
    13   109   108    2
    14   117   108   am
    15    37    38    1
    16     2     3    1
    17    41    38    1
    18    41    43    1
    19   108   107    1
    20    38    39    1
    21     3     4    2
    22   160   159    2
    23   122   123   ar
    24   122   124   ar
    25   106   107    1
    26   107   110    1
    27   123   125   ar
    28   162   161    1
    29   159   158    1
    30   124   126   ar
    31    39    40    2
    32   161   158    1
    33   161   163    1
    34   112   114   ar
    35   112   111   ar
    36   114   116   ar
    37   125   127   ar
    38   110   111    1
    39   111   113   ar
    40   116   115   ar
    41   158   157    1
    42   113   115   ar
    43     9    10    1
    44   102   103    1
    45   126   127   ar
    46    16    14   am
    47   127   128    1
    48    15    14    2
    49    14    13    1
    50    22    21    1
    51   104   103    1
    52   104   105    2
    53    13    10    1
    54    21    18    1
    55   148   149   ar
    56   148   146   ar
    57   149   147   ar
    58    10    11    1
    59    17    18    1
    60    17    11   am
    61   135   133    1
    62    18    19    1
    63    11    12    2
    64   129   130    1
    65   146   143   ar
    66   147   145   ar
    67    45    46    1
    68   100    99    2
    69    19    20    2
    70   130   133    1
    71   130   131    1
    72    49    46    1
    73    49    50    1
    74   139   138    2
    75    46    47    1
    76    52    50   ar
    77   133   134    1
    78   153   152    2
    79   143   145   ar
    80   143   141   ar
    81   145   144   ar
    82    50    51   ar
    83    99    98    1
    84   138   137    1
    85   152   151    1
    86   131   132    2
    87   156   154    1
    88    98   101    1
    89    98    97    1
    90    47    48    2
    91   144   142   ar
    92   141   140    1
    93   141   142   ar
    94    96    94    1
    95   154   151    1
    96   154   155    1
    97   137   140    1
    98   137   136    1
    99   151   150    1
   100    23    24    1
   101    95    94    1
   102    94    93    1
   103    27    24    1
   104    84    83    2
   105    93    90    1
   106    90    91    1
   107    90    89    1
   108    24    25    1
   109    72    71    1
   110    92    91    2
   111    25    26    2
   112    83    89   am
   113    83    82    1
   114    71    70    1
   115    85    82    1
   116    85    86    1
   117    80    78    1
   118    82    81    1
   119    88    86   am
   120    76    75    2
   121    86    87    2
   122    70    69    1
   123    28    29    1
   124    78    79    1
   125    78    77    1
   126    53    54    1
   127    36    35    1
   128    75    74    1
   129    77    74    1
   130    61    62    1
   131    61    55   am
   132    74    73    1
   133    62    63    1
   134    69    66    1
   135    35    34    1
   136    59    57    1
   137    32    29    1
   138    32    33    1
   139    63    65   am
   140    63    64    2
   141    29    30    1
   142    65    66    1
   143    54    55    1
   144    54    57    1
   145    55    56    2
   146    34    33    1
   147    66    67    1
   148    57    58    1
   149    30    31    2
   150    68    67    2
   151    58    60    1
