@<TRIPOS>MOLECULE
tmp/5vz2E01.pdb
 120 111 0 0 0
SMALL
GASTEIGER

@<TRIPOS>ATOM
      1  N         17.3910  -11.6590   73.0490 N.3     8  ARG8       -0.1231
      2  CA        17.4100  -11.8010   74.5180 C.3     8  ARG8        0.1694
      3  C         16.5110  -10.7340   75.1620 C.2     8  ARG8        0.2591
      4  O         15.8790  -10.9680   76.1920 O.2     8  ARG8       -0.2718
      5  CB        18.8630  -11.7880   75.0670 C.3     8  ARG8        0.0321
      6  CG        19.0620  -11.5100   76.5750 C.3     8  ARG8        0.0489
      7  CD        18.6230  -12.6340   77.5480 C.3     8  ARG8        0.2205
      8  NE        18.9680  -12.3460   78.9640 N.pl3   8  ARG8       -0.0865
      9  CZ        18.3290  -11.4810   79.7730 C.cat   8  ARG8        0.5346
     10  NH1       17.2870  -10.7820   79.3450 N.pl3   8  ARG8        0.1354
     11  NH2       18.7380  -11.2970   81.0300 N.pl3   8  ARG8        0.1354
     12  N         16.4480   -9.5480   74.5750 N.am    9  LEU9       -0.1980
     13  CA        15.5510   -8.5340   75.1250 C.3     9  LEU9        0.1596
     14  C         14.0920   -8.8590   74.8230 C.2     9  LEU9        0.2287
     15  O         13.1990   -8.4650   75.5720 O.2     9  LEU9       -0.2864
     16  CB        15.8950   -7.1760   74.5780 C.3     9  LEU9        0.0297
     17  CG        17.2750   -6.7110   74.9240 C.3     9  LEU9        0.0022
     18  CD1       17.4570   -5.3460   74.2970 C.3     9  LEU9        0.0001
     19  CD2       17.4820   -6.6340   76.4130 C.3     9  LEU9        0.0001
     20  N         12.4610  -10.6960   77.5110 N.3    12  ASP12      -0.1239
     21  CA        11.9400   -9.7420   78.4850 C.3    12  ASP12       0.1674
     22  C         10.8130   -8.8370   77.9940 C.2    12  ASP12       0.2266
     23  O         10.5040   -7.8350   78.6710 O.2    12  ASP12      -0.2867
     24  CB        13.0620   -8.8330   78.9600 C.3    12  ASP12       0.1410
     25  CG        14.0570   -9.5340   79.8350 C.2    12  ASP12       0.3668
     26  OD1       13.6730  -10.2540   80.7920 O.co2  12  ASP12      -0.2456
     27  OD2       15.2450   -9.2970   79.5910 O.co2  12  ASP12      -0.2456
     28  N         10.7590   -6.8340   75.3970 N.3    14  ILE14      -0.1245
     29  CA        11.3040   -5.5770   74.8850 C.3    14  ILE14       0.1561
     30  C         11.3630   -5.7360   73.3800 C.2    14  ILE14       0.2260
     31  O         11.9040   -6.7220   72.8780 O.2    14  ILE14      -0.2867
     32  CB        12.6570   -5.2380   75.5160 C.3    14  ILE14       0.0252
     33  CG1       12.4380   -4.8550   76.9670 C.3    14  ILE14       0.0019
     34  CG2       13.3230   -4.0680   74.7920 C.3    14  ILE14       0.0019
     35  CD1       13.6990   -4.7680   77.7800 C.3    14  ILE14       0.0001
     36  N          7.1850   -3.6000   76.1220 N.3    46  TYR46      -0.1241
     37  CA         7.9400   -2.3340   76.0850 C.3    46  TYR46       0.1605
     38  C          8.4680   -2.1500   74.6460 C.2    46  TYR46       0.2264
     39  O          9.1730   -3.0290   74.1020 O.2    46  TYR46      -0.2867
     40  CB         9.0080   -2.2630   77.1880 C.3    46  TYR46       0.0534
     41  CG         8.5160   -2.8610   78.5040 C.ar   46  TYR46      -0.0201
     42  CD1        8.5590   -4.2460   78.7150 C.ar   46  TYR46      -0.0009
     43  CD2        7.9810   -2.0720   79.5180 C.ar   46  TYR46      -0.0009
     44  CE1        8.0840   -4.8290   79.8860 C.ar   46  TYR46       0.0417
     45  CE2        7.4930   -2.6540   80.6990 C.ar   46  TYR46       0.0417
     46  CZ         7.5460   -4.0330   80.8760 C.ar   46  TYR46       0.1957
     47  OH         7.0960   -4.6420   82.0290 O.3    46  TYR46      -0.2866
     48  N         10.6540    0.2010   72.4610 N.3    48  TYR48      -0.1241
     49  CA        11.7200    1.2400   72.5630 C.3    48  TYR48       0.1605
     50  C         11.8940    1.8770   71.1750 C.2    48  TYR48       0.2264
     51  O         11.8770    1.1910   70.1820 O.2    48  TYR48      -0.2867
     52  CB        13.0330    0.6240   73.0330 C.3    48  TYR48       0.0534
     53  CG        13.0780    0.1340   74.4500 C.ar   48  TYR48      -0.0201
     54  CD1       11.9460    0.1230   75.2690 C.ar   48  TYR48      -0.0009
     55  CD2       14.2620   -0.3630   74.9840 C.ar   48  TYR48      -0.0009
     56  CE1       12.0090   -0.3160   76.5820 C.ar   48  TYR48       0.0417
     57  CE2       14.3180   -0.8280   76.2970 C.ar   48  TYR48       0.0417
     58  CZ        13.1750   -0.8020   77.0940 C.ar   48  TYR48       0.1957
     59  OH        13.1900   -1.2270   78.4200 O.3    48  TYR48      -0.2866
     60  N          4.1210   -0.1200   76.5330 N.3    74  GLN74      -0.1245
     61  CA         4.7700    1.1140   76.9820 C.3    74  GLN74       0.1566
     62  C          5.6370    1.6200   75.8190 C.2    74  GLN74       0.2260
     63  O          6.0490    0.8310   74.9600 O.2    74  GLN74      -0.2867
     64  CB         5.6290    0.9050   78.2230 C.3    74  GLN74       0.0367
     65  CG         4.9560    0.0470   79.3110 C.3    74  GLN74       0.0905
     66  CD         5.4560    0.3250   80.6990 C.2    74  GLN74       0.2608
     67  OE1        6.0540    1.3480   80.9430 O.2    74  GLN74      -0.2717
     68  NE2        5.1730   -0.5870   81.6460 N.am   74  GLN74      -0.0878
     69  N          9.0090    4.1020   74.9300 N.3    76  ILE76      -0.1245
     70  CA        10.1740    4.8320   75.4390 C.3    76  ILE76       0.1561
     71  C         10.9610    5.3490   74.2500 C.2    76  ILE76       0.2260
     72  O         11.4990    4.5700   73.4230 O.2    76  ILE76      -0.2867
     73  CB        11.1460    4.0000   76.3080 C.3    76  ILE76       0.0252
     74  CG1       10.4810    3.3360   77.5360 C.3    76  ILE76       0.0019
     75  CG2       12.2100    4.9300   76.8780 C.3    76  ILE76       0.0019
     76  CD1        9.5270    2.1740   77.2680 C.3    76  ILE76       0.0001
     77  N         14.0960    6.8730   72.8980 N.3    78  ILE78      -0.1245
     78  CA        15.5390    6.9980   73.1630 C.3    78  ILE78       0.1561
     79  C         16.1350    7.6760   71.9130 C.2    78  ILE78       0.2260
     80  O         15.8640    7.2800   70.7830 O.2    78  ILE78      -0.2867
     81  CB        16.1860    5.6050   73.5150 C.3    78  ILE78       0.0252
     82  CG1       16.4430    4.7480   72.2780 C.3    78  ILE78       0.0019
     83  CG2       15.2610    4.7800   74.4170 C.3    78  ILE78       0.0019
     84  CD1       17.0730    3.3870   72.5240 C.3    78  ILE78       0.0001
     85  N          7.0500    7.1570   77.6420 N.3    98  PHE98      -0.1241
     86  CA         8.1860    7.9370   78.2090 C.3    98  PHE98       0.1605
     87  C          9.1380    8.5100   77.1420 C.2    98  PHE98       0.2264
     88  O          9.1430    8.0610   75.9960 O.2    98  PHE98      -0.2867
     89  CB         9.0040    7.0450   79.1410 C.3    98  PHE98       0.0534
     90  CG         8.1880    6.3350   80.2200 C.ar   98  PHE98      -0.0203
     91  CD1        8.1720    6.8270   81.5340 C.ar   98  PHE98      -0.0042
     92  CD2        7.4780    5.1550   79.9360 C.ar   98  PHE98      -0.0042
     93  CE1        7.4410    6.1470   82.5420 C.ar   98  PHE98      -0.0003
     94  CE2        6.7500    4.4610   80.9330 C.ar   98  PHE98      -0.0003
     95  CZ         6.7220    4.9600   82.2350 C.ar   98  PHE98      -0.0000
     96  N         13.5370    9.6290   77.2740 N.3   100  LEU100     -0.1245
     97  CA        14.7320    9.9460   78.0220 C.3   100  LEU100      0.1561
     98  C         14.9700   11.4390   77.9050 C.2   100  LEU100      0.2260
     99  O         14.4920   12.0320   76.9370 O.2   100  LEU100     -0.2867
    100  CB        15.8890    9.1270   77.4930 C.3   100  LEU100      0.0270
    101  CG        15.6700    7.6180   77.6040 C.3   100  LEU100      0.0019
    102  CD1       16.7420    6.8690   76.8240 C.3   100  LEU100      0.0001
    103  CD2       15.6720    7.1650   79.0580 C.3   100  LEU100      0.0001
    104  N         11.6430   10.1670   81.6680 N.3   175  MET175     -0.1245
    105  CA        12.3500    9.2070   82.4980 C.3   175  MET175      0.1570
    106  C         13.7210    9.7360   82.9560 C.2   175  MET175      0.2261
    107  O         14.6890    9.7190   82.2070 O.2   175  MET175     -0.2867
    108  CB        12.5090    7.9580   81.6880 C.3   175  MET175      0.0387
    109  CG        13.0440    6.7940   82.4530 C.3   175  MET175      0.0595
    110  SD        12.9610    5.3610   81.4060 S.3   175  MET175     -0.1393
    111  CE        11.2170    4.9990   81.2790 C.3   175  MET175      0.0692
    112  N         17.8260    7.8350   88.1310 N.3   178  GLU178     -0.1245
    113  CA        17.9410    7.6670   89.6080 C.3   178  GLU178      0.1567
    114  C         19.3980    7.5920   90.0580 C.2   178  GLU178      0.2260
    115  O         20.0280    8.6260   90.2790 O.2   178  GLU178     -0.2867
    116  CB        17.1810    6.4210   90.1040 C.3   178  GLU178      0.0388
    117  CG        15.6710    6.4890   90.0020 C.3   178  GLU178      0.1160
    118  CD        15.1290    6.4490   88.5950 C.2   178  GLU178      0.3649
    119  OE1       15.7990    5.8970   87.6870 O.co2 178  GLU178     -0.2457
    120  OE2       14.0110    6.9460   88.3230 O.co2 178  GLU178     -0.2457
@<TRIPOS>BOND
     1    51    50    2
     2    80    79    2
     3    50    49    1
     4    79    78    1
     5    82    84    1
     6    82    81    1
     7    48    49    1
     8    49    52    1
     9    31    30    2
    10    77    78    1
    11    52    53    1
    12     1     2    1
    13    78    81    1
    14    30    29    1
    15    72    71    2
    16    81    83    1
    17    39    38    2
    18    71    70    1
    19    18    17    1
    20    53    55   ar
    21    53    54   ar
    22     2     5    1
    23     2     3    1
    24    12    13    1
    25    12     3   am
    26    16    17    1
    27    16    13    1
    28    38    37    1
    29    34    32    1
    30    14    13    1
    31    14    15    2
    32    29    28    1
    33    29    32    1
    34    17    19    1
    35    69    70    1
    36    63    62    2
    37    55    57   ar
    38     5     6    1
    39     3     4    2
    40    54    56   ar
    41    70    73    1
    42    32    33    1
    43    62    61    1
    44    88    87    2
    45    37    36    1
    46    37    40    1
    47    57    58   ar
    48    73    75    1
    49    73    74    1
    50    60    61    1
    51     6     7    1
    52    56    58   ar
    53   102   101    1
    54    99    98    2
    55    33    35    1
    56    61    64    1
    57    58    59    1
    58    87    86    1
    59    40    41    1
    60    76    74    1
    61    96    97    1
    62   100   101    1
    63   100    97    1
    64    20    21    1
    65     7     8    1
    66   101   103    1
    67    85    86    1
    68    98    97    1
    69    22    21    1
    70    22    23    2
    71    86    89    1
    72    64    65    1
    73    21    24    1
    74    41    42   ar
    75    41    43   ar
    76    42    44   ar
    77    24    25    1
    78     8     9    2
    79    89    90    1
    80    65    66    1
    81    10     9    1
    82    43    45   ar
    83    27    25   ar
    84     9    11    1
    85    25    26   ar
    86    44    46   ar
    87    92    90   ar
    88    92    94   ar
    89    90    91   ar
    90    66    67    2
    91    66    68   am
    92    45    46   ar
    93    46    47    1
    94    94    95   ar
    95   111   110    1
    96   110   109    1
    97    91    93   ar
    98   104   105    1
    99   108   109    1
   100   108   105    1
   101   107   106    2
   102    95    93   ar
   103   105   106    1
   104   119   118   ar
   105   112   113    1
   106   120   118   ar
   107   118   117    1
   108   113   114    1
   109   113   116    1
   110   117   116    1
   111   114   115    2
