@<TRIPOS>MOLECULE
tmp/5vz2E00.pdb
 82 79 0 0 0
SMALL
GASTEIGER

@<TRIPOS>ATOM
      1  N          5.1210   -6.1110   64.1930 N.3    30  VAL30      -0.1245
      2  CA         3.8070   -6.7090   64.3330 C.3    30  VAL30       0.1561
      3  C          3.9390   -8.1470   64.8900 C.2    30  VAL30       0.2260
      4  O          3.2550   -8.5220   65.8490 O.2    30  VAL30      -0.2867
      5  CB         3.0220   -6.6270   62.9850 C.3    30  VAL30       0.0252
      6  CG1        1.8060   -7.5400   62.9210 C.3    30  VAL30       0.0019
      7  CG2        2.5670   -5.1930   62.7670 C.3    30  VAL30       0.0019
      8  N          2.3710   -9.6510   68.4440 N.3    34  LEU34      -0.1231
      9  CA         1.4230  -10.7550   68.4460 C.3    34  LEU34       0.1693
     10  C          1.8990  -11.9660   69.2530 C.2    34  LEU34       0.2592
     11  O          1.1150  -12.5720   70.0140 O.2    34  LEU34      -0.2718
     12  CB         1.1650  -11.2120   67.0150 C.3    34  LEU34       0.0284
     13  CG         0.4460  -10.2030   66.0940 C.3    34  LEU34       0.0019
     14  CD1        0.0820  -10.8740   64.7830 C.3    34  LEU34       0.0001
     15  CD2       -0.8010   -9.5950   66.7340 C.3    34  LEU34       0.0001
     16  N          3.1620  -12.3200   69.0010 N.am   35  PHE35      -0.1976
     17  CA         3.8800  -13.3690   69.6630 C.3    35  PHE35       0.1639
     18  C          3.8840  -13.1290   71.1510 C.2    35  PHE35       0.2290
     19  O          3.5970  -14.0360   71.9030 O.2    35  PHE35      -0.2864
     20  CB         5.3190  -13.4350   69.1210 C.3    35  PHE35       0.0560
     21  CG         6.1890  -14.4400   69.8270 C.ar   35  PHE35      -0.0200
     22  CD1        6.1220  -15.7840   69.4950 C.ar   35  PHE35      -0.0042
     23  CD2        7.0580  -14.0470   70.8450 C.ar   35  PHE35      -0.0042
     24  CE1        6.9000  -16.7130   70.1740 C.ar   35  PHE35      -0.0003
     25  CE2        7.8360  -14.9740   71.5290 C.ar   35  PHE35      -0.0003
     26  CZ         7.7630  -16.3080   71.1840 C.ar   35  PHE35      -0.0000
     27  N          1.8620  -11.4040   72.9490 N.3    37  GLN37      -0.1231
     28  CA         0.5020  -11.5890   73.4450 C.3    37  GLN37       0.1698
     29  C          0.2440  -13.0640   73.6660 C.2    37  GLN37       0.2592
     30  O         -0.2860  -13.4340   74.7000 O.2    37  GLN37      -0.2718
     31  CB        -0.5570  -11.0240   72.4870 C.3    37  GLN37       0.0381
     32  CG        -1.9900  -11.4380   72.8490 C.3    37  GLN37       0.0905
     33  CD        -3.0280  -10.7290   72.0100 C.2    37  GLN37       0.2608
     34  OE1       -3.7360   -9.8430   72.4980 O.2    37  GLN37      -0.2717
     35  NE2       -3.1150  -11.1010   70.7530 N.am   37  GLN37      -0.0878
     36  N          0.6300  -13.8800   72.6960 N.am   38  ALA38      -0.1980
     37  CA         0.4080  -15.3200   72.7310 C.3    38  ALA38       0.1597
     38  C          1.0610  -16.0180   73.9260 C.2    38  ALA38       0.2287
     39  O          0.4650  -16.9180   74.5140 O.2    38  ALA38      -0.2864
     40  CB         0.8780  -15.9610   71.4360 C.3    38  ALA38       0.0319
     41  N         -2.2290   -0.0960   64.7070 N.3    64  ASP64      -0.1225
     42  CA        -3.4100   -0.9490   64.8760 C.3    64  ASP64       0.1805
     43  C         -3.1600   -2.2190   65.6770 C.2    64  ASP64       0.2598
     44  O         -4.0840   -2.7160   66.3070 O.2    64  ASP64      -0.2718
     45  CB        -3.9800   -1.3650   63.5220 C.3    64  ASP64       0.1424
     46  CG        -4.8080   -0.2760   62.8770 C.2    64  ASP64       0.3668
     47  OD1       -5.0600    0.7440   63.5430 O.co2  64  ASP64      -0.2456
     48  OD2       -5.2290   -0.4460   61.7000 O.co2  64  ASP64      -0.2456
     49  N         -1.9360   -2.7630   65.5890 N.am   65  THR65      -0.1953
     50  CA        -1.5390   -3.9410   66.3530 C.3    65  THR65       0.1897
     51  C         -1.3600   -3.5770   67.7910 C.2    65  THR65       0.2313
     52  O         -1.8320   -4.3150   68.6740 O.2    65  THR65      -0.2863
     53  CB        -0.3100   -4.6220   65.7970 C.3    65  THR65       0.1794
     54  OG1       -0.5790   -5.0470   64.4510 O.3    65  THR65      -0.2208
     55  CG2        0.0640   -5.8670   66.6440 C.3    65  THR65       0.0378
     56  N         -4.9750   -3.1260   69.2640 N.3    68  HIS68      -0.1226
     57  CA        -5.7490   -4.3510   69.2200 C.3    68  HIS68       0.1752
     58  C         -5.3870   -5.4090   70.2910 C.2    68  HIS68       0.2596
     59  O         -6.2610   -6.0670   70.7790 O.2    68  HIS68      -0.2718
     60  CB        -5.6060   -4.9760   67.8600 C.3    68  HIS68       0.0759
     61  CG        -6.4990   -6.1540   67.6390 C.ar   68  HIS68       0.0818
     62  ND1       -6.1270   -7.4430   67.9640 N.ar   68  HIS68      -0.2268
     63  CD2       -7.7150   -6.2500   67.0640 C.ar   68  HIS68       0.1154
     64  CE1       -7.0830   -8.2810   67.6120 C.ar   68  HIS68       0.1986
     65  NE2       -8.0610   -7.5810   67.0680 N.ar   68  HIS68      -0.2212
     66  N         -4.1120   -5.5790   70.6140 N.am   69  ILE69      -0.1966
     67  CA        -3.6910   -6.5890   71.5720 C.3    69  ILE69       0.1727
     68  C         -4.0640   -6.2060   73.0180 C.2    69  ILE69       0.2616
     69  O         -4.1610   -5.0220   73.3510 O.2    69  ILE69      -0.2715
     70  CB        -2.1640   -6.9160   71.4660 C.3    69  ILE69       0.0290
     71  CG1       -1.2730   -5.6970   71.7470 C.3    69  ILE69       0.0022
     72  CG2       -1.8610   -7.5150   70.1220 C.3    69  ILE69       0.0023
     73  CD1        0.1360   -6.0180   72.1710 C.3    69  ILE69       0.0001
     74  N         -4.2240   -7.2250   73.8710 N.am   70  LYS70      -0.1977
     75  CA        -4.6550   -7.0600   75.2790 C.3    70  LYS70       0.1596
     76  C         -3.5650   -6.3830   76.1550 C.2    70  LYS70       0.2287
     77  O         -3.8450   -5.4380   76.8960 O.2    70  LYS70      -0.2864
     78  CB        -5.1320   -8.4370   75.8480 C.3    70  LYS70       0.0298
     79  CG        -5.8040   -8.3810   77.2070 C.3    70  LYS70       0.0038
     80  CD        -6.3970   -9.7410   77.5580 C.3    70  LYS70       0.0206
     81  CE        -7.4710  -10.1440   76.5470 C.3    70  LYS70       0.1093
     82  NZ        -7.9520  -11.5490   76.7220 N.3    70  LYS70      -0.1314
@<TRIPOS>BOND
     1    48    46   ar
     2     7     5    1
     3    46    45    1
     4    46    47   ar
     5     6     5    1
     6     5     2    1
     7    45    42    1
     8     1     2    1
     9     2     3    1
    10    54    53    1
    11    41    42    1
    12    14    13    1
    13    42    43    1
    14     3     4    2
    15    49    43   am
    16    49    50    1
    17    43    44    2
    18    53    50    1
    19    53    55    1
    20    13    15    1
    21    13    12    1
    22    50    51    1
    23    12     9    1
    24    63    65   ar
    25    63    61   ar
    26    65    64   ar
    27    64    62   ar
    28    61    60    1
    29    61    62   ar
    30    51    52    2
    31    60    57    1
    32     8     9    1
    33     9    10    1
    34    16    10   am
    35    16    17    1
    36    20    17    1
    37    20    21    1
    38    57    56    1
    39    57    58    1
    40    10    11    2
    41    22    21   ar
    42    22    24   ar
    43    17    18    1
    44    21    23   ar
    45    72    70    1
    46    24    26   ar
    47    58    66   am
    48    58    59    2
    49    66    67    1
    50    35    33   am
    51    23    25   ar
    52    18    19    2
    53    26    25   ar
    54    40    37    1
    55    70    67    1
    56    70    71    1
    57    67    68    1
    58    71    73    1
    59    33    34    2
    60    33    32    1
    61    31    32    1
    62    31    28    1
    63    36    37    1
    64    36    29   am
    65    37    38    1
    66    27    28    1
    67    68    69    2
    68    68    74   am
    69    28    29    1
    70    29    30    2
    71    74    75    1
    72    38    39    2
    73    75    78    1
    74    75    76    1
    75    78    79    1
    76    76    77    2
    77    81    82    1
    78    81    80    1
    79    79    80    1
