@<TRIPOS>MOLECULE
tmp/5vz6A00.pdb
 141 140 0 0 0
SMALL
GASTEIGER

@<TRIPOS>ATOM
      1  N         11.6190   21.6210   22.1520 N.3    92  PRO92      -0.2116
      2  CA        10.9240   21.3160   20.9000 C.3    92  PRO92       0.1372
      3  C          9.4190   21.1650   21.1110 C.2    92  PRO92       0.2244
      4  O          9.0000   20.5680   22.1060 O.2    92  PRO92      -0.2868
      5  CB        11.5760   20.0010   20.4570 C.3    92  PRO92       0.0268
      6  CG        12.8980   19.9650   21.1540 C.3    92  PRO92       0.0207
      7  CD        12.6060   20.5670   22.4770 C.3    92  PRO92       0.0892
      8  N          7.5160   19.0780   14.7740 N.3    97  LEU97      -0.1245
      9  CA         8.1200   17.8150   14.3280 C.3    97  LEU97       0.1561
     10  C          7.5880   17.4540   12.9610 C.2    97  LEU97       0.2260
     11  O          6.3670   17.4500   12.7550 O.2    97  LEU97      -0.2867
     12  CB         7.8300   16.6370   15.2950 C.3    97  LEU97       0.0270
     13  CG         8.3110   16.7670   16.7230 C.3    97  LEU97       0.0019
     14  CD1        7.6070   15.7760   17.6140 C.3    97  LEU97       0.0001
     15  CD2        9.7940   16.6240   16.8040 C.3    97  LEU97       0.0001
     16  N         12.7400    6.2920   20.3500 N.3   105  VAL105     -0.1245
     17  CA        13.3120    7.0540   21.4540 C.3   105  VAL105      0.1561
     18  C         14.4250    6.2520   22.1760 C.2   105  VAL105      0.2260
     19  O         14.2020    5.1070   22.5910 O.2   105  VAL105     -0.2867
     20  CB        12.1720    7.5590   22.3880 C.3   105  VAL105      0.0252
     21  CG1       12.6990    8.0320   23.7380 C.3   105  VAL105      0.0019
     22  CG2       11.3780    8.6710   21.7080 C.3   105  VAL105      0.0019
     23  N         16.7350   14.3580   17.4340 N.3   178  TYR178     -0.1227
     24  CA        16.3650   15.4440   18.3270 C.3   178  TYR178      0.1736
     25  C         17.0680   15.1740   19.6960 C.2   178  TYR178      0.2595
     26  O         16.9230   14.0900   20.2700 O.2   178  TYR178     -0.2718
     27  CB        14.8220   15.5420   18.4420 C.3   178  TYR178      0.0548
     28  CG        14.1320   16.4350   17.4200 C.ar  178  TYR178     -0.0200
     29  CD1       13.6250   17.6800   17.7830 C.ar  178  TYR178     -0.0009
     30  CD2       13.9140   16.0030   16.1130 C.ar  178  TYR178     -0.0009
     31  CE1       12.9540   18.4940   16.8610 C.ar  178  TYR178      0.0417
     32  CE2       13.2540   16.8110   15.1770 C.ar  178  TYR178      0.0417
     33  CZ        12.7800   18.0620   15.5550 C.ar  178  TYR178      0.1957
     34  OH        12.1260   18.8860   14.6590 O.3   178  TYR178     -0.2866
     35  N         17.8600   16.1580   20.1810 N.am  179  GLN179     -0.1965
     36  CA        18.5960   16.0720   21.4480 C.3   179  GLN179      0.1733
     37  C         17.9010   16.8660   22.5480 C.2   179  GLN179      0.2616
     38  O         17.8240   18.0980   22.4670 O.2   179  GLN179     -0.2715
     39  CB        20.0000   16.6620   21.3000 C.3   179  GLN179      0.0408
     40  CG        21.0200   15.8260   20.5810 C.3   179  GLN179      0.0908
     41  CD        22.2440   16.6690   20.3530 C.2   179  GLN179      0.2608
     42  OE1       22.5660   17.0170   19.2130 O.2   179  GLN179     -0.2717
     43  NE2       22.9420   17.0430   21.4330 N.am  179  GLN179     -0.0878
     44  N         17.4210   16.1720   23.5840 N.am  180  TYR180     -0.1974
     45  CA        16.7870   16.7970   24.7320 C.3   180  TYR180      0.1639
     46  C         17.1710   16.0360   25.9870 C.2   180  TYR180      0.2290
     47  O         16.7000   14.9200   26.1860 O.2   180  TYR180     -0.2864
     48  CB        15.2670   16.9110   24.5690 C.3   180  TYR180      0.0560
     49  CG        14.5880   17.5230   25.7740 C.ar  180  TYR180     -0.0198
     50  CD1       14.5950   18.8990   25.9770 C.ar  180  TYR180     -0.0009
     51  CD2       13.9550   16.7240   26.7230 C.ar  180  TYR180     -0.0009
     52  CE1       13.9850   19.4680   27.0940 C.ar  180  TYR180      0.0417
     53  CE2       13.3320   17.2810   27.8400 C.ar  180  TYR180      0.0417
     54  CZ        13.3410   18.6570   28.0170 C.ar  180  TYR180      0.1957
     55  OH        12.7300   19.2180   29.1180 O.3   180  TYR180     -0.2866
     56  N         17.9110   12.2530   26.3950 N.3   183  ASP183     -0.1239
     57  CA        17.1320   11.5860   25.3560 C.3   183  ASP183      0.1674
     58  C         17.5710   11.9340   23.9460 C.2   183  ASP183      0.2266
     59  O         18.1190   13.0130   23.6940 O.2   183  ASP183     -0.2867
     60  CB        15.6220   11.8740   25.4940 C.3   183  ASP183      0.1410
     61  CG        14.8920   11.2370   26.6590 C.2   183  ASP183      0.3668
     62  OD1       15.3150   10.1450   27.1090 O.co2 183  ASP183     -0.2456
     63  OD2       13.8830   11.8170   27.1130 O.co2 183  ASP183     -0.2456
     64  N         15.6620   11.4310   20.0680 N.3   185  TYR185     -0.1241
     65  CA        14.4410   11.1600   19.3040 C.3   185  TYR185      0.1605
     66  C         14.9910   10.9890   17.8990 C.2   185  TYR185      0.2264
     67  O         15.5520   11.9310   17.3440 O.2   185  TYR185     -0.2867
     68  CB        13.4490   12.3410   19.4610 C.3   185  TYR185      0.0534
     69  CG        12.2410   12.3420   18.5510 C.ar  185  TYR185     -0.0201
     70  CD1       10.9880   11.9780   19.0260 C.ar  185  TYR185     -0.0009
     71  CD2       12.3390   12.7680   17.2270 C.ar  185  TYR185     -0.0009
     72  CE1        9.8590   12.0260   18.2050 C.ar  185  TYR185      0.0417
     73  CE2       11.2250   12.7870   16.3870 C.ar  185  TYR185      0.0417
     74  CZ         9.9830   12.4300   16.8840 C.ar  185  TYR185      0.1957
     75  OH         8.8790   12.4620   16.0610 O.3   185  TYR185     -0.2866
     76  N         11.9140    2.5890   23.7350 N.3   220  LYS220     -0.1231
     77  CA        10.5660    3.1700   23.6680 C.3   220  LYS220      0.1693
     78  C          9.9620    3.2530   22.2490 C.2   220  LYS220      0.2591
     79  O         10.6230    3.6770   21.2920 O.2   220  LYS220     -0.2718
     80  CB        10.5370    4.5470   24.3610 C.3   220  LYS220      0.0285
     81  CG        10.5940    4.4650   25.8880 C.3   220  LYS220      0.0035
     82  CD        11.4870    5.5470   26.5000 C.3   220  LYS220      0.0206
     83  CE        11.3130    5.6530   28.0020 C.3   220  LYS220      0.1093
     84  NZ        11.9490    6.8830   28.5620 N.3   220  LYS220     -0.1314
     85  N          8.6830    2.8460   22.1460 N.am  221  GLU221     -0.1979
     86  CA         7.8970    2.8280   20.9090 C.3   221  GLU221      0.1602
     87  C          6.6390    3.7310   21.0090 C.2   221  GLU221      0.2287
     88  O          6.1140    3.8930   22.1200 O.2   221  GLU221     -0.2864
     89  CB         7.4900    1.3840   20.5700 C.3   221  GLU221      0.0415
     90  CG         8.6210    0.5280   20.0190 C.3   221  GLU221      0.1163
     91  CD         8.1680   -0.8050   19.4570 C.2   221  GLU221      0.3649
     92  OE1        7.7150   -1.6640   20.2480 O.co2 221  GLU221     -0.2457
     93  OE2        8.2650   -0.9900   18.2220 O.co2 221  GLU221     -0.2457
     94  N          2.7360    4.9790   21.2170 N.3   223  PRO223     -0.2102
     95  CA         2.6550    6.3740   21.6870 C.3   223  PRO223      0.1504
     96  C          3.6020    6.7700   22.8210 C.2   223  PRO223      0.2576
     97  O          3.6340    6.1430   23.8930 O.2   223  PRO223     -0.2718
     98  CB         1.1800    6.5210   22.0900 C.3   223  PRO223      0.0282
     99  CG         0.7780    5.1560   22.5180 C.3   223  PRO223      0.0208
    100  CD         1.5450    4.2080   21.6270 C.3   223  PRO223      0.0893
    101  N          4.3710    7.8500   22.5620 N.am  224  PHE224     -0.1963
    102  CA         5.3100    8.4350   23.5070 C.3   224  PHE224      0.1771
    103  C          4.5660    9.3570   24.4380 C.2   224  PHE224      0.2619
    104  O          3.6700   10.0800   24.0020 O.2   224  PHE224     -0.2715
    105  CB         6.3880    9.2340   22.7910 C.3   224  PHE224      0.0574
    106  CG         7.1540    8.4890   21.7320 C.ar  224  PHE224     -0.0200
    107  CD1        7.7930    7.2900   22.0250 C.ar  224  PHE224     -0.0042
    108  CD2        7.2700    9.0020   20.4480 C.ar  224  PHE224     -0.0042
    109  CE1        8.5030    6.5990   21.0440 C.ar  224  PHE224     -0.0003
    110  CE2        7.9900    8.3170   19.4700 C.ar  224  PHE224     -0.0003
    111  CZ         8.6060    7.1220   19.7760 C.ar  224  PHE224     -0.0000
    112  N          4.9280    9.3210   25.7210 N.am  225  LEU225     -0.1963
    113  CA         4.3600   10.1620   26.7670 C.3   225  LEU225      0.1728
    114  C          5.5200   11.0520   27.1440 C.2   225  LEU225      0.2616
    115  O          6.4770   10.5770   27.7510 O.2   225  LEU225     -0.2715
    116  CB         3.8960    9.3050   27.9710 C.3   225  LEU225      0.0311
    117  CG         2.5050    8.6020   27.9340 C.3   225  LEU225      0.0022
    118  CD1        1.3990    9.4960   27.3490 C.3   225  LEU225      0.0001
    119  CD2        2.5620    7.2590   27.2190 C.3   225  LEU225      0.0001
    120  N          5.4920   12.3230   26.7280 N.am  226  TRP226     -0.1974
    121  CA         6.6170   13.2460   26.9780 C.3   226  TRP226      0.1640
    122  C          6.1830   14.6710   27.2200 C.2   226  TRP226      0.2290
    123  O          5.4290   15.2170   26.4150 O.2   226  TRP226     -0.2864
    124  CB         7.5950   13.1770   25.7870 C.3   226  TRP226      0.0576
    125  CG         8.7890   14.0820   25.8530 C.ar  226  TRP226      0.0006
    126  CD1        9.9660   13.8480   26.5040 C.ar  226  TRP226      0.0946
    127  CD2        8.9600   15.3240   25.1490 C.ar  226  TRP226      0.0152
    128  NE1       10.8490   14.8780   26.2750 N.ar  226  TRP226     -0.2442
    129  CE2       10.2600   15.7990   25.4470 C.ar  226  TRP226      0.0810
    130  CE3        8.1230   16.1060   24.3270 C.ar  226  TRP226      0.0012
    131  CZ2       10.7430   17.0180   24.9530 C.ar  226  TRP226      0.0191
    132  CZ3        8.6040   17.3140   23.8460 C.ar  226  TRP226      0.0001
    133  CH2        9.8980   17.7580   24.1580 C.ar  226  TRP226      0.0015
    134  N          2.4690   11.5890   21.8900 N.3   231  LEU231     -0.1245
    135  CA         2.9340   11.6390   20.5110 C.3   231  LEU231      0.1561
    136  C          2.6840   10.3300   19.8090 C.2   231  LEU231      0.2260
    137  O          3.3110    9.3210   20.1400 O.2   231  LEU231     -0.2867
    138  CB         4.4120   12.0240   20.4400 C.3   231  LEU231      0.0270
    139  CG         4.7750   13.3400   21.0850 C.3   231  LEU231      0.0019
    140  CD1        5.8950   13.1560   22.0610 C.3   231  LEU231      0.0001
    141  CD2        5.1510   14.3500   20.0580 C.3   231  LEU231      0.0001
@<TRIPOS>BOND
     1    11    10    2
     2    10     9    1
     3     9     8    1
     4     9    12    1
     5    34    33    1
     6    32    33   ar
     7    32    30   ar
     8    12    13    1
     9    33    31   ar
    10    75    74    1
    11    30    28   ar
    12    73    74   ar
    13    73    71   ar
    14    13    15    1
    15    13    14    1
    16    31    29   ar
    17    74    72   ar
    18    71    69   ar
    19    67    66    2
    20    28    29   ar
    21    28    27    1
    22    23    24    1
    23    66    65    1
    24    72    70   ar
    25    93    91   ar
    26    24    27    1
    27    24    25    1
    28    69    70   ar
    29    69    68    1
    30    42    41    2
    31    65    68    1
    32    65    64    1
    33    91    90    1
    34    91    92   ar
    35   110   111   ar
    36   110   108   ar
    37    25    35   am
    38    25    26    2
    39   111   109   ar
    40   136   137    2
    41   136   135    1
    42    90    89    1
    43   141   139    1
    44    35    36    1
    45    16    17    1
    46    41    40    1
    47    41    43   am
    48   138   135    1
    49   138   139    1
    50   108   106   ar
    51     5     2    1
    52     5     6    1
    53   135   134    1
    54    89    86    1
    55    40    39    1
    56     2     3    1
    57     2     1    1
    58    86    87    1
    59    86    85    1
    60    87    88    2
    61   109   107   ar
    62   139   140    1
    63     3     4    2
    64     6     7    1
    65    94   100    1
    66    94    95    1
    67    79    78    2
    68    39    36    1
    69    36    37    1
    70    17    18    1
    71    17    20    1
    72   100    99    1
    73    95    98    1
    74    95    96    1
    75    22    20    1
    76   106   107   ar
    77   106   105    1
    78    98    99    1
    79    85    78   am
    80     1     7    1
    81    18    19    2
    82    78    77    1
    83    20    21    1
    84    38    37    2
    85    37    44   am
    86   101    96   am
    87   101   102    1
    88   105   102    1
    89    96    97    2
    90   102   103    1
    91    44    45    1
    92    77    76    1
    93    77    80    1
    94    59    58    2
    95   132   133   ar
    96   132   130   ar
    97    58    57    1
    98   104   103    2
    99   133   131   ar
   100   130   127   ar
   101    80    81    1
   102   103   112   am
   103    48    45    1
   104    48    49    1
   105    45    46    1
   106   131   129   ar
   107   127   129   ar
   108   127   125   ar
   109    57    60    1
   110    57    56    1
   111   129   128   ar
   112    60    61    1
   113   112   113    1
   114    49    50   ar
   115    49    51   ar
   116   124   125    1
   117   124   121    1
   118   125   126   ar
   119    81    82    1
   120    50    52   ar
   121    46    47    2
   122   128   126   ar
   123   123   122    2
   124    82    83    1
   125    61    62   ar
   126    61    63   ar
   127    51    53   ar
   128   120   121    1
   129   120   114   am
   130   113   114    1
   131   113   116    1
   132   121   122    1
   133    52    54   ar
   134   114   115    2
   135   119   117    1
   136   118   117    1
   137    53    54   ar
   138   117   116    1
   139    83    84    1
   140    54    55    1
