@<TRIPOS>MOLECULE
tmp/5vzbA00.pdb
 182 177 0 0 0
SMALL
GASTEIGER

@<TRIPOS>ATOM
      1  N         15.1510    3.4210  -16.9400 N.3   104  THR104     -0.1203
      2  CA        13.7380    3.0980  -16.7150 C.3   104  THR104      0.1994
      3  C         13.3660    3.1730  -15.2350 C.2   104  THR104      0.2618
      4  O         12.1990    3.4050  -14.8920 O.2   104  THR104     -0.2717
      5  CB        13.3590    1.7300  -17.2840 C.3   104  THR104      0.1784
      6  OG1       14.1680    0.6990  -16.7020 O.3   104  THR104     -0.2211
      7  CG2       13.5100    1.6780  -18.8170 C.3   104  THR104      0.0376
      8  N         14.3290    3.0000  -14.3410 N.am  105  GLN105     -0.1965
      9  CA        14.0420    3.1560  -12.9250 C.3   105  GLN105      0.1733
     10  C         13.5870    4.5690  -12.5740 C.2   105  GLN105      0.2616
     11  O         12.9650    4.7590  -11.5160 O.2   105  GLN105     -0.2715
     12  CB        15.2950    2.8420  -12.0990 C.3   105  GLN105      0.0408
     13  CG        15.5590    1.3640  -11.7770 C.3   105  GLN105      0.0908
     14  CD        16.9730    1.0640  -11.1600 C.2   105  GLN105      0.2608
     15  OE1       17.8210    1.8980  -11.1070 O.2   105  GLN105     -0.2717
     16  NE2       16.9830   -0.1080  -10.7830 N.am  105  GLN105     -0.0878
     17  N         13.9170    5.5630  -13.3980 N.am  106  ILE106     -0.1963
     18  CA        13.5020    6.9380  -13.1480 C.3   106  ILE106      0.1727
     19  C         11.9870    7.0250  -13.2900 C.2   106  ILE106      0.2616
     20  O         11.4180    6.5020  -14.2500 O.2   106  ILE106     -0.2715
     21  CB        14.1770    7.8830  -14.1510 C.3   106  ILE106      0.0290
     22  CG1       15.6960    7.7320  -14.0880 C.3   106  ILE106      0.0022
     23  CG2       13.7370    9.3300  -13.8850 C.3   106  ILE106      0.0023
     24  CD1       16.4370    8.5010  -15.1990 C.3   106  ILE106      0.0001
     25  N         11.3400    7.7060  -12.3550 N.am  107  PHE107     -0.1960
     26  CA         9.9290    8.0470  -12.4610 C.3   107  PHE107      0.1771
     27  C          9.7390    9.0310  -13.6140 C.2   107  PHE107      0.2620
     28  O         10.2600   10.1480  -13.5770 O.2   107  PHE107     -0.2715
     29  CB         9.4920    8.6520  -11.1280 C.3   107  PHE107      0.0574
     30  CG         8.0890    9.2040  -11.1060 C.ar  107  PHE107     -0.0200
     31  CD1        6.9920    8.3720  -11.2110 C.ar  107  PHE107     -0.0042
     32  CD2        7.8740   10.5490  -10.9160 C.ar  107  PHE107     -0.0042
     33  CE1        5.7180    8.8760  -11.1630 C.ar  107  PHE107     -0.0003
     34  CE2        6.5940   11.0610  -10.8630 C.ar  107  PHE107     -0.0003
     35  CZ         5.5130   10.2130  -10.9840 C.ar  107  PHE107     -0.0000
     36  N          8.9760    8.6250  -14.6300 N.am  108  GLY108     -0.1940
     37  CA         8.7280    9.4500  -15.7990 C.3   108  GLY108      0.2014
     38  C          9.4670    8.9960  -17.0380 C.2   108  GLY108      0.2639
     39  O          9.2520    9.5760  -18.1210 O.2   108  GLY108     -0.2714
     40  N         10.3350    7.9910  -16.9230 N.am  109  VAL109     -0.1963
     41  CA        11.0880    7.4340  -18.0400 C.3   109  VAL109      0.1727
     42  C         10.6900    5.9750  -18.1650 C.2   109  VAL109      0.2617
     43  O         10.8640    5.2020  -17.2180 O.2   109  VAL109     -0.2715
     44  CB        12.6030    7.5440  -17.7940 C.3   109  VAL109      0.0290
     45  CG1       13.3980    6.9600  -18.9610 C.3   109  VAL109      0.0023
     46  CG2       12.9820    8.9960  -17.5390 C.3   109  VAL109      0.0023
     47  N         10.1690    5.5930  -19.3310 N.am  110  GLY110     -0.1940
     48  CA         9.8790    4.2190  -19.6580 C.3   110  GLY110      0.2014
     49  C         10.8790    3.6470  -20.6550 C.2   110  GLY110      0.2639
     50  O         11.8980    4.2570  -20.9570 O.2   110  GLY110     -0.2714
     51  N         10.5740    2.4410  -21.1610 N.am  111  VAL111     -0.1963
     52  CA        11.5010    1.7630  -22.0700 C.3   111  VAL111      0.1727
     53  C         11.7580    2.6030  -23.3140 C.2   111  VAL111      0.2616
     54  O         12.9030    2.7390  -23.7660 O.2   111  VAL111     -0.2715
     55  CB        11.0060    0.3570  -22.4380 C.3   111  VAL111      0.0290
     56  CG1       11.9020   -0.2610  -23.4840 C.3   111  VAL111      0.0023
     57  CG2       10.9920   -0.5280  -21.1970 C.3   111  VAL111      0.0023
     58  N         10.7020    3.1780  -23.8960 N.am  112  LYS112     -0.1963
     59  CA        10.8920    3.8820  -25.1630 C.3   112  LYS112      0.1728
     60  C         11.7760    5.1070  -24.9990 C.2   112  LYS112      0.2616
     61  O         12.6500    5.3570  -25.8310 O.2   112  LYS112     -0.2715
     62  CB         9.5420    4.2350  -25.7710 C.3   112  LYS112      0.0311
     63  CG         8.8440    2.9860  -26.2690 C.3   112  LYS112      0.0038
     64  CD         7.5600    3.2790  -26.9920 C.3   112  LYS112      0.0206
     65  CE         6.9740    1.9880  -27.5530 C.3   112  LYS112      0.1093
     66  NZ         5.6330    2.2220  -28.1620 N.3   112  LYS112     -0.1314
     67  N         11.5630    5.8870  -23.9390 N.am  113  THR113     -0.1951
     68  CA        12.4150    7.0460  -23.7050 C.3   113  THR113      0.1897
     69  C         13.8390    6.6130  -23.3830 C.2   113  THR113      0.2313
     70  O         14.8000    7.1940  -23.8920 O.2   113  THR113     -0.2863
     71  CB        11.8410    7.8910  -22.5770 C.3   113  THR113      0.1794
     72  OG1       10.5170    8.3290  -22.9220 O.3   113  THR113     -0.2208
     73  CG2       12.7050    9.1020  -22.3120 C.3   113  THR113      0.0378
     74  N          7.9400   16.0070  -15.2000 N.3   138  GLN138     -0.1231
     75  CA         7.8650   14.7640  -14.4520 C.3   138  GLN138      0.1698
     76  C          9.2350   14.1050  -14.3580 C.2   138  GLN138      0.2592
     77  O          9.6510   13.6690  -13.2770 O.2   138  GLN138     -0.2718
     78  CB         6.8670   13.8160  -15.1130 C.3   138  GLN138      0.0381
     79  CG         6.6730   12.5150  -14.3690 C.3   138  GLN138      0.0905
     80  CD         5.7060   11.5640  -15.0770 C.2   138  GLN138      0.2608
     81  OE1        5.7980   11.3490  -16.2740 O.2   138  GLN138     -0.2717
     82  NE2        4.7710   11.0120  -14.3390 N.am  138  GLN138     -0.0878
     83  N          9.9400   14.0080  -15.4950 N.am  139  GLN139     -0.1979
     84  CA        11.2840   13.4370  -15.5160 C.3   139  GLN139      0.1601
     85  C         12.2420   14.2610  -14.6780 C.2   139  GLN139      0.2287
     86  O         13.1360   13.7100  -14.0330 O.2   139  GLN139     -0.2864
     87  CB        11.7710   13.3530  -16.9610 C.3   139  GLN139      0.0394
     88  CG        11.0150   12.3000  -17.7480 C.3   139  GLN139      0.0908
     89  CD        11.1500   12.4110  -19.2480 C.2   139  GLN139      0.2608
     90  OE1       11.7570   13.3470  -19.7890 O.2   139  GLN139     -0.2717
     91  NE2       10.5560   11.4480  -19.9420 N.am  139  GLN139     -0.0878
     92  N          8.8500    0.1120   -3.5740 N.3   192  HIS192     -0.1226
     93  CA         9.3120    1.2780   -4.3200 C.3   192  HIS192      0.1752
     94  C          8.4130    2.4840   -4.1390 C.2   192  HIS192      0.2596
     95  O          8.8180    3.6120   -4.4590 O.2   192  HIS192     -0.2718
     96  CB         9.4840    0.9220   -5.8170 C.3   192  HIS192      0.0759
     97  CG         8.4470    1.4670   -6.7490 C.ar  192  HIS192      0.0818
     98  ND1        7.1730    0.9530   -6.8580 N.ar  192  HIS192     -0.2268
     99  CD2        8.5250    2.4600   -7.6690 C.ar  192  HIS192      0.1154
    100  CE1        6.5000    1.6310   -7.7720 C.ar  192  HIS192      0.1986
    101  NE2        7.3110    2.5260   -8.3040 N.ar  192  HIS192     -0.2212
    102  N          7.2180    2.2720   -3.6020 N.am  193  ASP193     -0.1974
    103  CA         6.2320    3.3110   -3.3910 C.3   193  ASP193      0.1709
    104  C          5.2270    2.7790   -2.3780 C.2   193  ASP193      0.2293
    105  O          5.3650    1.6670   -1.8660 O.2   193  ASP193     -0.2864
    106  CB         5.5570    3.7310   -4.7160 C.3   193  ASP193      0.1436
    107  CG         4.6360    2.6680   -5.2990 C.2   193  ASP193      0.3671
    108  OD1        4.4440    1.5810   -4.6900 O.co2 193  ASP193     -0.2456
    109  OD2        4.0320    2.9550   -6.3590 O.co2 193  ASP193     -0.2456
    110  N          0.9620   15.8620  -10.5190 N.3   227  GLN227     -0.1245
    111  CA         0.6250   16.2390  -11.8890 C.3   227  GLN227      0.1566
    112  C         -0.2040   17.5160  -12.0040 C.2   227  GLN227      0.2260
    113  O         -0.3370   18.0310  -13.1170 O.2   227  GLN227     -0.2867
    114  CB        -0.1270   15.1000  -12.5720 C.3   227  GLN227      0.0367
    115  CG         0.8270   13.8940  -12.6890 C.3   227  GLN227      0.0905
    116  CD         0.0880   12.5700  -12.6610 C.2   227  GLN227      0.2608
    117  OE1       -1.0920   12.4180  -12.4600 O.2   227  GLN227     -0.2717
    118  NE2        0.8820   11.4980  -12.8390 N.am  227  GLN227     -0.0878
    119  N         -6.6950    9.2720  -10.3230 N.3   232  ARG232     -0.1245
    120  CA        -5.4410    8.6040   -9.9850 C.3   232  ARG232      0.1563
    121  C         -4.3880    9.6890   -9.9170 C.2   232  ARG232      0.2260
    122  O         -4.3710   10.5940  -10.7630 O.2   232  ARG232     -0.2867
    123  CB        -4.9770    7.5920  -11.0290 C.3   232  ARG232      0.0307
    124  CG        -5.9960    6.5780  -11.3760 C.3   232  ARG232      0.0489
    125  CD        -5.4750    5.6540  -12.3830 C.3   232  ARG232      0.2205
    126  NE        -6.4970    4.7160  -12.7730 N.pl3 232  ARG232     -0.0865
    127  CZ        -6.3510    3.7920  -13.7080 C.cat 232  ARG232      0.5346
    128  NH1       -5.2200    3.6690  -14.3680 N.pl3 232  ARG232      0.1354
    129  NH2       -7.3600    2.9800  -13.9950 N.pl3 232  ARG232      0.1354
    130  N         -0.1030   10.0290   -9.1670 N.3   234  PHE234     -0.1241
    131  CA         1.2020    9.4010   -8.9510 C.3   234  PHE234      0.1605
    132  C          2.1200   10.5090   -8.4850 C.2   234  PHE234      0.2264
    133  O          2.5470   11.3500   -9.2780 O.2   234  PHE234     -0.2867
    134  CB         1.6960    8.7490  -10.2390 C.3   234  PHE234      0.0534
    135  CG         0.6640    7.9010  -10.9150 C.ar  234  PHE234     -0.0203
    136  CD1        0.2090    6.7330  -10.3240 C.ar  234  PHE234     -0.0042
    137  CD2        0.1420    8.2670  -12.1450 C.ar  234  PHE234     -0.0042
    138  CE1       -0.7490    5.9420  -10.9480 C.ar  234  PHE234     -0.0003
    139  CE2       -0.8160    7.4710  -12.7600 C.ar  234  PHE234     -0.0003
    140  CZ        -1.2540    6.3270  -12.1570 C.ar  234  PHE234     -0.0000
    141  N          7.6180    7.8920   -3.2290 N.3   249  ARG249     -0.1245
    142  CA         6.5490    7.7790   -4.2120 C.3   249  ARG249      0.1563
    143  C          5.2790    7.2560   -3.5450 C.2   249  ARG249      0.2260
    144  O          5.3030    6.2540   -2.8280 O.2   249  ARG249     -0.2867
    145  CB         6.9990    6.8240   -5.3160 C.3   249  ARG249      0.0307
    146  CG         7.8890    7.4950   -6.3600 C.3   249  ARG249      0.0489
    147  CD         7.0970    8.1690   -7.4780 C.3   249  ARG249      0.2205
    148  NE         6.3380    7.1450   -8.1770 N.pl3 249  ARG249     -0.0865
    149  CZ         5.0240    6.9350   -8.0650 C.cat 249  ARG249      0.5346
    150  NH1        4.2180    7.7110   -7.3290 N.pl3 249  ARG249      0.1354
    151  NH2        4.4890    5.9100   -8.6800 N.pl3 249  ARG249      0.1354
    152  N          1.0590    6.5570   -4.5610 N.3   251  ASP251     -0.1239
    153  CA        -0.0070    6.4880   -5.5440 C.3   251  ASP251      0.1674
    154  C         -1.3470    6.5150   -4.8180 C.2   251  ASP251      0.2266
    155  O         -1.5460    5.7740   -3.8540 O.2   251  ASP251     -0.2867
    156  CB         0.1420    5.2190   -6.3770 C.3   251  ASP251      0.1410
    157  CG         1.3680    5.2430   -7.2680 C.2   251  ASP251      0.3668
    158  OD1        1.8090    6.3720   -7.5780 O.co2 251  ASP251     -0.2456
    159  OD2        1.8280    4.1370   -7.6540 O.co2 251  ASP251     -0.2456
    160  N         -5.3680   -3.2130   -7.9660 N.3   267  TRP267     -0.1241
    161  CA        -4.2130   -2.4860   -7.4490 C.3   267  TRP267      0.1605
    162  C         -3.4290   -3.2660   -6.4040 C.2   267  TRP267      0.2264
    163  O         -2.3470   -2.8200   -6.0100 O.2   267  TRP267     -0.2867
    164  CB        -4.6250   -1.1000   -6.9060 C.3   267  TRP267      0.0550
    165  CG        -5.1910   -0.2130   -7.9860 C.ar  267  TRP267      0.0003
    166  CD1       -6.4930    0.1350   -8.1490 C.ar  267  TRP267      0.0946
    167  CD2       -4.4720    0.3970   -9.0600 C.ar  267  TRP267      0.0152
    168  NE1       -6.6360    0.9400   -9.2600 N.ar  267  TRP267     -0.2442
    169  CE2       -5.4050    1.1130   -9.8340 C.ar  267  TRP267      0.0810
    170  CE3       -3.1300    0.3990   -9.4480 C.ar  267  TRP267      0.0012
    171  CZ2       -5.0350    1.8380  -10.9650 C.ar  267  TRP267      0.0191
    172  CZ3       -2.7640    1.1200  -10.5670 C.ar  267  TRP267      0.0001
    173  CH2       -3.7150    1.8280  -11.3140 C.ar  267  TRP267      0.0015
    174  N          1.7550   -7.4270  -10.3770 N.3   271  LYS271     -0.1245
    175  CA         1.5940   -7.0650  -11.7780 C.3   271  LYS271      0.1561
    176  C          1.3710   -8.3110  -12.6300 C.2   271  LYS271      0.2260
    177  O          0.4280   -8.3750  -13.4310 O.2   271  LYS271     -0.2867
    178  CB         2.8170   -6.2920  -12.2430 C.3   271  LYS271      0.0271
    179  CG         2.7540   -5.9460  -13.7070 C.3   271  LYS271      0.0035
    180  CD         3.9990   -5.1760  -14.1290 C.3   271  LYS271      0.0206
    181  CE         4.0050   -4.8950  -15.6250 C.3   271  LYS271      0.1093
    182  NZ         4.7730   -3.6080  -15.9100 N.3   271  LYS271     -0.1314
@<TRIPOS>BOND
     1    66    65    1
     2    65    64    1
     3    64    63    1
     4    63    62    1
     5    61    60    2
     6    62    59    1
     7    59    60    1
     8    59    58    1
     9    60    67   am
    10    67    68    1
    11    58    53   am
    12    70    69    2
    13    54    53    2
    14    68    69    1
    15    68    71    1
    16    56    55    1
    17    53    52    1
    18    72    71    1
    19    71    73    1
    20    55    52    1
    21    55    57    1
    22    52    51    1
    23    51    49   am
    24    50    49    2
    25    49    48    1
    26    91    89   am
    27    90    89    2
    28    48    47    1
    29    47    42   am
    30    89    88    1
    31    45    44    1
    32     7     5    1
    33    42    41    1
    34    42    43    2
    35    39    38    2
    36    41    44    1
    37    41    40    1
    38    44    46    1
    39    88    87    1
    40     5     2    1
    41     5     6    1
    42    38    40   am
    43    38    37    1
    44    87    84    1
    45     1     2    1
    46     2     3    1
    47    81    80    2
    48   182   181    1
    49    37    36    1
    50   181   180    1
    51    84    83    1
    52    84    85    1
    53    83    76   am
    54     3     4    2
    55     3     8   am
    56    74    75    1
    57    24    22    1
    58    78    75    1
    59    78    79    1
    60    80    79    1
    61    80    82   am
    62    85    86    2
    63    36    27   am
    64    75    76    1
    65   128   127    1
    66    76    77    2
    67     8     9    1
    68    20    19    2
    69    21    22    1
    70    21    23    1
    71    21    18    1
    72   180   179    1
    73   129   127    1
    74   127   126    2
    75   179   178    1
    76    27    28    2
    77    27    26    1
    78   177   176    2
    79    17    18    1
    80    17    10   am
    81    19    18    1
    82    19    25   am
    83   113   112    2
    84     9    10    1
    85     9    12    1
    86   118   116   am
    87   126   125    1
    88   139   140   ar
    89   139   137   ar
    90   115   116    1
    91   115   114    1
    92   116   117    2
    93   176   175    1
    94    10    11    2
    95   114   111    1
    96    26    25    1
    97    26    29    1
    98   125   124    1
    99   178   175    1
   100   140   138   ar
   101   137   135   ar
   102    12    13    1
   103   112   111    1
   104   111   110    1
   105   175   174    1
   106    13    14    1
   107   124   123    1
   108   173   171   ar
   109   173   172   ar
   110    31    33   ar
   111    31    30   ar
   112    33    35   ar
   113    14    15    2
   114    14    16   am
   115    29    30    1
   116    30    32   ar
   117   123   120    1
   118    35    34   ar
   119   171   169   ar
   120   138   136   ar
   121    32    34   ar
   122   135   136   ar
   123   135   134    1
   124   122   121    2
   125   172   170   ar
   126   119   120    1
   127   134   131    1
   128   120   121    1
   129   169   168   ar
   130   169   167   ar
   131   170   167   ar
   132   133   132    2
   133   168   166   ar
   134   130   131    1
   135   167   165   ar
   136   131   132    1
   137   151   149    1
   138   101   100   ar
   139   101    99   ar
   140   148   149    2
   141   148   147    1
   142   166   165   ar
   143   149   150    1
   144   165   164    1
   145   160   161    1
   146   100    98   ar
   147    99    97   ar
   148   159   157   ar
   149   158   157   ar
   150   147   146    1
   151   161   164    1
   152   161   162    1
   153   157   156    1
   154    98    97   ar
   155    97    96    1
   156   162   163    2
   157   156   153    1
   158   146   145    1
   159   109   107   ar
   160    96    93    1
   161   153   154    1
   162   153   152    1
   163   145   142    1
   164   107   106    1
   165   107   108   ar
   166   154   155    2
   167   106   103    1
   168    95    94    2
   169    93    94    1
   170    93    92    1
   171   142   143    1
   172   142   141    1
   173    94   102   am
   174   102   103    1
   175   143   144    2
   176   103   104    1
   177   104   105    2
