@<TRIPOS>MOLECULE
tmp/5vzdA01.pdb
 132 124 0 0 0
SMALL
GASTEIGER

@<TRIPOS>ATOM
      1  N         -1.4520   -2.5330   -3.2050 N.3   182  GLY182     -0.1210
      2  CA        -0.1360   -2.8760   -3.7210 C.3   182  GLY182      0.1956
      3  C          0.6380   -3.9000   -2.9090 C.2   182  GLY182      0.2612
      4  O          0.0910   -4.7380   -2.1820 O.2   182  GLY182     -0.2717
      5  N          1.9660   -3.7960   -3.0120 N.am  183  GLY183     -0.1956
      6  CA         2.8210   -4.8370   -2.4650 C.3   183  GLY183      0.1869
      7  C          2.6880   -4.9840   -0.9670 C.2   183  GLY183      0.2309
      8  O          2.7640   -6.0830   -0.4490 O.2   183  GLY183     -0.2863
      9  N          0.0640   -7.3130   -0.0000 N.3   186  ARG186     -0.1245
     10  CA         0.4720   -8.7020   -0.2140 C.3   186  ARG186      0.1563
     11  C          1.4880   -9.1860    0.8060 C.2   186  ARG186      0.2260
     12  O          1.9680  -10.3170    0.6780 O.2   186  ARG186     -0.2867
     13  CB         1.0590   -8.8870   -1.6150 C.3   186  ARG186      0.0307
     14  CG         0.1190   -8.4560   -2.7240 C.3   186  ARG186      0.0489
     15  CD         0.5690   -9.0130   -4.0870 C.3   186  ARG186      0.2205
     16  NE         1.9650   -8.7080   -4.3670 N.pl3 186  ARG186     -0.0865
     17  CZ         2.3910   -7.5670   -4.9080 C.cat 186  ARG186      0.5346
     18  NH1        1.5150   -6.6060   -5.2520 N.pl3 186  ARG186      0.1354
     19  NH2        3.6850   -7.3850   -5.1190 N.pl3 186  ARG186      0.1354
     20  N          4.5320   -7.5960    1.6500 N.3   188  LYS188     -0.1245
     21  CA         5.9140   -7.1610    1.4730 C.3   188  LYS188      0.1561
     22  C          6.3590   -6.3210    2.6600 C.2   188  LYS188      0.2260
     23  O          5.5700   -5.5660    3.2380 O.2   188  LYS188     -0.2867
     24  CB         6.0830   -6.3800    0.1650 C.3   188  LYS188      0.0271
     25  CG         5.9640   -7.2250   -1.0880 C.3   188  LYS188      0.0035
     26  CD         6.2480   -6.4300   -2.3810 C.3   188  LYS188      0.0206
     27  CE         7.6980   -6.0470   -2.5840 C.3   188  LYS188      0.1093
     28  NZ         7.8780   -5.2490   -3.8470 N.3   188  LYS188     -0.1314
     29  N          9.0390   -1.6860   -0.1750 N.3   191  GLY191     -0.1210
     30  CA         8.4290   -1.3910   -1.4550 C.3   191  GLY191      0.1956
     31  C          9.0880   -0.2170   -2.1260 C.2   191  GLY191      0.2612
     32  O          9.8900    0.5050   -1.5280 O.2   191  GLY191     -0.2717
     33  N          8.7380   -0.0350   -3.4090 N.am  192  HIS192     -0.1961
     34  CA         9.2020    1.1210   -4.1660 C.3   192  HIS192      0.1787
     35  C          8.3150    2.3330   -3.9600 C.2   192  HIS192      0.2620
     36  O          8.7490    3.4610   -4.2460 O.2   192  HIS192     -0.2715
     37  CB         9.3260    0.7530   -5.6650 C.3   192  HIS192      0.0785
     38  CG         8.3140    1.3860   -6.5760 C.ar  192  HIS192      0.0821
     39  ND1        7.0160    0.9300   -6.6730 N.ar  192  HIS192     -0.2267
     40  CD2        8.4160    2.4090   -7.4610 C.ar  192  HIS192      0.1154
     41  CE1        6.3530    1.6520   -7.5450 C.ar  192  HIS192      0.1986
     42  NE2        7.1820    2.5560   -8.0500 N.ar  192  HIS192     -0.2212
     43  N          7.1140    2.1260   -3.4290 N.am  193  ASP193     -0.1971
     44  CA         6.1570    3.1960   -3.2170 C.3   193  ASP193      0.1709
     45  C          5.1340    2.6810   -2.2160 C.2   193  ASP193      0.2293
     46  O          5.2330    1.5450   -1.7310 O.2   193  ASP193     -0.2864
     47  CB         5.5220    3.6290   -4.5560 C.3   193  ASP193      0.1436
     48  CG         4.4980    2.6440   -5.1040 C.2   193  ASP193      0.3671
     49  OD1        4.2900    1.5360   -4.5340 O.co2 193  ASP193     -0.2456
     50  OD2        3.8750    2.9930   -6.1420 O.co2 193  ASP193     -0.2456
     51  N          0.8680    2.4200   -2.0950 N.3   195  ASP195     -0.1239
     52  CA        -0.3240    2.4860   -2.9350 C.3   195  ASP195      0.1674
     53  C         -1.5720    2.4980   -2.0480 C.2   195  ASP195      0.2266
     54  O         -1.7100    1.6460   -1.1750 O.2   195  ASP195     -0.2867
     55  CB        -0.4210    1.2840   -3.8800 C.3   195  ASP195      0.1410
     56  CG         0.8450    1.1030   -4.7020 C.2   195  ASP195      0.3668
     57  OD1        1.0270    1.8950   -5.6560 O.co2 195  ASP195     -0.2456
     58  OD2        1.6800    0.1960   -4.3620 O.co2 195  ASP195     -0.2456
     59  N          1.0120    6.4750   -4.5030 N.3   251  ASP251     -0.1239
     60  CA        -0.0230    6.4060   -5.5180 C.3   251  ASP251      0.1674
     61  C         -1.3770    6.4480   -4.8350 C.2   251  ASP251      0.2266
     62  O         -1.6210    5.6900   -3.9020 O.2   251  ASP251     -0.2867
     63  CB         0.1020    5.1490   -6.3640 C.3   251  ASP251      0.1410
     64  CG         1.2910    5.2130   -7.2890 C.2   251  ASP251      0.3668
     65  OD1        1.6380    6.3520   -7.7190 O.co2 251  ASP251     -0.2456
     66  OD2        1.8990    4.1610   -7.5670 O.co2 251  ASP251     -0.2456
     67  N         -7.5230   -5.1160   -8.5280 N.3   266  GLY266     -0.1210
     68  CA        -6.6100   -4.6520   -9.5450 C.3   266  GLY266      0.1956
     69  C         -5.4000   -3.9340   -9.0030 C.2   266  GLY266      0.2612
     70  O         -4.3390   -3.9560   -9.6240 O.2   266  GLY266     -0.2717
     71  N         -5.5280   -3.3070   -7.8430 N.am  267  ALA267     -0.1965
     72  CA        -4.4280   -2.5780   -7.2510 C.3   267  ALA267      0.1728
     73  C         -3.6030   -3.4110   -6.3000 C.2   267  ALA267      0.2617
     74  O         -2.5470   -2.9310   -5.8670 O.2   267  ALA267     -0.2715
     75  CB        -4.9560   -1.3790   -6.4610 C.3   267  ALA267      0.0334
     76  N         -4.0700   -4.5990   -5.9090 N.am  268  THR268     -0.1937
     77  CA        -3.3370   -5.4190   -4.9450 C.3   268  THR268      0.2028
     78  C         -2.2540   -6.2350   -5.6320 C.2   268  THR268      0.2643
     79  O         -1.2370   -6.5580   -5.0050 O.2   268  THR268     -0.2714
     80  CB        -4.3190   -6.2730   -4.1290 C.3   268  THR268      0.1808
     81  OG1       -5.0910   -5.3710   -3.3240 O.3   268  THR268     -0.2208
     82  CG2       -3.6060   -7.1960   -3.1850 C.3   268  THR268      0.0379
     83  N         -2.4270   -6.5370   -6.9080 N.am  269  GLY269     -0.1939
     84  CA        -1.3820   -7.2060   -7.6820 C.3   269  GLY269      0.2014
     85  C         -1.2190   -8.6840   -7.3050 C.2   269  GLY269      0.2640
     86  O         -2.1890   -9.3170   -6.8660 O.2   269  GLY269     -0.2714
     87  N         -0.0490   -9.2630   -7.5630 N.am  270  SER270     -0.1935
     88  CA         1.0610   -8.6470   -8.2630 C.3   270  SER270      0.2055
     89  C          0.7070   -8.2900   -9.7050 C.2   270  SER270      0.2642
     90  O         -0.3480   -8.6740  -10.1930 O.2   270  SER270     -0.2714
     91  CB         2.2620   -9.5660   -8.2930 C.3   270  SER270      0.2130
     92  OG         1.9900  -10.7010   -9.1240 O.3   270  SER270     -0.2179
     93  N          1.5890   -7.5210  -10.3450 N.am  271  LYS271     -0.1977
     94  CA         1.4040   -7.1650  -11.7530 C.3   271  LYS271      0.1596
     95  C          1.1850   -8.4130  -12.6120 C.2   271  LYS271      0.2287
     96  O          0.2290   -8.4810  -13.4080 O.2   271  LYS271     -0.2864
     97  CB         2.6120   -6.3730  -12.2420 C.3   271  LYS271      0.0298
     98  CG         2.6250   -6.0760  -13.7340 C.3   271  LYS271      0.0038
     99  CD         3.8510   -5.2650  -14.1310 C.3   271  LYS271      0.0206
    100  CE         3.8590   -5.0600  -15.6400 C.3   271  LYS271      0.1093
    101  NZ         4.7700   -3.9410  -16.0540 N.3   271  LYS271     -0.1314
    102  N         -2.2230   -9.9840  -11.9760 N.3   274  GLN274     -0.1231
    103  CA        -3.3320   -9.2850  -12.6240 C.3   274  GLN274      0.1698
    104  C         -3.3820   -9.5700  -14.1230 C.2   274  GLN274      0.2592
    105  O         -4.4690   -9.7730  -14.6700 O.2   274  GLN274     -0.2718
    106  CB        -3.2560   -7.7810  -12.3860 C.3   274  GLN274      0.0381
    107  CG        -3.5120   -7.3870  -10.9340 C.3   274  GLN274      0.0905
    108  CD        -4.7660   -7.9940  -10.3780 C.2   274  GLN274      0.2608
    109  OE1       -5.8530   -7.7780  -10.8940 O.2   274  GLN274     -0.2717
    110  NE2       -4.6200   -8.8160   -9.3440 N.am  274  GLN274     -0.0878
    111  N         -2.2290   -9.6040  -14.7910 N.am  275  ARG275     -0.1980
    112  CA        -2.1880   -9.9180  -16.2170 C.3   275  ARG275      0.1597
    113  C         -2.7150  -11.3210  -16.4460 C.2   275  ARG275      0.2287
    114  O         -3.5110  -11.5720  -17.3680 O.2   275  ARG275     -0.2864
    115  CB        -0.7590   -9.8000  -16.7510 C.3   275  ARG275      0.0334
    116  CG        -0.2210   -8.4050  -16.7540 C.3   275  ARG275      0.0492
    117  CD         1.2360   -8.3520  -17.1470 C.3   275  ARG275      0.2205
    118  NE         1.3630   -8.5010  -18.5820 N.pl3 275  ARG275     -0.0865
    119  CZ         2.3790   -8.0740  -19.3020 C.cat 275  ARG275      0.5346
    120  NH1        3.4410   -7.5260  -18.7080 N.pl3 275  ARG275      0.1354
    121  NH2        2.3410   -8.2070  -20.6130 N.pl3 275  ARG275      0.1354
    122  N         -6.5540  -11.4600  -15.7920 N.3   278  ARG278     -0.1245
    123  CA        -7.3070  -10.8750  -16.8940 C.3   278  ARG278      0.1563
    124  C         -7.2540  -11.7820  -18.1160 C.2   278  ARG278      0.2260
    125  O         -8.2480  -11.9230  -18.8540 O.2   278  ARG278     -0.2867
    126  CB        -6.7610   -9.4800  -17.1900 C.3   278  ARG278      0.0307
    127  CG        -7.0800   -8.5100  -16.0540 C.3   278  ARG278      0.0489
    128  CD        -6.2710   -7.2410  -16.0810 C.3   278  ARG278      0.2205
    129  NE        -6.6880   -6.4300  -14.9420 N.pl3 278  ARG278     -0.0865
    130  CZ        -6.4430   -5.1390  -14.8060 C.cat 278  ARG278      0.5346
    131  NH1       -5.7440   -4.4900  -15.7230 N.pl3 278  ARG278      0.1354
    132  NH2       -6.8750   -4.5120  -13.7280 N.pl3 278  ARG278      0.1354
@<TRIPOS>BOND
     1   121   119    1
     2   119   120    1
     3   119   118    2
     4   125   124    2
     5   118   117    1
     6   124   123    1
     7   114   113    2
     8   126   123    1
     9   126   127    1
    10   117   116    1
    11   123   122    1
    12   116   115    1
    13   115   112    1
    14   113   112    1
    15   112   111    1
    16   128   127    1
    17   128   129    1
    18   101   100    1
    19   131   130    1
    20   100    99    1
    21   129   130    2
    22   130   132    1
    23   111   104   am
    24   105   104    2
    25    99    98    1
    26   104   103    1
    27    98    97    1
    28    96    95    2
    29   103   106    1
    30   103   102    1
    31    95    94    1
    32   106   107    1
    33    97    94    1
    34    94    93    1
    35   107   108    1
    36   109   108    2
    37   108   110   am
    38    93    89   am
    39    90    89    2
    40    89    88    1
    41    70    69    2
    42    68    69    1
    43    68    67    1
    44    92    91    1
    45    69    71   am
    46    91    88    1
    47    88    87    1
    48    42    41   ar
    49    42    40   ar
    50    71    72    1
    51    65    64   ar
    52    84    85    1
    53    84    83    1
    54    66    64   ar
    55    87    85   am
    56    41    39   ar
    57    40    38   ar
    58    85    86    2
    59    64    63    1
    60    72    75    1
    61    72    73    1
    62    83    78   am
    63    39    38   ar
    64    38    37    1
    65    63    60    1
    66    73    76   am
    67    73    74    2
    68    50    48   ar
    69    76    77    1
    70    37    34    1
    71    57    56   ar
    72    78    79    2
    73    78    77    1
    74    60    61    1
    75    60    59    1
    76    18    17    1
    77    19    17    1
    78    48    47    1
    79    48    49   ar
    80    77    80    1
    81    17    16    2
    82    61    62    2
    83    56    58   ar
    84    56    55    1
    85    47    44    1
    86    16    15    1
    87    36    35    2
    88    34    35    1
    89    34    33    1
    90    80    81    1
    91    80    82    1
    92    15    14    1
    93    35    43   am
    94    55    52    1
    95    28    27    1
    96     2     1    1
    97     2     3    1
    98    43    44    1
    99    33    31   am
   100    44    45    1
   101     5     3   am
   102     5     6    1
   103    52    51    1
   104    52    53    1
   105     3     4    2
   106    14    13    1
   107    27    26    1
   108     6     7    1
   109    26    25    1
   110    45    46    2
   111    31    32    2
   112    31    30    1
   113    53    54    2
   114    13    10    1
   115    30    29    1
   116    25    24    1
   117     7     8    2
   118    10     9    1
   119    10    11    1
   120    24    21    1
   121    12    11    2
   122    21    20    1
   123    21    22    1
   124    22    23    2
