@<TRIPOS>MOLECULE
tmp/5vzdA00.pdb
 102 102 0 0 0
SMALL
GASTEIGER

@<TRIPOS>ATOM
      1  N          6.4810  -10.8540  -25.5940 N.3    37  GLY37      -0.1210
      2  CA         6.1600  -12.2660  -25.4870 C.3    37  GLY37       0.1956
      3  C          7.2170  -13.0360  -24.7150 C.2    37  GLY37       0.2611
      4  O          6.9070  -13.8420  -23.8340 O.2    37  GLY37      -0.2717
      5  N          8.4860  -12.8210  -25.0660 N.am   38  ARG38      -0.1979
      6  CA         9.5700  -13.4460  -24.3140 C.3    38  ARG38       0.1597
      7  C          9.5420  -13.0270  -22.8480 C.2    38  ARG38       0.2287
      8  O          9.7390  -13.8590  -21.9580 O.2    38  ARG38      -0.2864
      9  CB        10.9210  -13.0930  -24.9330 C.3    38  ARG38       0.0334
     10  CG        11.1220  -13.5800  -26.3600 C.3    38  ARG38       0.0492
     11  CD        12.4720  -13.1290  -26.9150 C.3    38  ARG38       0.2205
     12  NE        13.5560  -14.0280  -26.5450 N.pl3  38  ARG38      -0.0865
     13  CZ        14.5630  -13.7530  -25.7130 C.cat  38  ARG38       0.5346
     14  NH1       14.6740  -12.5690  -25.1100 N.pl3  38  ARG38       0.1354
     15  NH2       15.4790  -14.6900  -25.4860 N.pl3  38  ARG38       0.1354
     16  N          7.0210  -12.2600  -21.0680 N.3    40  LEU40      -0.1231
     17  CA         5.9420  -12.9550  -20.3780 C.3    40  LEU40       0.1693
     18  C          6.3100  -14.4030  -20.0840 C.2    40  LEU40       0.2593
     19  O          6.0520  -14.9070  -18.9800 O.2    40  LEU40      -0.2718
     20  CB         4.6370  -12.8580  -21.1730 C.3    40  LEU40       0.0284
     21  CG         3.8300  -11.6070  -20.9950 C.3    40  LEU40       0.0019
     22  CD1        2.7510  -11.6130  -22.0670 C.3    40  LEU40       0.0001
     23  CD2        3.2370  -11.5600  -19.5780 C.3    40  LEU40       0.0001
     24  N          6.9290  -15.1000  -21.0440 N.am   41  THR41      -0.1939
     25  CA         7.2630  -16.4930  -20.8000 C.3    41  THR41       0.2028
     26  C          8.2880  -16.6260  -19.6810 C.2    41  THR41       0.2642
     27  O          8.1410  -17.4810  -18.8030 O.2    41  THR41      -0.2714
     28  CB         7.7420  -17.1470  -22.0930 C.3    41  THR41       0.1808
     29  OG1        6.5790  -17.4560  -22.8550 O.3    41  THR41      -0.2208
     30  CG2        8.5180  -18.4030  -21.8210 C.3    41  THR41       0.0379
     31  N          9.3160  -15.7770  -19.6730 N.am   42  PHE42      -0.1973
     32  CA        10.3060  -15.9000  -18.6120 C.3    42  PHE42       0.1639
     33  C          9.6970  -15.5270  -17.2660 C.2    42  PHE42       0.2290
     34  O         10.0290  -16.1450  -16.2510 O.2    42  PHE42      -0.2864
     35  CB        11.5410  -15.0430  -18.9050 C.3    42  PHE42       0.0560
     36  CG        12.4550  -15.6140  -19.9740 C.ar   42  PHE42      -0.0200
     37  CD1       12.9210  -16.9160  -19.9060 C.ar   42  PHE42      -0.0042
     38  CD2       12.8530  -14.8200  -21.0350 C.ar   42  PHE42      -0.0042
     39  CE1       13.7690  -17.4270  -20.9000 C.ar   42  PHE42      -0.0003
     40  CE2       13.7010  -15.3260  -22.0360 C.ar   42  PHE42      -0.0003
     41  CZ        14.1560  -16.6200  -21.9540 C.ar   42  PHE42      -0.0000
     42  N          6.5370  -15.9120  -16.4290 N.3    44  ARG44      -0.1245
     43  CA         5.6560  -17.0120  -16.0540 C.3    44  ARG44       0.1563
     44  C          6.4510  -18.2010  -15.5450 C.2    44  ARG44       0.2260
     45  O          6.0540  -18.8390  -14.5600 O.2    44  ARG44      -0.2867
     46  CB         4.7850  -17.4170  -17.2330 C.3    44  ARG44       0.0307
     47  CG         3.7300  -16.4010  -17.6150 C.3    44  ARG44       0.0489
     48  CD         3.1760  -16.7360  -18.9630 C.3    44  ARG44       0.2205
     49  NE         2.1610  -15.7940  -19.4130 N.pl3  44  ARG44      -0.0865
     50  CZ         1.7410  -15.7290  -20.6720 C.cat  44  ARG44       0.5346
     51  NH1        2.2540  -16.5260  -21.5950 N.pl3  44  ARG44       0.1354
     52  NH2        0.8160  -14.8590  -21.0080 N.pl3  44  ARG44       0.1354
     53  N          5.3460  -23.6460  -18.9680 N.3    67  HIS67      -0.1226
     54  CA         6.2200  -22.5340  -19.3480 C.3    67  HIS67       0.1752
     55  C          7.6960  -22.8760  -19.2910 C.2    67  HIS67       0.2596
     56  O          8.5280  -21.9720  -19.4340 O.2    67  HIS67      -0.2718
     57  CB         5.9190  -21.2790  -18.5180 C.3    67  HIS67       0.0759
     58  CG         4.4690  -20.9430  -18.5450 C.ar   67  HIS67       0.0818
     59  ND1        3.8280  -20.5320  -19.6940 N.ar   67  HIS67      -0.2268
     60  CD2        3.5060  -21.0840  -17.6040 C.ar   67  HIS67       0.1154
     61  CE1        2.5380  -20.3860  -19.4450 C.ar   67  HIS67       0.1986
     62  NE2        2.3200  -20.7120  -18.1810 N.ar   67  HIS67      -0.2212
     63  N          8.0520  -24.1560  -19.1180 N.am   68  PHE68      -0.1962
     64  CA         9.4360  -24.6110  -19.1880 C.3    68  PHE68       0.1771
     65  C          9.6330  -25.3690  -20.4890 C.2    68  PHE68       0.2620
     66  O          9.2590  -26.5360  -20.6090 O.2    68  PHE68      -0.2715
     67  CB         9.8020  -25.4430  -17.9710 C.3    68  PHE68       0.0574
     68  CG        10.2090  -24.5790  -16.8190 C.ar   68  PHE68      -0.0200
     69  CD1       11.5050  -24.1260  -16.7320 C.ar   68  PHE68      -0.0042
     70  CD2        9.2760  -24.1120  -15.9190 C.ar   68  PHE68      -0.0042
     71  CE1       11.8890  -23.2600  -15.7370 C.ar   68  PHE68      -0.0003
     72  CE2        9.6440  -23.2520  -14.9260 C.ar   68  PHE68      -0.0003
     73  CZ        10.9610  -22.8190  -14.8220 C.ar   68  PHE68      -0.0000
     74  N         10.2370  -24.6880  -21.4540 N.am   69  GLY69      -0.1940
     75  CA        10.7080  -25.2930  -22.6630 C.3    69  GLY69       0.2014
     76  C         12.2160  -25.3540  -22.7090 C.2    69  GLY69       0.2639
     77  O         12.9030  -25.3190  -21.6770 O.2    69  GLY69      -0.2714
     78  N         12.7450  -25.4290  -23.9280 N.am   70  GLU70      -0.1963
     79  CA        14.1780  -25.6650  -24.0800 C.3    70  GLU70       0.1733
     80  C         15.0020  -24.5530  -23.4420 C.2    70  GLU70       0.2616
     81  O         16.0170  -24.8240  -22.7890 O.2    70  GLU70      -0.2715
     82  CB        14.5430  -25.8050  -25.5540 C.3    70  GLU70       0.0429
     83  CG        16.0140  -26.0410  -25.7660 C.3    70  GLU70       0.1163
     84  CD        16.3360  -26.3290  -27.2020 C.2    70  GLU70       0.3649
     85  OE1       15.8590  -27.3630  -27.7090 O.co2  70  GLU70      -0.2457
     86  OE2       17.0640  -25.5320  -27.8190 O.co2  70  GLU70      -0.2457
     87  N         14.5880  -23.2980  -23.6120 N.am   71  HIS71      -0.1959
     88  CA        15.4100  -22.1760  -23.1560 C.3    71  HIS71       0.1787
     89  C         15.3860  -22.0390  -21.6340 C.2    71  HIS71       0.2620
     90  O         16.4380  -22.0380  -20.9790 O.2    71  HIS71      -0.2715
     91  CB        14.9420  -20.8830  -23.8300 C.3    71  HIS71       0.0785
     92  CG        15.9380  -19.7660  -23.7730 C.ar   71  HIS71       0.0821
     93  ND1       16.0340  -18.8170  -24.7640 N.ar   71  HIS71      -0.2267
     94  CD2       16.8930  -19.4550  -22.8640 C.ar   71  HIS71       0.1154
     95  CE1       17.0010  -17.9670  -24.4720 C.ar   71  HIS71       0.1986
     96  NE2       17.5360  -18.3300  -23.3210 N.ar   71  HIS71      -0.2212
     97  N         14.1960  -21.9390  -21.0340 N.am   72  SER72      -0.1950
     98  CA        14.1210  -21.8040  -19.5810 C.3    72  SER72       0.1924
     99  C         14.6820  -23.0350  -18.8810 C.2    72  SER72       0.2314
    100  O         15.2690  -22.9200  -17.8060 O.2    72  SER72      -0.2863
    101  CB        12.6790  -21.5560  -19.1290 C.3    72  SER72       0.2116
    102  OG        12.1400  -20.4100  -19.7520 O.3    72  SER72      -0.2180
@<TRIPOS>BOND
     1    86    84   ar
     2    85    84   ar
     3    84    83    1
     4    11    12    1
     5    11    10    1
     6    12    13    2
     7    10     9    1
     8    83    82    1
     9    13    15    1
    10    13    14    1
    11     1     2    1
    12    82    79    1
    13     2     3    1
    14     5     3   am
    15     5     6    1
    16     9     6    1
    17    93    95   ar
    18    93    92   ar
    19     3     4    2
    20    95    96   ar
    21     6     7    1
    22    79    78    1
    23    79    80    1
    24    78    76   am
    25    91    92    1
    26    91    88    1
    27    92    94   ar
    28    87    80   am
    29    87    88    1
    30    80    81    2
    31    96    94   ar
    32    88    89    1
    33    29    28    1
    34     7     8    2
    35    76    75    1
    36    76    77    2
    37    75    74    1
    38    28    30    1
    39    28    25    1
    40    22    21    1
    41    40    41   ar
    42    40    38   ar
    43    41    39   ar
    44    89    97   am
    45    89    90    2
    46    51    50    1
    47    74    65   am
    48    20    21    1
    49    20    17    1
    50    16    17    1
    51    24    25    1
    52    24    18   am
    53    38    36   ar
    54    97    98    1
    55    52    50    1
    56    21    23    1
    57    39    37   ar
    58    25    26    1
    59    50    49    2
    60    66    65    2
    61    65    64    1
    62    17    18    1
    63    18    19    2
    64    36    37   ar
    65    36    35    1
    66   102   101    1
    67    59    61   ar
    68    59    58   ar
    69    26    31   am
    70    26    27    2
    71    31    32    1
    72    98   101    1
    73    98    99    1
    74    61    62   ar
    75    56    55    2
    76    49    48    1
    77    54    55    1
    78    54    53    1
    79    54    57    1
    80    55    63   am
    81    64    63    1
    82    64    67    1
    83    48    47    1
    84    35    32    1
    85    99   100    2
    86    32    33    1
    87    58    57    1
    88    58    60   ar
    89    62    60   ar
    90    67    68    1
    91    47    46    1
    92    33    34    2
    93    46    43    1
    94    68    69   ar
    95    68    70   ar
    96    69    71   ar
    97    42    43    1
    98    43    44    1
    99    70    72   ar
   100    71    73   ar
   101    44    45    2
   102    72    73   ar
