@<TRIPOS>MOLECULE
tmp/5vzfA01.pdb
 84 79 0 0 0
SMALL
GASTEIGER

@<TRIPOS>ATOM
      1  N         -1.3800   -2.5900   -3.3040 N.3   182  GLY182     -0.1210
      2  CA        -0.0740   -2.9490   -3.8200 C.3   182  GLY182      0.1956
      3  C          0.6890   -3.9740   -3.0030 C.2   182  GLY182      0.2612
      4  O          0.1370   -4.8210   -2.3020 O.2   182  GLY182     -0.2717
      5  N          2.0120   -3.8950   -3.1190 N.am  183  GLY183     -0.1956
      6  CA         2.8690   -4.9050   -2.5390 C.3   183  GLY183      0.1869
      7  C          2.7460   -4.9920   -1.0410 C.2   183  GLY183      0.2309
      8  O          2.8180   -6.0740   -0.4820 O.2   183  GLY183     -0.2863
      9  N          0.0930   -7.2950   -0.0390 N.3   186  ARG186     -0.1245
     10  CA         0.5090   -8.6890   -0.2440 C.3   186  ARG186      0.1563
     11  C          1.5180   -9.1610    0.7800 C.2   186  ARG186      0.2260
     12  O          2.0040  -10.2910    0.6460 O.2   186  ARG186     -0.2867
     13  CB         1.0990   -8.8990   -1.6330 C.3   186  ARG186      0.0307
     14  CG         0.1400   -8.4830   -2.7790 C.3   186  ARG186      0.0489
     15  CD         0.5420   -9.0500   -4.1440 C.3   186  ARG186      0.2205
     16  NE         1.9340   -8.7780   -4.4710 N.pl3 186  ARG186     -0.0865
     17  CZ         2.3670   -7.6120   -4.9970 C.cat 186  ARG186      0.5346
     18  NH1        1.5160   -6.6280   -5.3260 N.pl3 186  ARG186      0.1354
     19  NH2        3.6530   -7.4400   -5.2250 N.pl3 186  ARG186      0.1354
     20  N          4.5870   -7.4870    1.6590 N.3   188  LYS188     -0.1245
     21  CA         5.9780   -7.0690    1.5050 C.3   188  LYS188      0.1561
     22  C          6.4200   -6.2400    2.7010 C.2   188  LYS188      0.2260
     23  O          5.6450   -5.5010    3.2960 O.2   188  LYS188     -0.2867
     24  CB         6.1800   -6.2830    0.1990 C.3   188  LYS188      0.0271
     25  CG         6.0580   -7.1390   -1.0420 C.3   188  LYS188      0.0035
     26  CD         6.3370   -6.3600   -2.3350 C.3   188  LYS188      0.0206
     27  CE         7.7980   -6.1440   -2.6130 C.3   188  LYS188      0.1093
     28  NZ         7.9080   -5.5290   -3.9690 N.3   188  LYS188     -0.1314
     29  N          9.3200   -1.7440   -0.1750 N.3   191  GLY191     -0.1210
     30  CA         8.7580   -1.4390   -1.4740 C.3   191  GLY191      0.1956
     31  C          9.4200   -0.2190   -2.0670 C.2   191  GLY191      0.2612
     32  O         10.2490    0.4290   -1.4320 O.2   191  GLY191     -0.2717
     33  N          9.0720    0.0890   -3.2990 N.am  192  HIS192     -0.1961
     34  CA         9.5860    1.3080   -3.9030 C.3   192  HIS192      0.1787
     35  C          8.5150    2.3700   -4.0450 C.2   192  HIS192      0.2620
     36  O          8.7920    3.4550   -4.5790 O.2   192  HIS192     -0.2715
     37  CB        10.2350    0.9810   -5.2430 C.3   192  HIS192      0.0785
     38  CG        11.4150    0.0750   -5.0940 C.ar  192  HIS192      0.0821
     39  ND1       12.3680    0.2690   -4.1170 N.ar  192  HIS192     -0.2267
     40  CD2       11.7700   -1.0580   -5.7450 C.ar  192  HIS192      0.1154
     41  CE1       13.2790   -0.6790   -4.1960 C.ar  192  HIS192      0.1986
     42  NE2       12.9390   -1.5000   -5.1750 N.ar  192  HIS192     -0.2212
     43  N          7.3050    2.0850   -3.5740 N.am  193  ASP193     -0.1971
     44  CA         6.2670    3.0890   -3.4790 C.3   193  ASP193      0.1709
     45  C          5.2180    2.5460   -2.5230 C.2   193  ASP193      0.2293
     46  O          5.2930    1.3970   -2.0540 O.2   193  ASP193     -0.2864
     47  CB         5.6890    3.4600   -4.8720 C.3   193  ASP193      0.1436
     48  CG         4.7500    2.3920   -5.5000 C.2   193  ASP193      0.3671
     49  OD1        4.3260    1.4120   -4.8520 O.co2 193  ASP193     -0.2456
     50  OD2        4.3630    2.6010   -6.6790 O.co2 193  ASP193     -0.2456
     51  N          0.9260    2.3360   -2.2070 N.3   195  ASP195     -0.1239
     52  CA        -0.2830    2.3790   -3.0210 C.3   195  ASP195      0.1674
     53  C         -1.5020    2.4240   -2.1060 C.2   195  ASP195      0.2266
     54  O         -1.6200    1.5910   -1.2010 O.2   195  ASP195     -0.2867
     55  CB        -0.3760    1.1510   -3.9380 C.3   195  ASP195      0.1410
     56  CG         0.8620    0.9780   -4.8260 C.2   195  ASP195      0.3668
     57  OD1        0.9670    1.7510   -5.7980 O.co2 195  ASP195     -0.2456
     58  OD2        1.7110    0.0840   -4.5840 O.co2 195  ASP195     -0.2456
     59  N         -4.1170   -4.5320   -5.9050 N.3   267  THR267     -0.1203
     60  CA        -3.3420   -5.3850   -5.0150 C.3   267  THR267      0.1994
     61  C         -2.3350   -6.2500   -5.7760 C.2   267  THR267      0.2618
     62  O         -1.3110   -6.6350   -5.1920 O.2   267  THR267     -0.2717
     63  CB        -4.3140   -6.2230   -4.1680 C.3   267  THR267      0.1784
     64  OG1       -5.0480   -5.3430   -3.3080 O.3   267  THR267     -0.2211
     65  CG2       -3.5970   -7.2230   -3.2710 C.3   267  THR267      0.0376
     66  N         -2.5560   -6.5000   -7.0610 N.am  268  GLY268     -0.1942
     67  CA        -1.5540   -7.1980   -7.8820 C.3   268  GLY268      0.2014
     68  C         -1.3500   -8.6550   -7.4600 C.2   268  GLY268      0.2640
     69  O         -2.2750   -9.2790   -6.9230 O.2   268  GLY268     -0.2714
     70  N         -0.1700   -9.2240   -7.7040 N.am  269  SER269     -0.1935
     71  CA         0.9320   -8.5920   -8.3780 C.3   269  SER269      0.2055
     72  C          0.5820   -8.2480   -9.8320 C.2   269  SER269      0.2642
     73  O         -0.4500   -8.6390  -10.3330 O.2   269  SER269     -0.2714
     74  CB         2.1170   -9.5180   -8.3300 C.3   269  SER269      0.2130
     75  OG         1.8500  -10.6300   -9.1620 O.3   269  SER269     -0.2179
     76  N          1.4940   -7.5360  -10.4900 N.am  270  LYS270     -0.1977
     77  CA         1.3020   -7.2030  -11.9050 C.3   270  LYS270      0.1596
     78  C          1.0870   -8.4610  -12.7450 C.2   270  LYS270      0.2287
     79  O          0.1240   -8.5590  -13.5240 O.2   270  LYS270     -0.2864
     80  CB         2.5120   -6.4260  -12.4110 C.3   270  LYS270      0.0298
     81  CG         2.5080   -6.2320  -13.9290 C.3   270  LYS270      0.0038
     82  CD         3.7690   -5.4870  -14.4070 C.3   270  LYS270      0.0206
     83  CE         3.8640   -5.5160  -15.9260 C.3   270  LYS270      0.1093
     84  NZ         5.1010   -4.8490  -16.4350 N.3   270  LYS270     -0.1314
@<TRIPOS>BOND
     1    84    83    1
     2    83    82    1
     3    82    81    1
     4    81    80    1
     5    79    78    2
     6    78    77    1
     7    80    77    1
     8    77    76    1
     9    76    72   am
    10    73    72    2
    11    72    71    1
    12    75    74    1
    13    71    74    1
    14    71    70    1
    15    67    68    1
    16    67    66    1
    17    70    68   am
    18    68    69    2
    19    66    61   am
    20    50    48   ar
    21    59    60    1
    22    57    56   ar
    23    61    62    2
    24    61    60    1
    25    40    42   ar
    26    40    38   ar
    27    48    47    1
    28    48    49   ar
    29    18    17    1
    30    37    38    1
    31    37    34    1
    32    19    17    1
    33    42    41   ar
    34    38    39   ar
    35    60    63    1
    36    17    16    2
    37    47    44    1
    38    56    58   ar
    39    56    55    1
    40    36    35    2
    41    16    15    1
    42    41    39   ar
    43    63    64    1
    44    63    65    1
    45    15    14    1
    46    35    34    1
    47    35    43   am
    48    28    27    1
    49    55    52    1
    50    34    33    1
    51     2     1    1
    52     2     3    1
    53    43    44    1
    54    44    45    1
    55    33    31   am
    56     5     3   am
    57     5     6    1
    58    52    51    1
    59    52    53    1
    60     3     4    2
    61    14    13    1
    62    27    26    1
    63     6     7    1
    64    45    46    2
    65    26    25    1
    66    53    54    2
    67    31    30    1
    68    31    32    2
    69    13    10    1
    70    30    29    1
    71    25    24    1
    72     7     8    2
    73    10     9    1
    74    10    11    1
    75    24    21    1
    76    12    11    2
    77    21    20    1
    78    21    22    1
    79    22    23    2
