@<TRIPOS>MOLECULE
tmp/5vziA02.pdb
 148 142 0 0 0
SMALL
GASTEIGER

@<TRIPOS>ATOM
      1  N         -1.4470   -2.5560   -3.3660 N.3   182  GLY182     -0.1210
      2  CA        -0.1560   -2.9130   -3.9200 C.3   182  GLY182      0.1956
      3  C          0.6240   -3.9150   -3.0910 C.2   182  GLY182      0.2612
      4  O          0.0610   -4.7500   -2.3710 O.2   182  GLY182     -0.2717
      5  N          1.9510   -3.8340   -3.2180 N.am  183  GLY183     -0.1942
      6  CA         2.8080   -4.8440   -2.6480 C.3   183  GLY183      0.2014
      7  C          2.6940   -4.9410   -1.1520 C.2   183  GLY183      0.2638
      8  O          2.8260   -6.0280   -0.5890 O.2   183  GLY183     -0.2714
      9  N          2.4740   -3.8120   -0.4720 N.am  184  PHE184     -0.1973
     10  CA         2.3930   -3.8990    0.9770 C.3   184  PHE184      0.1639
     11  C          1.1690   -4.6870    1.4170 C.2   184  PHE184      0.2290
     12  O          1.2100   -5.4090    2.4260 O.2   184  PHE184     -0.2864
     13  CB         2.4350   -2.5020    1.6060 C.3   184  PHE184      0.0560
     14  CG         3.7960   -1.8610    1.5680 C.ar  184  PHE184     -0.0200
     15  CD1        4.8260   -2.3550    2.3680 C.ar  184  PHE184     -0.0042
     16  CD2        4.0830   -0.7970    0.7000 C.ar  184  PHE184     -0.0042
     17  CE1        6.0730   -1.7910    2.3420 C.ar  184  PHE184     -0.0003
     18  CE2        5.3500   -0.2360    0.6650 C.ar  184  PHE184     -0.0003
     19  CZ         6.3400   -0.7290    1.4940 C.ar  184  PHE184     -0.0000
     20  N          0.1060   -7.2820   -0.1190 N.3   186  ARG186     -0.1245
     21  CA         0.5390   -8.6670   -0.3240 C.3   186  ARG186      0.1563
     22  C          1.5590   -9.1410    0.6930 C.2   186  ARG186      0.2260
     23  O          2.0370  -10.2690    0.5670 O.2   186  ARG186     -0.2867
     24  CB         1.0790   -8.8740   -1.7410 C.3   186  ARG186      0.0307
     25  CG         0.1500   -8.4150   -2.8760 C.3   186  ARG186      0.0489
     26  CD         0.5640   -9.0240   -4.2060 C.3   186  ARG186      0.2205
     27  NE         1.9550   -8.7340   -4.5270 N.pl3 186  ARG186     -0.0865
     28  CZ         2.3970   -7.5880   -5.0620 C.cat 186  ARG186      0.5346
     29  NH1        1.5440   -6.6260   -5.4290 N.pl3 186  ARG186      0.1354
     30  NH2        3.6870   -7.4060   -5.2880 N.pl3 186  ARG186      0.1354
     31  N          4.6090   -7.4820    1.4890 N.3   188  LYS188     -0.1245
     32  CA         5.9840   -7.0230    1.3430 C.3   188  LYS188      0.1561
     33  C          6.4060   -6.1780    2.5300 C.2   188  LYS188      0.2260
     34  O          5.6110   -5.4360    3.1260 O.2   188  LYS188     -0.2867
     35  CB         6.1570   -6.2470    0.0340 C.3   188  LYS188      0.0271
     36  CG         6.0080   -7.0680   -1.2110 C.3   188  LYS188      0.0035
     37  CD         6.2910   -6.2900   -2.4920 C.3   188  LYS188      0.0206
     38  CE         7.7630   -6.0770   -2.7660 C.3   188  LYS188      0.1093
     39  NZ         7.9330   -5.3660   -4.0810 N.3   188  LYS188     -0.1314
     40  N          9.1560   -1.5740   -0.5420 N.3   191  GLY191     -0.1210
     41  CA         8.5360   -1.2850   -1.8230 C.3   191  GLY191      0.1956
     42  C          9.1740   -0.0880   -2.4860 C.2   191  GLY191      0.2612
     43  O          9.9370    0.6460   -1.8610 O.2   191  GLY191     -0.2717
     44  N          8.8270    0.1070   -3.7570 N.am  192  HIS192     -0.1961
     45  CA         9.2580    1.2890   -4.4970 C.3   192  HIS192      0.1787
     46  C          8.3340    2.4640   -4.2580 C.2   192  HIS192      0.2620
     47  O          8.7270    3.6160   -4.5090 O.2   192  HIS192     -0.2715
     48  CB         9.4270    0.9740   -6.0180 C.3   192  HIS192      0.0785
     49  CG         8.3400    1.4940   -6.9310 C.ar  192  HIS192      0.0821
     50  ND1        7.0890    0.9180   -7.0190 N.ar  192  HIS192     -0.2267
     51  CD2        8.3450    2.5020   -7.8410 C.ar  192  HIS192      0.1154
     52  CE1        6.3680    1.5600   -7.9190 C.ar  192  HIS192      0.1986
     53  NE2        7.1050    2.5270   -8.4330 N.ar  192  HIS192     -0.2212
     54  N          7.1280    2.1810   -3.7880 N.am  193  ASP193     -0.1971
     55  CA         6.1240    3.2010   -3.5850 C.3   193  ASP193      0.1709
     56  C          5.1060    2.6690   -2.5970 C.2   193  ASP193      0.2293
     57  O          5.1900    1.5200   -2.1350 O.2   193  ASP193     -0.2864
     58  CB         5.4820    3.6670   -4.9130 C.3   193  ASP193      0.1436
     59  CG         4.5260    2.6610   -5.5480 C.2   193  ASP193      0.3671
     60  OD1        4.2750    1.5720   -5.0120 O.co2 193  ASP193     -0.2456
     61  OD2        3.9480    2.9960   -6.6020 O.co2 193  ASP193     -0.2456
     62  N          0.8390    2.3830   -2.3420 N.3   195  ASP195     -0.1239
     63  CA        -0.3810    2.4510   -3.1310 C.3   195  ASP195      0.1674
     64  C         -1.5960    2.4700   -2.2180 C.2   195  ASP195      0.2266
     65  O         -1.7030    1.6300   -1.3240 O.2   195  ASP195     -0.2867
     66  CB        -0.4550    1.2340   -4.0490 C.3   195  ASP195      0.1410
     67  CG         0.7780    1.0970   -4.9000 C.2   195  ASP195      0.3668
     68  OD1        0.9260    1.9070   -5.8390 O.co2 195  ASP195     -0.2456
     69  OD2        1.6110    0.2030   -4.6790 O.co2 195  ASP195     -0.2456
     70  N          0.9280    6.5060   -4.7530 N.3   250  ASP250     -0.1239
     71  CA        -0.1290    6.4420   -5.7480 C.3   250  ASP250      0.1674
     72  C         -1.4810    6.4420   -5.0400 C.2   250  ASP250      0.2266
     73  O         -1.6900    5.6600   -4.1110 O.2   250  ASP250     -0.2867
     74  CB         0.0230    5.2050   -6.6360 C.3   250  ASP250      0.1410
     75  CG         1.2420    5.2920   -7.5290 C.2   250  ASP250      0.3668
     76  OD1        1.6290    6.4400   -7.9030 O.co2 250  ASP250     -0.2456
     77  OD2        1.8420    4.2300   -7.8390 O.co2 250  ASP250     -0.2456
     78  N         -7.4800   -5.3470   -8.6550 N.3   265  GLY265     -0.1210
     79  CA        -6.5130   -4.8820   -9.6380 C.3   265  GLY265      0.1956
     80  C         -5.2810   -4.2410   -9.0120 C.2   265  GLY265      0.2612
     81  O         -4.1340   -4.5320   -9.3960 O.2   265  GLY265     -0.2717
     82  N         -5.4930   -3.3440   -8.0510 N.am  266  HIS266     -0.1961
     83  CA        -4.3860   -2.5740   -7.4930 C.3   266  HIS266      0.1787
     84  C         -3.6110   -3.3290   -6.4250 C.2   266  HIS266      0.2621
     85  O         -2.5530   -2.8600   -5.9980 O.2   266  HIS266     -0.2715
     86  CB        -4.8800   -1.2140   -6.9850 C.3   266  HIS266      0.0785
     87  CG        -5.2760   -0.3070   -8.0930 C.ar  266  HIS266      0.0821
     88  ND1       -4.3530    0.4340   -8.8030 N.ar  266  HIS266     -0.2267
     89  CD2       -6.4740   -0.0770   -8.6690 C.ar  266  HIS266      0.1154
     90  CE1       -4.9740    1.1050   -9.7570 C.ar  266  HIS266      0.1986
     91  NE2       -6.2620    0.8140   -9.6980 N.ar  266  HIS266     -0.2212
     92  N         -4.0830   -4.5020   -6.0070 N.am  267  THR267     -0.1937
     93  CA        -3.3030   -5.3330   -5.1040 C.3   267  THR267      0.2028
     94  C         -2.2950   -6.1990   -5.8440 C.2   267  THR267      0.2643
     95  O         -1.2770   -6.5730   -5.2570 O.2   267  THR267     -0.2714
     96  CB        -4.2360   -6.1630   -4.2130 C.3   267  THR267      0.1808
     97  OG1       -5.0000   -5.2670   -3.3780 O.3   267  THR267     -0.2208
     98  CG2       -3.4590   -7.1230   -3.3250 C.3   267  THR267      0.0379
     99  N         -2.5310   -6.5070   -7.1160 N.am  268  GLY268     -0.1939
    100  CA        -1.5350   -7.2170   -7.9180 C.3   268  GLY268      0.2014
    101  C         -1.3320   -8.6650   -7.5050 C.2   268  GLY268      0.2640
    102  O         -2.2800   -9.2740   -6.9920 O.2   268  GLY268     -0.2714
    103  N         -0.1300   -9.2230   -7.7250 N.am  269  SER269     -0.1935
    104  CA         0.9780   -8.6050   -8.4360 C.3   269  SER269      0.2055
    105  C          0.6070   -8.2790   -9.8790 C.2   269  SER269      0.2642
    106  O         -0.4290   -8.6910  -10.3490 O.2   269  SER269     -0.2714
    107  CB         2.1760   -9.5430   -8.4230 C.3   269  SER269      0.2130
    108  OG         1.9110  -10.6620   -9.2790 O.3   269  SER269     -0.2179
    109  N          1.4810   -7.5030  -10.5340 N.am  270  LYS270     -0.1977
    110  CA         1.3000   -7.2100  -11.9620 C.3   270  LYS270      0.1596
    111  C          1.0970   -8.4890  -12.7610 C.2   270  LYS270      0.2287
    112  O          0.1340   -8.6050  -13.5270 O.2   270  LYS270     -0.2864
    113  CB         2.5020   -6.4560  -12.5050 C.3   270  LYS270      0.0298
    114  CG         2.5310   -6.3680  -14.0140 C.3   270  LYS270      0.0038
    115  CD         3.7240   -5.5540  -14.4930 C.3   270  LYS270      0.0206
    116  CE         3.8530   -5.6570  -16.0090 C.3   270  LYS270      0.1093
    117  NZ         5.0650   -4.9410  -16.5260 N.3   270  LYS270     -0.1314
    118  N         -2.3080  -10.1390  -12.0830 N.3   273  GLN273     -0.1231
    119  CA        -3.4560   -9.4880  -12.7150 C.3   273  GLN273      0.1698
    120  C         -3.5050   -9.7570  -14.2100 C.2   273  GLN273      0.2592
    121  O         -4.5900   -9.9640  -14.7510 O.2   273  GLN273     -0.2718
    122  CB        -3.4840   -7.9960  -12.4340 C.3   273  GLN273      0.0381
    123  CG        -3.6590   -7.6860  -10.9510 C.3   273  GLN273      0.0905
    124  CD        -4.8880   -8.2920  -10.3640 C.2   273  GLN273      0.2608
    125  OE1       -5.9800   -8.1440  -10.8940 O.2   273  GLN273     -0.2717
    126  NE2       -4.7240   -9.0240   -9.2530 N.am  273  GLN273     -0.0878
    127  N         -2.3600   -9.7200  -14.8810 N.am  274  ARG274     -0.1980
    128  CA        -2.3210  -10.0800  -16.3040 C.3   274  ARG274      0.1597
    129  C         -2.8240  -11.5010  -16.5070 C.2   274  ARG274      0.2287
    130  O         -3.6210  -11.7720  -17.4190 O.2   274  ARG274     -0.2864
    131  CB        -0.9000   -9.9640  -16.8470 C.3   274  ARG274      0.0334
    132  CG        -0.3500   -8.6020  -16.8410 C.3   274  ARG274      0.0492
    133  CD         1.1160   -8.6240  -17.2300 C.3   274  ARG274      0.2205
    134  NE         1.2200   -8.8040  -18.6810 N.pl3 274  ARG274     -0.0865
    135  CZ         2.2920   -8.5010  -19.3910 C.cat 274  ARG274      0.5346
    136  NH1        3.3960   -8.0440  -18.8070 N.pl3 274  ARG274      0.1354
    137  NH2        2.2410   -8.6540  -20.6970 N.pl3 274  ARG274      0.1354
    138  N         -6.6530  -11.7070  -15.8910 N.3   277  ARG277     -0.1245
    139  CA        -7.4010  -11.1350  -17.0080 C.3   277  ARG277      0.1563
    140  C         -7.3130  -12.0290  -18.2360 C.2   277  ARG277      0.2260
    141  O         -8.3140  -12.1940  -18.9490 O.2   277  ARG277     -0.2867
    142  CB        -6.8970   -9.7190  -17.2630 C.3   277  ARG277      0.0307
    143  CG        -7.2010   -8.7850  -16.1230 C.3   277  ARG277      0.0489
    144  CD        -6.4150   -7.5040  -16.1830 C.3   277  ARG277      0.2205
    145  NE        -6.7560   -6.6910  -15.0140 N.pl3 277  ARG277     -0.0865
    146  CZ        -6.4090   -5.4310  -14.8430 C.cat 277  ARG277      0.5346
    147  NH1       -5.6660   -4.7930  -15.7330 N.pl3 277  ARG277      0.1354
    148  NH2       -6.8090   -4.7970  -13.7280 N.pl3 277  ARG277      0.1354
@<TRIPOS>BOND
     1   137   135    1
     2   135   136    1
     3   135   134    2
     4   141   140    2
     5   134   133    1
     6   140   139    1
     7   130   129    2
     8   142   139    1
     9   142   143    1
    10   133   132    1
    11   139   138    1
    12   131   132    1
    13   131   128    1
    14   117   116    1
    15   129   128    1
    16   128   127    1
    17   144   143    1
    18   144   145    1
    19   116   115    1
    20   147   146    1
    21   145   146    2
    22   127   120   am
    23   146   148    1
    24   121   120    2
    25   115   114    1
    26   120   119    1
    27   114   113    1
    28   112   111    2
    29   111   110    1
    30   119   122    1
    31   119   118    1
    32   113   110    1
    33   122   123    1
    34   110   109    1
    35   123   124    1
    36   125   124    2
    37   109   105   am
    38   124   126   am
    39   106   105    2
    40   105   104    1
    41    90    91   ar
    42    90    88   ar
    43    91    89   ar
    44    79    80    1
    45    79    78    1
    46    81    80    2
    47   108   107    1
    48    80    82   am
    49    88    87   ar
    50    89    87   ar
    51   104   107    1
    52   104   103    1
    53    53    52   ar
    54    53    51   ar
    55    87    86    1
    56    82    83    1
    57    52    50   ar
    58   100   101    1
    59   100    99    1
    60    76    75   ar
    61    51    49   ar
    62    77    75   ar
    63   103   101   am
    64    75    74    1
    65   101   102    2
    66    83    86    1
    67    83    84    1
    68    99    94   am
    69    50    49   ar
    70    49    48    1
    71    74    71    1
    72    61    59   ar
    73    84    92   am
    74    84    85    2
    75    48    45    1
    76    92    93    1
    77    94    95    2
    78    94    93    1
    79    68    67   ar
    80    71    72    1
    81    71    70    1
    82    59    60   ar
    83    59    58    1
    84    29    28    1
    85    30    28    1
    86    93    96    1
    87    28    27    2
    88    72    73    2
    89    58    55    1
    90    67    69   ar
    91    67    66    1
    92    27    26    1
    93    47    46    2
    94    45    46    1
    95    45    44    1
    96    46    54   am
    97    96    97    1
    98    96    98    1
    99    26    25    1
   100    39    38    1
   101    66    63    1
   102     2     1    1
   103     2     3    1
   104    54    55    1
   105    44    42   am
   106    55    56    1
   107     5     3   am
   108     5     6    1
   109    63    62    1
   110    63    64    1
   111     3     4    2
   112    25    24    1
   113    38    37    1
   114     6     7    1
   115    56    57    2
   116    37    36    1
   117    42    43    2
   118    42    41    1
   119    64    65    2
   120    41    40    1
   121    24    21    1
   122    36    35    1
   123     7     8    2
   124     7     9   am
   125     9    10    1
   126    21    20    1
   127    21    22    1
   128    35    32    1
   129    23    22    2
   130    18    16   ar
   131    18    19   ar
   132    16    14   ar
   133    10    11    1
   134    10    13    1
   135    32    31    1
   136    32    33    1
   137    11    12    2
   138    19    17   ar
   139    14    13    1
   140    14    15   ar
   141    17    15   ar
   142    33    34    2
