@<TRIPOS>MOLECULE
tmp/5vzsA00.pdb
 135 133 0 0 0
SMALL
GASTEIGER

@<TRIPOS>ATOM
      1  N         -0.0130   -9.3890    7.3970 N.3    40  TRP40      -0.1228
      2  CA        -0.4290  -10.7800    7.5390 C.3    40  TRP40       0.1722
      3  C          0.5130  -11.6470    8.3790 C.2    40  TRP40       0.2437
      4  O         -0.0020  -12.5360    9.0770 O.2    40  TRP40      -0.2733
      5  CB        -0.6470  -11.4120    6.1490 C.3    40  TRP40       0.0563
      6  CG         0.5520  -11.3590    5.2120 C.ar   40  TRP40       0.0003
      7  CD1        0.8670  -10.3630    4.3130 C.ar   40  TRP40       0.0946
      8  CD2        1.5650  -12.3620    5.0650 C.ar   40  TRP40       0.0152
      9  NE1        2.0100  -10.6910    3.6290 N.ar   40  TRP40      -0.2442
     10  CE2        2.4710  -11.9010    4.0830 C.ar   40  TRP40       0.0810
     11  CE3        1.8050  -13.5960    5.6840 C.ar   40  TRP40       0.0012
     12  CZ2        3.5920  -12.6350    3.6970 C.ar   40  TRP40       0.0191
     13  CZ3        2.9220  -14.3250    5.2940 C.ar   40  TRP40       0.0001
     14  CH2        3.7940  -13.8420    4.3130 C.ar   40  TRP40       0.0015
     15  N          1.8370  -11.4440    8.4140 N.am   41  PRO41      -0.2718
     16  CA         2.6620  -12.2680    9.3200 C.3    41  PRO41       0.1535
     17  C          2.4350  -11.9820   10.7990 C.2    41  PRO41       0.2598
     18  O          2.8310  -12.8020   11.6410 O.2    41  PRO41      -0.2715
     19  CB         4.1020  -11.9100    8.9250 C.3    41  PRO41       0.0310
     20  CG         4.0120  -11.2680    7.5690 C.3    41  PRO41       0.0237
     21  CD         2.6690  -10.5620    7.5780 C.3    41  PRO41       0.0939
     22  N          1.8260  -10.8560   11.1420 N.am   42  PHE42      -0.1974
     23  CA         1.6780  -10.4350   12.5310 C.3    42  PHE42       0.1639
     24  C          0.2390  -10.4950   13.0360 C.2    42  PHE42       0.2290
     25  O         -0.0300  -10.0600   14.1640 O.2    42  PHE42      -0.2864
     26  CB         2.2390   -9.0230   12.6750 C.3    42  PHE42       0.0560
     27  CG         3.6060   -8.8760   12.0880 C.ar   42  PHE42      -0.0200
     28  CD1        3.7890   -8.4100   10.7920 C.ar   42  PHE42      -0.0042
     29  CD2        4.7050   -9.2850   12.8010 C.ar   42  PHE42      -0.0042
     30  CE1        5.0470   -8.3140   10.2410 C.ar   42  PHE42      -0.0003
     31  CE2        5.9570   -9.1820   12.2640 C.ar   42  PHE42      -0.0003
     32  CZ         6.1470   -8.7080   10.9940 C.ar   42  PHE42      -0.0000
     33  N          2.8040  -16.5420   16.0180 N.3    46  VAL46      -0.1245
     34  CA         3.7110  -17.3010   15.1580 C.3    46  VAL46       0.1561
     35  C          3.4290  -18.7830   15.3540 C.2    46  VAL46       0.2260
     36  O          3.5010  -19.3040   16.4750 O.2    46  VAL46      -0.2867
     37  CB         5.1780  -16.9620   15.4620 C.3    46  VAL46       0.0252
     38  CG1        6.1120  -17.9020   14.7180 C.3    46  VAL46       0.0019
     39  CG2        5.5080  -15.5260   15.0840 C.3    46  VAL46       0.0019
     40  N          3.2440  -25.2400   12.3040 N.3    50  LYS50      -0.1231
     41  CA         3.0660  -25.2690   10.8510 C.3    50  LYS50       0.1693
     42  C          4.3110  -24.8080   10.1000 C.2    50  LYS50       0.2592
     43  O          4.5940  -25.3290    9.0170 O.2    50  LYS50      -0.2718
     44  CB         1.8650  -24.4170   10.4390 C.3    50  LYS50       0.0285
     45  CG         0.5340  -25.1580   10.5210 C.3    50  LYS50       0.0035
     46  CD         0.5510  -26.3980    9.6330 C.3    50  LYS50       0.0206
     47  CE        -0.5300  -27.4100   10.0240 C.3    50  LYS50       0.1093
     48  NZ        -1.9270  -26.9080    9.8550 N.3    50  LYS50      -0.1314
     49  N          5.0700  -23.8600   10.6450 N.am   51  LEU51      -0.1966
     50  CA         6.2590  -23.3540    9.9700 C.3    51  LEU51       0.1728
     51  C          7.5190  -24.1490   10.2970 C.2    51  LEU51       0.2616
     52  O          8.5910  -23.8250    9.7730 O.2    51  LEU51      -0.2715
     53  CB         6.4800  -21.8760   10.3230 C.3    51  LEU51       0.0311
     54  CG         5.3530  -20.8780   10.0620 C.3    51  LEU51       0.0022
     55  CD1        5.8000  -19.4470   10.3720 C.3    51  LEU51       0.0001
     56  CD2        4.8470  -20.9910    8.6230 C.3    51  LEU51       0.0001
     57  N          7.4180  -25.1700   11.1470 N.am   52  ASN52      -0.1958
     58  CA         8.5370  -26.0540   11.4790 C.3    52  ASN52       0.1819
     59  C          9.7510  -25.2720   11.9860 C.2    52  ASN52       0.2621
     60  O         10.8750  -25.4320   11.5020 O.2    52  ASN52      -0.2715
     61  CB         8.9080  -26.9280   10.2790 C.3    52  ASN52       0.1195
     62  CG         9.6990  -28.1580   10.6790 C.2    52  ASN52       0.2630
     63  OD1        9.7410  -28.5330   11.8540 O.2    52  ASN52      -0.2716
     64  ND2       10.3280  -28.7950    9.7020 N.am   52  ASN52      -0.0877
     65  N          9.5200  -24.4300   12.9980 N.am   53  LEU53      -0.1977
     66  CA        10.5610  -23.6190   13.6280 C.3    53  LEU53       0.1596
     67  C         10.6950  -24.0370   15.0880 C.2    53  LEU53       0.2287
     68  O         10.1310  -23.3900   15.9830 O.2    53  LEU53      -0.2864
     69  CB        10.2380  -22.1310   13.5220 C.3    53  LEU53       0.0297
     70  CG        10.1090  -21.6170   12.0920 C.3    53  LEU53       0.0022
     71  CD1        9.5680  -20.2090   12.1130 C.3    53  LEU53       0.0001
     72  CD2       11.4600  -21.6800   11.3930 C.3    53  LEU53       0.0001
     73  N         11.8300  -21.1950   17.7640 N.3    56  TYR56      -0.1241
     74  CA        11.1960  -19.8860   17.9050 C.3    56  TYR56       0.1605
     75  C         10.8160  -19.6150   19.3550 C.2    56  TYR56       0.2264
     76  O         11.1710  -18.5700   19.9160 O.2    56  TYR56      -0.2867
     77  CB         9.9620  -19.7510   17.0020 C.3    56  TYR56       0.0534
     78  CG         9.4010  -18.3490   17.0840 C.ar   56  TYR56      -0.0201
     79  CD1        9.9640  -17.3060   16.3390 C.ar   56  TYR56      -0.0009
     80  CD2        8.3620  -18.0400   17.9620 C.ar   56  TYR56      -0.0009
     81  CE1        9.4800  -16.0000   16.4460 C.ar   56  TYR56       0.0417
     82  CE2        7.8820  -16.7490   18.0850 C.ar   56  TYR56       0.0417
     83  CZ         8.4310  -15.7310   17.3220 C.ar   56  TYR56       0.1957
     84  OH         7.9420  -14.4440   17.4480 O.3    56  TYR56      -0.2866
     85  N         10.1850   -9.6930   16.6940 N.3    95  CYS95      -0.1235
     86  CA        10.5660   -9.8910   15.3060 C.3    95  CYS95       0.1677
     87  C         12.0390   -9.5500   15.0970 C.2    95  CYS95       0.2270
     88  O         12.7820  -10.3070   14.4590 O.2    95  CYS95      -0.2867
     89  CB         9.6470   -9.0490   14.4160 C.3    95  CYS95       0.0956
     90  SG         9.9380   -9.3130   12.6760 S.3    95  CYS95      -0.0801
     91  N         14.3930  -12.2820   16.6730 N.3    98  TYR98      -0.1227
     92  CA        14.5100  -13.5760   16.0200 C.3    98  TYR98       0.1736
     93  C         15.0170  -13.4700   14.5840 C.2    98  TYR98       0.2595
     94  O         15.8000  -14.3120   14.1440 O.2    98  TYR98      -0.2718
     95  CB        13.1680  -14.3070   16.0480 C.3    98  TYR98       0.0548
     96  CG        13.3020  -15.7280   15.5810 C.ar   98  TYR98      -0.0200
     97  CD1       13.6520  -16.7330   16.4700 C.ar   98  TYR98      -0.0009
     98  CD2       13.1330  -16.0690   14.2320 C.ar   98  TYR98      -0.0009
     99  CE1       13.7990  -18.0400   16.0470 C.ar   98  TYR98       0.0417
    100  CE2       13.2800  -17.3710   13.8010 C.ar   98  TYR98       0.0417
    101  CZ        13.6170  -18.3550   14.7130 C.ar   98  TYR98       0.1957
    102  OH        13.7660  -19.6610   14.2920 O.3    98  TYR98      -0.2866
    103  N         14.5520  -12.4910   13.8150 N.am   99  ASN99      -0.1960
    104  CA        14.6880  -12.5560   12.3700 C.3    99  ASN99       0.1819
    105  C         15.9150  -11.8170   11.8600 C.2    99  ASN99       0.2621
    106  O         16.4350  -10.9010   12.4970 O.2    99  ASN99      -0.2715
    107  CB        13.4280  -12.0060   11.7040 C.3    99  ASN99       0.1195
    108  CG        12.2680  -12.9180   11.8930 C.2    99  ASN99       0.2630
    109  OD1       12.1850  -13.9630   11.2490 O.2    99  ASN99      -0.2716
    110  ND2       11.3840  -12.5670   12.8110 N.am   99  ASN99      -0.0877
    111  N         16.3460  -12.2210   10.6700 N.am  100  LYS100     -0.1977
    112  CA        17.5170  -11.6610   10.0090 C.3   100  LYS100      0.1596
    113  C         17.3140  -10.1880    9.6540 C.2   100  LYS100      0.2287
    114  O         16.3500   -9.8550    8.9370 O.2   100  LYS100     -0.2864
    115  CB        17.8150  -12.4860    8.7530 C.3   100  LYS100      0.0298
    116  CG        19.0820  -12.0870    8.0040 C.3   100  LYS100      0.0038
    117  CD        19.4510  -13.1310    6.9560 C.3   100  LYS100      0.0206
    118  CE        20.7450  -12.7490    6.2420 C.3   100  LYS100      0.1093
    119  NZ        21.0540  -13.6760    5.1120 N.3   100  LYS100     -0.1314
    120  N         15.9950   -8.5620    5.9860 N.3   103  ASP103     -0.1239
    121  CA        15.3350   -9.6120    5.2450 C.3   103  ASP103      0.1674
    122  C         13.8360   -9.3270    5.3190 C.2   103  ASP103      0.2266
    123  O         13.4030   -8.3950    6.0080 O.2   103  ASP103     -0.2867
    124  CB        15.7160  -10.9880    5.7990 C.3   103  ASP103      0.1410
    125  CG        15.5350  -12.1090    4.7820 C.2   103  ASP103      0.3668
    126  OD1       14.9700  -11.8790    3.6930 O.co2 103  ASP103     -0.2456
    127  OD2       15.9690  -13.2340    5.0770 O.co2 103  ASP103     -0.2456
    128  N         10.7850  -10.5020    6.5080 N.3   105  ILE105     -0.1245
    129  CA         9.9660  -10.3510    7.7150 C.3   105  ILE105      0.1561
    130  C         10.3290   -9.0670    8.4570 C.2   105  ILE105      0.2260
    131  O          9.4510   -8.3300    8.9130 O.2   105  ILE105     -0.2867
    132  CB        10.1170  -11.5830    8.6300 C.3   105  ILE105      0.0252
    133  CG1        9.7000  -12.8690    7.9180 C.3   105  ILE105      0.0019
    134  CG2        9.3160  -11.4140    9.9170 C.3   105  ILE105      0.0019
    135  CD1        8.3180  -12.7970    7.3590 C.3   105  ILE105      0.0001
@<TRIPOS>BOND
     1     9    10   ar
     2     9     7   ar
     3   126   125   ar
     4    12    10   ar
     5    12    14   ar
     6    10     8   ar
     7     7     6   ar
     8    14    13   ar
     9   125   127   ar
    10   125   124    1
    11     8     6   ar
    12     8    11   ar
    13   119   118    1
    14     6     5    1
    15   121   122    1
    16   121   124    1
    17   121   120    1
    18    13    11   ar
    19   122   123    2
    20     5     2    1
    21   118   117    1
    22   128   129    1
    23   117   116    1
    24   135   133    1
    25     1     2    1
    26     2     3    1
    27    20    21    1
    28    20    19    1
    29    21    15    1
    30   129   130    1
    31   129   132    1
    32   133   132    1
    33   116   115    1
    34     3    15   am
    35     3     4    2
    36    15    16    1
    37   130   131    2
    38    56    54    1
    39   132   134    1
    40   115   112    1
    41    19    16    1
    42   114   113    2
    43    43    42    2
    44    16    17    1
    45    46    47    1
    46    46    45    1
    47   113   112    1
    48    64    62   am
    49    52    51    2
    50    48    47    1
    51    50    51    1
    52    50    53    1
    53    50    49    1
    54   112   111    1
    55    54    53    1
    56    54    55    1
    57    42    49   am
    58    42    41    1
    59    30    28   ar
    60    30    32   ar
    61    61    62    1
    62    61    58    1
    63    51    57   am
    64    44    45    1
    65    44    41    1
    66   111   105   am
    67    62    63    2
    68    28    27   ar
    69    17    22   am
    70    17    18    2
    71    41    40    1
    72    32    31   ar
    73    22    23    1
    74    57    58    1
    75   109   108    2
    76    72    70    1
    77    58    59    1
    78    60    59    2
    79   107   108    1
    80   107   104    1
    81   105   104    1
    82   105   106    2
    83   108   110   am
    84    59    65   am
    85    27    26    1
    86    27    29   ar
    87    70    71    1
    88    70    69    1
    89    31    29   ar
    90   104   103    1
    91    23    26    1
    92    23    24    1
    93    90    89    1
    94    65    66    1
    95    24    25    2
    96    69    66    1
    97    66    67    1
    98   100    98   ar
    99   100   101   ar
   100   103    93   am
   101    94    93    2
   102    98    96   ar
   103   102   101    1
   104    89    86    1
   105    88    87    2
   106    93    92    1
   107   101    99   ar
   108    38    37    1
   109    39    37    1
   110    67    68    2
   111    87    86    1
   112    34    35    1
   113    34    37    1
   114    34    33    1
   115    86    85    1
   116    35    36    2
   117    96    95    1
   118    96    97   ar
   119    92    95    1
   120    92    91    1
   121    99    97   ar
   122    79    81   ar
   123    79    78   ar
   124    81    83   ar
   125    77    78    1
   126    77    74    1
   127    78    80   ar
   128    83    84    1
   129    83    82   ar
   130    73    74    1
   131    74    75    1
   132    80    82   ar
   133    75    76    2
