@<TRIPOS>MOLECULE
tmp/5vztD00.pdb
 130 125 0 0 0
SMALL
GASTEIGER

@<TRIPOS>ATOM
      1  N         15.6180  -11.5620   50.0950 N.3   202  HIS202     -0.1241
      2  CA        16.6620  -11.1960   49.2080 C.3   202  HIS202      0.1621
      3  C         16.0990  -10.1730   48.2980 C.2   202  HIS202      0.2264
      4  O         16.6860   -9.0940   48.1730 O.2   202  HIS202     -0.2867
      5  CB        17.1380  -12.3810   48.3950 C.3   202  HIS202      0.0745
      6  CG        18.3330  -12.0850   47.5420 C.ar  202  HIS202      0.0817
      7  ND1       19.4770  -11.4840   48.0350 N.ar  202  HIS202     -0.2268
      8  CD2       18.5750  -12.3410   46.2330 C.ar  202  HIS202      0.1154
      9  CE1       20.3570  -11.3600   47.0590 C.ar  202  HIS202      0.1986
     10  NE2       19.8440  -11.8890   45.9610 N.ar  202  HIS202     -0.2212
     11  N         14.3620  -11.2750   35.5730 N.3   246  TYR246     -0.1227
     12  CA        15.6730  -11.6240   36.1340 C.3   246  TYR246      0.1736
     13  C         15.5210  -11.9940   37.6140 C.2   246  TYR246      0.2596
     14  O         16.2610  -11.5180   38.4580 O.2   246  TYR246     -0.2718
     15  CB        16.7100  -10.4760   35.8810 C.3   246  TYR246      0.0548
     16  CG        17.2940  -10.5570   34.4790 C.ar  246  TYR246     -0.0200
     17  CD1       16.5400  -10.1720   33.3820 C.ar  246  TYR246     -0.0009
     18  CD2       18.5620  -11.1030   34.2510 C.ar  246  TYR246     -0.0009
     19  CE1       17.0230  -10.2970   32.0990 C.ar  246  TYR246      0.0417
     20  CE2       19.0570  -11.2290   32.9790 C.ar  246  TYR246      0.0417
     21  CZ        18.2810  -10.8230   31.9090 C.ar  246  TYR246      0.1957
     22  OH        18.7560  -10.9460   30.6300 O.3   246  TYR246     -0.2866
     23  N         14.5570  -12.8460   37.9370 N.am  247  GLY247     -0.1942
     24  CA        14.4720  -13.3360   39.2990 C.3   247  GLY247      0.2014
     25  C         14.3450  -12.2200   40.3210 C.2   247  GLY247      0.2640
     26  O         13.5680  -11.3190   40.1340 O.2   247  GLY247     -0.2714
     27  N         15.1320  -12.3040   41.3930 N.am  248  SER248     -0.1935
     28  CA        15.1710  -11.3420   42.4980 C.3   248  SER248      0.2055
     29  C         15.3130   -9.9010   42.0550 C.2   248  SER248      0.2643
     30  O         14.8320   -8.9590   42.7060 O.2   248  SER248     -0.2714
     31  CB        16.4050  -11.5900   43.3730 C.3   248  SER248      0.2130
     32  OG        16.6410  -12.9380   43.6670 O.3   248  SER248     -0.2179
     33  N         16.0580   -9.7330   40.9750 N.am  249  HIS249     -0.1973
     34  CA        16.3520   -8.4090   40.4530 C.3   249  HIS249      0.1656
     35  C         15.1120   -7.7710   39.8260 C.2   249  HIS249      0.2291
     36  O         15.0830   -6.5660   39.6600 O.2   249  HIS249     -0.2864
     37  CB        17.5030   -8.4630   39.4430 C.3   249  HIS249      0.0771
     38  CG        18.7590   -9.0780   39.9830 C.ar  249  HIS249      0.0820
     39  ND1       19.5910   -8.4260   40.8690 N.ar  249  HIS249     -0.2267
     40  CD2       19.3180  -10.2880   39.7660 C.ar  249  HIS249      0.1154
     41  CE1       20.6030   -9.2080   41.1810 C.ar  249  HIS249      0.1986
     42  NE2       20.4570  -10.3520   40.5290 N.ar  249  HIS249     -0.2212
     43  N         22.2730   -5.6060   28.0700 N.3   267  LYS267     -0.1245
     44  CA        21.5210   -4.9650   29.1460 C.3   267  LYS267      0.1561
     45  C         21.4600   -3.4560   28.9740 C.2   267  LYS267      0.2260
     46  O         22.4870   -2.7920   28.8070 O.2   267  LYS267     -0.2867
     47  CB        22.1460   -5.2700   30.5150 C.3   267  LYS267      0.0271
     48  CG        22.1620   -6.7280   30.9170 C.3   267  LYS267      0.0035
     49  CD        21.9490   -6.8880   32.4010 C.3   267  LYS267      0.0206
     50  CE        21.9160   -8.3550   32.7830 C.3   267  LYS267      0.1093
     51  NZ        21.4240   -8.4180   34.1950 N.3   267  LYS267     -0.1314
     52  N         21.7120   -5.0300   36.9620 N.3   271  ASP271     -0.1239
     53  CA        21.7230   -5.2470   38.3800 C.3   271  ASP271      0.1674
     54  C         23.1590   -5.4920   38.8370 C.2   271  ASP271      0.2266
     55  O         24.0760   -5.4870   38.0070 O.2   271  ASP271     -0.2867
     56  CB        20.8590   -6.4480   38.6550 C.3   271  ASP271      0.1410
     57  CG        21.4460   -7.7090   38.0590 C.2   271  ASP271      0.3668
     58  OD1       22.5620   -8.0470   38.5100 O.co2 271  ASP271     -0.2456
     59  OD2       20.8290   -8.2950   37.1240 O.co2 271  ASP271     -0.2456
     60  N         24.8800   -8.0650   40.0250 N.3   273  ASN273     -0.1225
     61  CA        25.4960   -9.2420   39.3660 C.3   273  ASN273      0.1785
     62  C         25.9850   -8.9690   37.9630 C.2   273  ASN273      0.2597
     63  O         27.1940   -8.9090   37.7450 O.2   273  ASN273     -0.2718
     64  CB        24.5140  -10.3860   39.3210 C.3   273  ASN273      0.1169
     65  CG        24.3590  -10.9780   40.6560 C.2   273  ASN273      0.2627
     66  OD1       25.2470  -11.7140   41.0950 O.2   273  ASN273     -0.2716
     67  ND2       23.3180  -10.5760   41.3810 N.am  273  ASN273     -0.0877
     68  N         25.0450   -8.7970   37.0240 N.am  274  ILE274     -0.1980
     69  CA        25.3680   -8.4050   35.6450 C.3   274  ILE274      0.1595
     70  C         24.8790   -6.9650   35.4290 C.2   274  ILE274      0.2287
     71  O         23.6810   -6.7490   35.2610 O.2   274  ILE274     -0.2864
     72  CB        24.7320   -9.3610   34.6100 C.3   274  ILE274      0.0276
     73  CG1       25.0890  -10.7920   34.9030 C.3   274  ILE274      0.0022
     74  CG2       25.2080   -9.0360   33.2130 C.3   274  ILE274      0.0022
     75  CD1       26.5820  -11.0820   34.8170 C.3   274  ILE274      0.0001
     76  N         25.3900  -14.7860   30.1840 N.3   350  LEU350     -0.1231
     77  CA        26.4250  -14.3810   31.1210 C.3   350  LEU350      0.1693
     78  C         25.8760  -14.1690   32.5490 C.2   350  LEU350      0.2592
     79  O         24.8450  -13.5250   32.7610 O.2   350  LEU350     -0.2718
     80  CB        27.1600  -13.1480   30.6120 C.3   350  LEU350      0.0284
     81  CG        28.4550  -12.8170   31.3740 C.3   350  LEU350      0.0019
     82  CD1       29.6730  -13.4380   30.7120 C.3   350  LEU350      0.0001
     83  CD2       28.6660  -11.3170   31.4980 C.3   350  LEU350      0.0001
     84  N         26.5900  -14.7520   33.5090 N.am  351  ILE351     -0.1966
     85  CA        26.2840  -14.6710   34.9430 C.3   351  ILE351      0.1727
     86  C         27.5470  -14.3310   35.7540 C.2   351  ILE351      0.2616
     87  O         28.6460  -14.3420   35.2450 O.2   351  ILE351     -0.2715
     88  CB        25.6370  -15.9850   35.5040 C.3   351  ILE351      0.0290
     89  CG1       26.5650  -17.2080   35.3680 C.3   351  ILE351      0.0022
     90  CG2       24.3130  -16.2590   34.8080 C.3   351  ILE351      0.0023
     91  CD1       26.0190  -18.5150   35.9450 C.3   351  ILE351      0.0001
     92  N         27.3600  -14.0130   37.0190 N.am  352  ALA352     -0.1977
     93  CA        28.4390  -13.6150   37.8990 C.3   352  ALA352      0.1597
     94  C         27.8630  -13.4960   39.2980 C.2   352  ALA352      0.2287
     95  O         26.6210  -13.3620   39.4830 O.2   352  ALA352     -0.2864
     96  CB        29.0230  -12.2700   37.4690 C.3   352  ALA352      0.0319
     97  N         18.0270  -20.9240   31.8810 N.3   378  TRP378     -0.1241
     98  CA        19.3590  -20.8550   32.4620 C.3   378  TRP378      0.1605
     99  C         19.6460  -22.2250   33.0000 C.2   378  TRP378      0.2264
    100  O         19.0640  -22.6250   34.0060 O.2   378  TRP378     -0.2867
    101  CB        19.4430  -19.7800   33.5610 C.3   378  TRP378      0.0550
    102  CG        19.1420  -18.3510   33.0510 C.ar  378  TRP378      0.0003
    103  CD1       17.9130  -17.7750   32.9160 C.ar  378  TRP378      0.0946
    104  CD2       20.0950  -17.3620   32.6190 C.ar  378  TRP378      0.0152
    105  NE1       18.0410  -16.5020   32.4290 N.ar  378  TRP378     -0.2442
    106  CE2       19.3660  -16.2210   32.2380 C.ar  378  TRP378      0.0810
    107  CE3       21.4950  -17.3330   32.5180 C.ar  378  TRP378      0.0012
    108  CZ2       19.9800  -15.0580   31.7680 C.ar  378  TRP378      0.0191
    109  CZ3       22.1090  -16.1740   32.0520 C.ar  378  TRP378      0.0001
    110  CH2       21.3470  -15.0530   31.6790 C.ar  378  TRP378      0.0015
    111  N         21.0890  -22.8740   36.5990 N.3   381  LEU381     -0.1245
    112  CA        20.3260  -22.1660   37.6000 C.3   381  LEU381      0.1561
    113  C         18.8600  -22.6130   37.7060 C.2   381  LEU381      0.2260
    114  O         18.0750  -21.9420   38.3640 O.2   381  LEU381     -0.2867
    115  CB        20.3970  -20.6560   37.2960 C.3   381  LEU381      0.0270
    116  CG        21.7720  -19.9830   37.1470 C.3   381  LEU381      0.0019
    117  CD1       21.6150  -18.5910   36.5600 C.3   381  LEU381      0.0001
    118  CD2       22.5100  -19.8900   38.4740 C.3   381  LEU381      0.0001
    119  N         16.6620  -21.9980   35.9770 N.3   383  SER383     -0.1217
    120  CA        16.0150  -20.6830   35.9180 C.3   383  SER383      0.1889
    121  C         15.6220  -20.3450   34.4850 C.2   383  SER383      0.2288
    122  O         16.3660  -20.6340   33.5540 O.2   383  SER383     -0.2866
    123  CB        16.9340  -19.5950   36.5080 C.3   383  SER383      0.2089
    124  OG        16.1820  -18.6690   37.2760 O.3   383  SER383     -0.2183
    125  N         14.1350  -17.1710   32.0490 N.3   385  SER385     -0.1217
    126  CA        13.8400  -15.7700   31.8510 C.3   385  SER385      0.1889
    127  C         12.8800  -15.5710   30.6570 C.2   385  SER385      0.2288
    128  O         13.1310  -16.0400   29.5480 O.2   385  SER385     -0.2866
    129  CB        15.1530  -15.0280   31.6630 C.3   385  SER385      0.2089
    130  OG        15.9180  -15.1550   32.8530 O.3   385  SER385     -0.2183
@<TRIPOS>BOND
     1    43    44    1
     2    46    45    2
     3    45    44    1
     4    44    47    1
     5   128   127    2
     6    76    77    1
     7    47    48    1
     8    80    77    1
     9    80    81    1
    10    22    21    1
    11   127   126    1
    12    82    81    1
    13    48    49    1
    14    77    78    1
    15    81    83    1
    16   129   126    1
    17   129   130    1
    18   110   108   ar
    19   110   109   ar
    20   108   106   ar
    21   126   125    1
    22    97    98    1
    23    21    19   ar
    24    21    20   ar
    25   109   107   ar
    26    19    17   ar
    27   106   105   ar
    28   106   104   ar
    29    49    50    1
    30   105   103   ar
    31    98    99    1
    32    98   101    1
    33   107   104   ar
    34    78    79    2
    35    78    84   am
    36   104   102   ar
    37    50    51    1
    38   103   102   ar
    39    20    18   ar
    40    99   100    2
    41   102   101    1
    42    74    72    1
    43    17    16   ar
    44    84    85    1
    45   122   121    2
    46    18    16   ar
    47    16    15    1
    48   121   120    1
    49    72    73    1
    50    72    69    1
    51    90    88    1
    52    75    73    1
    53    85    88    1
    54    85    86    1
    55    87    86    2
    56    71    70    2
    57    89    88    1
    58    89    91    1
    59    70    69    1
    60    11    12    1
    61    69    68    1
    62    86    92   am
    63    15    12    1
    64   120   119    1
    65   120   123    1
    66    12    13    1
    67   123   124    1
    68   117   116    1
    69   111   112    1
    70    52    53    1
    71    92    93    1
    72    68    62   am
    73    59    57   ar
    74   116   115    1
    75   116   118    1
    76   115   112    1
    77    96    93    1
    78   112   113    1
    79    13    23   am
    80    13    14    2
    81   113   114    2
    82    63    62    2
    83    93    94    1
    84    23    24    1
    85    62    61    1
    86    55    54    2
    87    57    58   ar
    88    57    56    1
    89    53    56    1
    90    53    54    1
    91    94    95    2
    92    24    25    1
    93    64    61    1
    94    64    65    1
    95    61    60    1
    96    37    38    1
    97    37    34    1
    98    36    35    2
    99    40    38   ar
   100    40    42   ar
   101    35    34    1
   102    38    39   ar
   103    26    25    2
   104    25    27   am
   105    34    33    1
   106    42    41   ar
   107    65    66    2
   108    65    67   am
   109    39    41   ar
   110    33    29   am
   111    27    28    1
   112    29    28    1
   113    29    30    2
   114    28    31    1
   115    31    32    1
   116    10     8   ar
   117    10     9   ar
   118     8     6   ar
   119     9     7   ar
   120     6     7   ar
   121     6     5    1
   122     4     3    2
   123     3     2    1
   124     5     2    1
   125     2     1    1
