@<TRIPOS>MOLECULE
tmp/5w07A00.pdb
 208 199 0 0 0
SMALL
GASTEIGER

@<TRIPOS>ATOM
      1  N          2.7300   24.8440   11.4850 N.3    20  ILE20      -0.1245
      2  CA         3.7580   24.1320   10.7400 C.3    20  ILE20       0.1561
      3  C          4.3220   25.0110    9.6270 C.2    20  ILE20       0.2260
      4  O          5.5200   24.9850    9.3430 O.2    20  ILE20      -0.2867
      5  CB         3.2020   22.8270   10.1420 C.3    20  ILE20       0.0252
      6  CG1        2.7550   21.8840   11.2610 C.3    20  ILE20       0.0019
      7  CG2        4.2360   22.1480    9.2630 C.3    20  ILE20       0.0019
      8  CD1        2.2000   20.5650   10.7630 C.3    20  ILE20       0.0001
      9  N         -0.2890   24.5040    3.3350 N.3    93  SER93      -0.1202
     10  CA        -0.4020   24.0410    4.7110 C.3    93  SER93       0.2020
     11  C         -1.7340   24.4770    5.3060 C.2    93  SER93       0.2619
     12  O         -1.7790   25.1190    6.3550 O.2    93  SER93      -0.2717
     13  CB         0.7590   24.5720    5.5560 C.3    93  SER93       0.2103
     14  OG         0.6380   24.1650    6.9060 O.3    93  SER93      -0.2182
     15  N         -2.8180   24.1250    4.6250 N.am   94  ILE94      -0.1965
     16  CA        -4.1470   24.5440    5.0410 C.3    94  ILE94       0.1727
     17  C         -5.0720   23.3480    5.2390 C.2    94  ILE94       0.2616
     18  O         -5.2410   22.5230    4.3400 O.2    94  ILE94      -0.2715
     19  CB        -4.7690   25.5090    4.0160 C.3    94  ILE94       0.0290
     20  CG1       -3.9650   26.8080    3.9560 C.3    94  ILE94       0.0022
     21  CG2       -6.2150   25.7920    4.3650 C.3    94  ILE94       0.0023
     22  CD1       -4.4750   27.7910    2.9290 C.3    94  ILE94       0.0001
     23  N         -5.6590   23.2550    6.4270 N.am   95  GLY95      -0.1955
     24  CA        -6.6000   22.1940    6.7370 C.3    95  GLY95       0.1869
     25  C         -7.5870   22.6260    7.8030 C.2    95  GLY95       0.2309
     26  O         -7.2560   23.4270    8.6780 O.2    95  GLY95      -0.2863
     27  N        -14.6680   15.7100   14.5880 N.3   102  MET102     -0.1245
     28  CA       -13.4390   15.3100   15.2800 C.3   102  MET102      0.1570
     29  C        -13.6610   15.0800   16.7720 C.2   102  MET102      0.2261
     30  O        -14.7530   15.3080   17.2900 O.2   102  MET102     -0.2867
     31  CB       -12.3370   16.3600   15.0900 C.3   102  MET102      0.0387
     32  CG       -11.9330   16.6080   13.6430 C.3   102  MET102      0.0595
     33  SD       -10.3950   17.5340   13.4780 S.3   102  MET102     -0.1393
     34  CE        -9.2030   16.2870   13.9710 C.3   102  MET102      0.0692
     35  N          0.5900   19.4510    2.9790 N.3   146  MET146     -0.1230
     36  CA         0.7680   18.7580    4.2530 C.3   146  MET146      0.1702
     37  C         -0.2160   17.6010    4.4120 C.2   146  MET146      0.2592
     38  O         -1.3290   17.6430    3.8910 O.2   146  MET146     -0.2718
     39  CB         0.6240   19.7390    5.4160 C.3   146  MET146      0.0401
     40  CG         1.7050   20.8050    5.4520 C.3   146  MET146      0.0596
     41  SD         3.3650   20.0980    5.4260 S.3   146  MET146     -0.1393
     42  CE         3.3060   19.0590    6.8820 C.3   146  MET146      0.0692
     43  N          0.1990   16.5680    5.1390 N.am  147  ASP147     -0.1960
     44  CA        -0.5780   15.3390    5.2130 C.3   147  ASP147      0.1840
     45  C         -0.3850   14.6180    6.5470 C.2   147  ASP147      0.2622
     46  O          0.6190   14.8150    7.2390 O.2   147  ASP147     -0.2715
     47  CB        -0.1950   14.4190    4.0480 C.3   147  ASP147      0.1450
     48  CG        -1.0360   13.1600    3.9870 C.2   147  ASP147      0.3671
     49  OD1       -2.1570   13.1710    4.5340 O.co2 147  ASP147     -0.2456
     50  OD2       -0.5770   12.1630    3.3880 O.co2 147  ASP147     -0.2456
     51  N         -1.3700   13.8050    6.9110 N.am  148  PHE148     -0.1974
     52  CA        -1.2570   12.8860    8.0380 C.3   148  PHE148      0.1639
     53  C         -1.7860   11.5350    7.5750 C.2   148  PHE148      0.2290
     54  O         -2.9430   11.4420    7.1700 O.2   148  PHE148     -0.2864
     55  CB        -2.0360   13.3930    9.2530 C.3   148  PHE148      0.0560
     56  CG        -1.7660   12.6180   10.5130 C.ar  148  PHE148     -0.0200
     57  CD1       -0.5510   12.7370   11.1660 C.ar  148  PHE148     -0.0042
     58  CD2       -2.7240   11.7720   11.0440 C.ar  148  PHE148     -0.0042
     59  CE1       -0.2930   12.0240   12.3210 C.ar  148  PHE148     -0.0003
     60  CE2       -2.4720   11.0600   12.1990 C.ar  148  PHE148     -0.0003
     61  CZ        -1.2560   11.1870   12.8390 C.ar  148  PHE148     -0.0000
     62  N         -8.3980    5.6440   12.6820 N.3   154  MET154     -0.1231
     63  CA        -7.7990    5.9970   13.9620 C.3   154  MET154      0.1687
     64  C         -8.7730    6.8220   14.8030 C.2   154  MET154      0.2434
     65  O         -9.7190    7.3940   14.2670 O.2   154  MET154     -0.2733
     66  CB        -6.5010    6.7730   13.7300 C.3   154  MET154      0.0400
     67  CG        -6.7270    8.1720   13.1980 C.3   154  MET154      0.0596
     68  SD        -5.2140    8.9390   12.6120 S.3   154  MET154     -0.1393
     69  CE        -4.9060    7.9850   11.1300 C.3   154  MET154      0.0692
     70  N         -8.5510    6.8860   16.1260 N.am  155  PRO155     -0.2718
     71  CA        -9.4310    7.6810   16.9910 C.3   155  PRO155      0.1535
     72  C         -9.2580    9.1910   16.8230 C.2   155  PRO155      0.2598
     73  O         -8.2410    9.6390   16.2900 O.2   155  PRO155     -0.2715
     74  CB        -9.0120    7.2500   18.3990 C.3   155  PRO155      0.0310
     75  CG        -7.6030    6.8130   18.2430 C.3   155  PRO155      0.0237
     76  CD        -7.5540    6.1360   16.9110 C.3   155  PRO155      0.0939
     77  N        -10.2630    9.9480   17.2640 N.am  156  ALA156     -0.1964
     78  CA       -10.2260   11.4150   17.3330 C.3   156  ALA156      0.1728
     79  C        -10.1080   12.1380   15.9830 C.2   156  ALA156      0.2616
     80  O        -10.8350   13.1020   15.7380 O.2   156  ALA156     -0.2715
     81  CB        -9.0950   11.8610   18.2570 C.3   156  ALA156      0.0334
     82  N         -9.2020   11.6940   15.1140 N.am  157  TYR157     -0.1974
     83  CA        -8.9660   12.3890   13.8470 C.3   157  TYR157      0.1639
     84  C        -10.1870   12.2990   12.9270 C.2   157  TYR157      0.2290
     85  O        -10.4480   13.2100   12.1370 O.2   157  TYR157     -0.2864
     86  CB        -7.7190   11.8290   13.1520 C.3   157  TYR157      0.0560
     87  CG        -6.9850   12.8430   12.3020 C.ar  157  TYR157     -0.0198
     88  CD1       -6.6350   14.0860   12.8170 C.ar  157  TYR157     -0.0009
     89  CD2       -6.6220   12.5520   10.9930 C.ar  157  TYR157     -0.0009
     90  CE1       -5.9580   15.0170   12.0450 C.ar  157  TYR157      0.0417
     91  CE2       -5.9440   13.4720   10.2160 C.ar  157  TYR157      0.0417
     92  CZ        -5.6130   14.7020   10.7450 C.ar  157  TYR157      0.1957
     93  OH        -4.9400   15.6190    9.9690 O.3   157  TYR157     -0.2866
     94  N        -11.3480   14.1480    9.5460 N.3   160  MET160     -0.1245
     95  CA       -10.1620   14.8080    9.0160 C.3   160  MET160      0.1570
     96  C         -9.3050   13.7820    8.2830 C.2   160  MET160      0.2261
     97  O         -8.6140   14.1070    7.3160 O.2   160  MET160     -0.2867
     98  CB        -9.3620   15.4880   10.1280 C.3   160  MET160      0.0387
     99  CG        -8.2650   16.4060    9.6140 C.3   160  MET160      0.0595
    100  SD        -8.8810   17.8240    8.6840 S.3   160  MET160     -0.1393
    101  CE        -7.4380   18.2400    7.7010 C.3   160  MET160      0.0692
    102  N         -8.0010   13.8930    4.4280 N.3   164  LYS164     -0.1245
    103  CA        -6.6080   13.6540    4.0660 C.3   164  LYS164      0.1561
    104  C         -6.5040   12.5810    2.9860 C.2   164  LYS164      0.2260
    105  O         -5.6530   12.6630    2.1010 O.2   164  LYS164     -0.2867
    106  CB        -5.7910   13.2560    5.2960 C.3   164  LYS164      0.0271
    107  CG        -5.4720   14.4210    6.2160 C.3   164  LYS164      0.0035
    108  CD        -4.7140   15.5110    5.4670 C.3   164  LYS164      0.0206
    109  CE        -4.3540   16.6700    6.3830 C.3   164  LYS164      0.1093
    110  NZ        -3.5760   17.7270    5.6800 N.3   164  LYS164     -0.1314
    111  N          3.4050   13.9770    7.9620 N.3   190  ALA190     -0.1231
    112  CA         4.1360   14.1820    9.2060 C.3   190  ALA190      0.1694
    113  C          3.5660   13.3480   10.3430 C.2   190  ALA190      0.2593
    114  O          2.4040   12.9430   10.3130 O.2   190  ALA190     -0.2718
    115  CB         4.1260   15.6550    9.5900 C.3   190  ALA190      0.0304
    116  N          4.3950   13.0890   11.3480 N.am  191  GLY191     -0.1943
    117  CA         3.9140   12.4780   12.5700 C.3   191  GLY191      0.1998
    118  C          3.1240   13.5170   13.3420 C.2   191  GLY191      0.2481
    119  O          3.0610   14.6790   12.9320 O.2   191  GLY191     -0.2729
    120  N          2.5180   13.1090   14.4640 N.am  192  PRO192     -0.2715
    121  CA         1.6960   14.0170   15.2670 C.3   192  PRO192      0.1536
    122  C          2.4600   15.2740   15.6730 C.2   192  PRO192      0.2598
    123  O          3.5850   15.1810   16.1620 O.2   192  PRO192     -0.2715
    124  CB         1.3280   13.1710   16.4920 C.3   192  PRO192      0.0310
    125  CG         2.3140   12.0430   16.5050 C.3   192  PRO192      0.0237
    126  CD         2.6110   11.7730   15.0720 C.3   192  PRO192      0.0939
    127  N          1.8530   16.4350   15.4480 N.am  193  ILE193     -0.1964
    128  CA         2.4720   17.7120   15.7800 C.3   193  ILE193      0.1727
    129  C          1.5610   18.5330   16.6820 C.2   193  ILE193      0.2616
    130  O          0.3740   18.6950   16.3970 O.2   193  ILE193     -0.2715
    131  CB         2.7980   18.5300   14.5170 C.3   193  ILE193      0.0290
    132  CG1        3.8330   17.7990   13.6640 C.3   193  ILE193      0.0022
    133  CG2        3.3120   19.9130   14.8960 C.3   193  ILE193      0.0023
    134  CD1        5.1730   17.6450   14.3490 C.3   193  ILE193      0.0001
    135  N          2.1210   19.0490   17.7720 N.am  194  ARG194     -0.1963
    136  CA         1.3560   19.8560   18.7120 C.3   194  ARG194      0.1729
    137  C          1.1870   21.2920   18.2320 C.2   194  ARG194      0.2616
    138  O          1.7120   22.2240   18.8420 O.2   194  ARG194     -0.2715
    139  CB         2.0230   19.8490   20.0850 C.3   194  ARG194      0.0348
    140  CG         1.8160   18.5690   20.8600 C.3   194  ARG194      0.0492
    141  CD         0.4380   18.5200   21.4970 C.3   194  ARG194      0.2205
    142  NE         0.2780   17.3260   22.3200 N.pl3 194  ARG194     -0.0865
    143  CZ         0.7510   17.2020   23.5570 C.cat 194  ARG194      0.5346
    144  NH1        1.4170   18.2010   24.1210 N.pl3 194  ARG194      0.1354
    145  NH2        0.5600   16.0770   24.2300 N.pl3 194  ARG194      0.1354
    146  N          0.4590   21.4650   17.1350 N.am  195  THR195     -0.1951
    147  CA         0.0310   22.7910   16.7190 C.3   195  THR195      0.1897
    148  C         -1.0060   23.2720   17.7230 C.2   195  THR195      0.2313
    149  O         -1.5280   22.4740   18.5020 O.2   195  THR195     -0.2863
    150  CB        -0.5720   22.7900   15.3010 C.3   195  THR195      0.1794
    151  OG1       -1.8660   22.1740   15.3280 O.3   195  THR195     -0.2208
    152  CG2        0.3270   22.0320   14.3360 C.3   195  THR195      0.0378
    153  N         -4.2350   21.2650   17.2230 N.3   198  MET198     -0.1245
    154  CA        -4.2890   19.9470   17.8490 C.3   198  MET198      0.1570
    155  C         -4.2200   20.0310   19.3720 C.2   198  MET198      0.2261
    156  O         -4.8270   19.2180   20.0730 O.2   198  MET198     -0.2867
    157  CB        -3.1580   19.0550   17.3300 C.3   198  MET198      0.0387
    158  CG        -3.2730   18.6790   15.8590 C.3   198  MET198      0.0595
    159  SD        -4.8680   17.9560   15.4090 S.3   198  MET198     -0.1393
    160  CE        -5.0340   16.6530   16.6280 C.3   198  MET198      0.0692
    161  N         -7.6530   20.3660   20.7040 N.3   201  ILE201     -0.1231
    162  CA        -8.4310   19.1360   20.6380 C.3   201  ILE201      0.1692
    163  C         -8.0960   18.2080   21.8020 C.2   201  ILE201      0.2591
    164  O         -8.9900   17.6090   22.4040 O.2   201  ILE201     -0.2718
    165  CB        -8.1980   18.4030   19.3000 C.3   201  ILE201      0.0266
    166  CG1       -8.6220   19.3010   18.1350 C.3   201  ILE201      0.0019
    167  CG2       -8.9590   17.0870   19.2630 C.3   201  ILE201      0.0020
    168  CD1       -8.5230   18.6420   16.7800 C.3   201  ILE201      0.0001
    169  N         -6.8070   18.1080   22.1230 N.am  202  VAL202     -0.1980
    170  CA        -6.3450   17.2850   23.2360 C.3   202  VAL202      0.1595
    171  C         -7.0530   17.6560   24.5370 C.2   202  VAL202      0.2287
    172  O         -7.5410   16.7840   25.2550 O.2   202  VAL202     -0.2864
    173  CB        -4.8200   17.4080   23.4330 C.3   202  VAL202      0.0276
    174  CG1       -4.3780   16.6320   24.6630 C.3   202  VAL202      0.0022
    175  CG2       -4.0820   16.9180   22.1920 C.3   202  VAL202      0.0022
    176  N         -5.5030   10.3510   22.2730 N.3   210  ILE210     -0.1245
    177  CA        -4.5060   11.0670   21.4880 C.3   210  ILE210      0.1561
    178  C         -3.1260   10.8710   22.1140 C.2   210  ILE210      0.2260
    179  O         -2.1430   10.6250   21.4140 O.2   210  ILE210     -0.2867
    180  CB        -4.8310   12.5720   21.3840 C.3   210  ILE210      0.0252
    181  CG1       -6.1230   12.7810   20.5910 C.3   210  ILE210      0.0019
    182  CG2       -3.6820   13.3230   20.7300 C.3   210  ILE210      0.0019
    183  CD1       -6.3950   14.2220   20.2270 C.3   210  ILE210      0.0001
    184  N         -1.7650    7.7050   21.1670 N.3   213  LEU213     -0.1231
    185  CA        -1.2420    7.7220   19.8080 C.3   213  LEU213      0.1693
    186  C          0.1360    8.3690   19.7850 C.2   213  LEU213      0.2591
    187  O          1.0380    7.9110   19.0840 O.2   213  LEU213     -0.2718
    188  CB        -2.1980    8.4600   18.8660 C.3   213  LEU213      0.0284
    189  CG        -1.7700    8.5620   17.3980 C.3   213  LEU213      0.0019
    190  CD1       -2.9590    8.3260   16.4830 C.3   213  LEU213      0.0001
    191  CD2       -1.1270    9.9140   17.1000 C.3   213  LEU213      0.0001
    192  N          0.2880    9.4400   20.5560 N.am  214  GLU214     -0.1979
    193  CA         1.5510   10.1620   20.6330 C.3   214  GLU214      0.1602
    194  C          2.6470    9.2900   21.2340 C.2   214  GLU214      0.2287
    195  O          3.7510    9.2050   20.6930 O.2   214  GLU214     -0.2864
    196  CB         1.3850   11.4420   21.4530 C.3   214  GLU214      0.0415
    197  CG         0.4770   12.4790   20.8080 C.3   214  GLU214      0.1163
    198  CD         0.1800   13.6460   21.7290 C.2   214  GLU214      0.3649
    199  OE1        0.1970   13.4490   22.9630 O.co2 214  GLU214     -0.2457
    200  OE2       -0.0620   14.7610   21.2200 O.co2 214  GLU214     -0.2457
    201  N          6.9190   15.3350   19.1340 N.3   227  MET227     -0.1245
    202  CA         5.7240   16.0280   18.6630 C.3   227  MET227      0.1570
    203  C          5.7950   17.5360   18.9030 C.2   227  MET227      0.2261
    204  O          4.9850   18.2940   18.3730 O.2   227  MET227     -0.2867
    205  CB         4.4860   15.4520   19.3530 C.3   227  MET227      0.0387
    206  CG         4.3010   15.9810   20.7630 C.3   227  MET227      0.0595
    207  SD         3.2900   14.9180   21.8060 S.3   227  MET227     -0.1393
    208  CE         4.5300   13.7620   22.3950 C.3   227  MET227      0.0692
@<TRIPOS>BOND
     1   105   104    2
     2    22    20    1
     3    35    36    1
     4   104   103    1
     5     9    10    1
     6    50    48   ar
     7    38    37    2
     8    20    19    1
     9    48    47    1
    10    48    49   ar
    11    19    21    1
    12    19    16    1
    13    47    44    1
    14   103   102    1
    15   103   106    1
    16    36    37    1
    17    36    39    1
    18    18    17    2
    19    37    43   am
    20    15    16    1
    21    15    11   am
    22    10    11    1
    23    10    13    1
    24    16    17    1
    25    43    44    1
    26    44    45    1
    27    17    23   am
    28   106   107    1
    29    11    12    2
    30    39    40    1
    31    41    40    1
    32    41    42    1
    33   108   107    1
    34   108   109    1
    35    13    14    1
    36   110   109    1
    37    23    24    1
    38    45    51   am
    39    45    46    2
    40    24    25    1
    41    51    52    1
    42    54    53    2
    43    97    96    2
    44    53    52    1
    45   101   100    1
    46    25    26    2
    47   111   112    1
    48    52    55    1
    49    96    95    1
    50   100    99    1
    51    95    94    1
    52    95    98    1
    53   112   115    1
    54   112   113    1
    55    55    56    1
    56     7     5    1
    57     4     3    2
    58    99    98    1
    59     3     2    1
    60    93    92    1
    61     5     2    1
    62     5     6    1
    63    91    92   ar
    64    91    89   ar
    65   114   113    2
    66   113   116   am
    67    56    58   ar
    68    56    57   ar
    69     2     1    1
    70    92    90   ar
    71     8     6    1
    72    89    87   ar
    73    58    60   ar
    74    69    68    1
    75    57    59   ar
    76   116   117    1
    77    90    88   ar
    78    85    84    2
    79    60    61   ar
    80    87    88   ar
    81    87    86    1
    82    59    61   ar
    83   117   118    1
    84    68    67    1
    85    62    63    1
    86    84    83    1
    87   119   118    2
    88    86    83    1
    89    67    66    1
    90   118   120   am
    91    33    32    1
    92    33    34    1
    93    32    31    1
    94   132   134    1
    95   132   131    1
    96    66    63    1
    97    83    82    1
    98    63    64    1
    99    65    64    2
   100   152   150    1
   101   120   126    1
   102   120   121    1
   103   131   133    1
   104   131   128    1
   105    27    28    1
   106    64    70   am
   107   126   125    1
   108    31    28    1
   109    82    79   am
   110   121   122    1
   111   121   124    1
   112    28    29    1
   113   150   151    1
   114   150   147    1
   115   159   158    1
   116   159   160    1
   117   127   122   am
   118   127   128    1
   119   122   123    2
   120    80    79    2
   121   128   129    1
   122   158   157    1
   123    79    78    1
   124    70    76    1
   125    70    71    1
   126    73    72    2
   127   130   129    2
   128   190   189    1
   129   124   125    1
   130   129   135   am
   131   147   146    1
   132   147   148    1
   133    29    30    2
   134   168   166    1
   135    72    71    1
   136    72    77   am
   137    76    75    1
   138    71    74    1
   139   191   189    1
   140   146   137   am
   141   153   154    1
   142    77    78    1
   143   157   154    1
   144    78    81    1
   145   189   188    1
   146   148   149    2
   147   135   136    1
   148   154   155    1
   149   166   165    1
   150   137   136    1
   151   137   138    2
   152    75    74    1
   153   204   203    2
   154   202   203    1
   155   202   201    1
   156   202   205    1
   157   136   139    1
   158   188   185    1
   159   187   186    2
   160   167   165    1
   161   165   162    1
   162   205   206    1
   163   155   156    2
   164   186   185    1
   165   186   192   am
   166   185   184    1
   167   139   140    1
   168   183   181    1
   169   192   193    1
   170   181   180    1
   171   193   194    1
   172   193   196    1
   173   162   161    1
   174   162   163    1
   175   195   194    2
   176   182   180    1
   177   206   207    1
   178   197   196    1
   179   197   198    1
   180   140   141    1
   181   200   198   ar
   182   180   177    1
   183   179   178    2
   184   177   178    1
   185   177   176    1
   186   141   142    1
   187   198   199   ar
   188   163   169   am
   189   163   164    2
   190   207   208    1
   191   169   170    1
   192   175   173    1
   193   142   143    2
   194   170   173    1
   195   170   171    1
   196   173   174    1
   197   143   144    1
   198   143   145    1
   199   171   172    2
