@<TRIPOS>MOLECULE
tmp/5w0cA01.pdb
 166 156 0 0 0
SMALL
GASTEIGER

@<TRIPOS>ATOM
      1  N        -29.7830   52.7130   13.1960 N.3    71  ARG71      -0.1245
      2  CA       -30.3140   53.9970   12.7480 C.3    71  ARG71       0.1563
      3  C        -31.3020   54.5940   13.7470 C.2    71  ARG71       0.2260
      4  O        -31.1830   55.7710   14.1240 O.2    71  ARG71      -0.2867
      5  CB       -30.9800   53.8470   11.3620 C.3    71  ARG71       0.0307
      6  CG       -31.5890   55.1440   10.8090 C.3    71  ARG71       0.0489
      7  CD       -30.5450   56.2610   10.6010 C.3    71  ARG71       0.2205
      8  NE       -29.6840   56.1070    9.4170 N.pl3  71  ARG71      -0.0865
      9  CZ       -28.4050   56.4730    9.3670 C.cat  71  ARG71       0.5346
     10  NH1      -27.8050   56.9780   10.4500 N.pl3  71  ARG71       0.1354
     11  NH2      -27.6980   56.3080    8.2460 N.pl3  71  ARG71       0.1354
     12  N        -37.7710   57.1450   13.2540 N.3    74  PHE74      -0.1241
     13  CA       -38.2150   58.5090   12.9720 C.3    74  PHE74       0.1605
     14  C        -39.6890   58.4230   12.6080 C.2    74  PHE74       0.2264
     15  O        -40.0310   57.8310   11.5620 O.2    74  PHE74      -0.2867
     16  CB       -37.4010   59.1470   11.8500 C.3    74  PHE74       0.0534
     17  CG       -35.9230   59.2210   12.1360 C.ar   74  PHE74      -0.0203
     18  CD1      -35.3190   60.4360   12.4080 C.ar   74  PHE74      -0.0042
     19  CD2      -35.1370   58.0750   12.1230 C.ar   74  PHE74      -0.0042
     20  CE1      -33.9600   60.5070   12.6690 C.ar   74  PHE74      -0.0003
     21  CE2      -33.7770   58.1380   12.3860 C.ar   74  PHE74      -0.0003
     22  CZ       -33.1900   59.3570   12.6590 C.ar   74  PHE74      -0.0000
     23  N        -42.2230   60.2480   11.3570 N.3    76  LEU76      -0.1231
     24  CA       -42.7450   60.6630   10.0600 C.3    76  LEU76       0.1693
     25  C        -42.2580   59.7390    8.9510 C.2    76  LEU76       0.2591
     26  O        -43.0020   59.4400    8.0090 O.2    76  LEU76      -0.2718
     27  CB       -42.3460   62.1080    9.7820 C.3    76  LEU76       0.0284
     28  CG       -43.1480   62.8760    8.7380 C.3    76  LEU76       0.0019
     29  CD1      -44.6340   62.7340    9.0120 C.3    76  LEU76       0.0001
     30  CD2      -42.7300   64.3370    8.7610 C.3    76  LEU76       0.0001
     31  N        -41.0140   59.2620    9.0540 N.am   77  ALA77      -0.1980
     32  CA       -40.5210   58.2790    8.0940 C.3    77  ALA77       0.1597
     33  C        -41.2820   56.9600    8.2070 C.2    77  ALA77       0.2287
     34  O        -41.5090   56.2820    7.1980 O.2    77  ALA77      -0.2864
     35  CB       -39.0190   58.0550    8.2930 C.3    77  ALA77       0.0319
     36  N        -44.4860   57.1160    6.2350 N.3    80  ALA80      -0.1245
     37  CA       -44.2750   56.9640    4.8020 C.3    80  ALA80       0.1562
     38  C        -43.7510   55.5830    4.4350 C.2    80  ALA80       0.2260
     39  O        -43.3910   55.3610    3.2710 O.2    80  ALA80      -0.2867
     40  CB       -43.3200   58.0470    4.2940 C.3    80  ALA80       0.0290
     41  N        -40.9270   54.1290    5.1760 N.3    82  ARG82      -0.1245
     42  CA       -39.5820   54.3600    4.6600 C.3    82  ARG82       0.1563
     43  C        -38.5370   53.4190    5.2380 C.2    82  ARG82       0.2260
     44  O        -37.4280   53.3560    4.7000 O.2    82  ARG82      -0.2867
     45  CB       -39.1500   55.8080    4.9300 C.3    82  ARG82       0.0307
     46  CG       -40.0550   56.8490    4.3100 C.3    82  ARG82       0.0489
     47  CD       -39.8240   57.0080    2.8150 C.3    82  ARG82       0.2205
     48  NE       -38.5630   57.6900    2.5350 N.pl3  82  ARG82      -0.0865
     49  CZ       -37.4900   57.1080    1.9980 C.cat  82  ARG82       0.5346
     50  NH1      -37.5170   55.8160    1.6560 N.pl3  82  ARG82       0.1354
     51  NH2      -36.3840   57.8230    1.7960 N.pl3  82  ARG82       0.1354
     52  N        -31.4630   53.9010    4.2990 N.3    87  VAL87      -0.1231
     53  CA       -31.2370   54.9950    5.2510 C.3    87  VAL87       0.1692
     54  C        -31.9100   54.7070    6.5940 C.2    87  VAL87       0.2592
     55  O        -31.3300   54.9490    7.6620 O.2    87  VAL87      -0.2718
     56  CB       -31.7290   56.3240    4.6420 C.3    87  VAL87       0.0266
     57  CG1      -31.6730   57.4760    5.6730 C.3    87  VAL87       0.0020
     58  CG2      -30.9140   56.6740    3.3930 C.3    87  VAL87       0.0020
     59  N        -33.1270   54.1660    6.5620 N.am   88  PHE88      -0.1976
     60  CA       -33.9490   53.9890    7.7540 C.3    88  PHE88       0.1639
     61  C        -34.1140   52.5430    8.1750 C.2    88  PHE88       0.2290
     62  O        -34.8000   52.2780    9.1640 O.2    88  PHE88      -0.2864
     63  CB       -35.3320   54.6010    7.5370 C.3    88  PHE88       0.0560
     64  CG       -35.2980   56.0700    7.3330 C.ar   88  PHE88      -0.0200
     65  CD1      -35.5500   56.6170    6.0900 C.ar   88  PHE88      -0.0042
     66  CD2      -34.9820   56.9100    8.3780 C.ar   88  PHE88      -0.0042
     67  CE1      -35.5020   57.9750    5.8990 C.ar   88  PHE88      -0.0003
     68  CE2      -34.9380   58.2690    8.1880 C.ar   88  PHE88      -0.0003
     69  CZ       -35.1970   58.8000    6.9510 C.ar   88  PHE88      -0.0000
     70  N        -39.0460   68.3440   -0.7180 N.3   178  ASN178     -0.1225
     71  CA       -38.8200   67.4950    0.4430 C.3   178  ASN178      0.1785
     72  C        -37.5650   67.9020    1.2040 C.2   178  ASN178      0.2597
     73  O        -37.5750   67.9680    2.4390 O.2   178  ASN178     -0.2718
     74  CB       -38.7290   66.0360    0.0100 C.3   178  ASN178      0.1169
     75  CG       -40.0940   65.4140   -0.1930 C.2   178  ASN178      0.2627
     76  OD1      -41.1090   66.1100   -0.1620 O.2   178  ASN178     -0.2716
     77  ND2      -40.1280   64.1060   -0.3950 N.am  178  ASN178     -0.0877
     78  N        -36.4640   68.1470    0.4800 N.am  179  ILE179     -0.1980
     79  CA       -35.2330   68.6050    1.1250 C.3   179  ILE179      0.1595
     80  C        -35.4750   69.8950    1.8990 C.2   179  ILE179      0.2287
     81  O        -35.0020   70.0520    3.0300 O.2   179  ILE179     -0.2864
     82  CB       -34.1070   68.7790    0.0880 C.3   179  ILE179      0.0276
     83  CG1      -33.6000   67.4160   -0.3800 C.3   179  ILE179      0.0022
     84  CG2      -32.9480   69.5490    0.7010 C.3   179  ILE179      0.0022
     85  CD1      -32.8470   66.6410    0.6990 C.3   179  ILE179      0.0001
     86  N        -37.4700   68.8950    5.0670 N.3   182  LEU182     -0.1245
     87  CA       -36.7500   68.0680    6.0280 C.3   182  LEU182      0.1561
     88  C        -35.5650   68.7760    6.6720 C.2   182  LEU182      0.2260
     89  O        -35.1500   68.3800    7.7660 O.2   182  LEU182     -0.2867
     90  CB       -36.2570   66.7940    5.3480 C.3   182  LEU182      0.0270
     91  CG       -37.3420   65.7830    5.0000 C.3   182  LEU182      0.0019
     92  CD1      -36.7520   64.6540    4.1750 C.3   182  LEU182      0.0001
     93  CD2      -37.9560   65.2710    6.2820 C.3   182  LEU182      0.0001
     94  N        -44.7720   66.2700    2.3590 N.3   207  LEU207     -0.1231
     95  CA       -43.6710   65.3150    2.3690 C.3   207  LEU207      0.1693
     96  C        -44.1620   63.9050    2.0570 C.2   207  LEU207      0.2591
     97  O        -43.5650   63.1880    1.2440 O.2   207  LEU207     -0.2718
     98  CB       -42.9800   65.3670    3.7320 C.3   207  LEU207      0.0284
     99  CG       -41.6430   64.6660    3.9530 C.3   207  LEU207      0.0019
    100  CD1      -40.5420   65.3980    3.2130 C.3   207  LEU207      0.0001
    101  CD2      -41.3590   64.6410    5.4430 C.3   207  LEU207      0.0001
    102  N        -45.2630   63.4880    2.6890 N.am  208  LEU208     -0.1980
    103  CA       -45.8030   62.1620    2.4050 C.3   208  LEU208      0.1596
    104  C        -46.2830   62.0650    0.9660 C.2   208  LEU208      0.2287
    105  O        -46.0670   61.0470    0.3000 O.2   208  LEU208     -0.2864
    106  CB       -46.9390   61.8300    3.3730 C.3   208  LEU208      0.0297
    107  CG       -46.5940   61.7750    4.8610 C.3   208  LEU208      0.0022
    108  CD1      -47.8720   61.7830    5.6990 C.3   208  LEU208      0.0001
    109  CD2      -45.7450   60.5530    5.1830 C.3   208  LEU208      0.0001
    110  N        -43.2290   61.8890   -1.4150 N.3   211  VAL211     -0.1245
    111  CA       -42.6330   60.5570   -1.3170 C.3   211  VAL211      0.1561
    112  C        -43.4920   59.5180   -2.0340 C.2   211  VAL211      0.2260
    113  O        -42.9720   58.6270   -2.7180 O.2   211  VAL211     -0.2867
    114  CB       -42.4140   60.1790    0.1600 C.3   211  VAL211      0.0252
    115  CG1      -42.0790   58.6970    0.2920 C.3   211  VAL211      0.0019
    116  CG2      -41.3070   61.0220    0.7590 C.3   211  VAL211      0.0019
    117  N        -35.7300   55.5270   -3.6720 N.3   266  VAL266     -0.1231
    118  CA       -35.9800   56.8450   -3.0970 C.3   266  VAL266      0.1692
    119  C        -34.8180   57.2680   -2.2030 C.2   266  VAL266      0.2592
    120  O        -34.3820   58.4240   -2.2460 O.2   266  VAL266     -0.2718
    121  CB       -37.3230   56.8600   -2.3440 C.3   266  VAL266      0.0266
    122  CG1      -37.4710   58.1450   -1.5180 C.3   266  VAL266      0.0020
    123  CG2      -38.4740   56.7160   -3.3300 C.3   266  VAL266      0.0020
    124  N        -34.2930   56.3430   -1.3910 N.am  267  ASP267     -0.1974
    125  CA       -33.1300   56.6510   -0.5560 C.3   267  ASP267      0.1709
    126  C        -31.9900   57.2240   -1.3870 C.2   267  ASP267      0.2293
    127  O        -31.3730   58.2280   -1.0150 O.2   267  ASP267     -0.2864
    128  CB       -32.6350   55.3990    0.1710 C.3   267  ASP267      0.1436
    129  CG       -33.4540   55.0610    1.3880 C.2   267  ASP267      0.3671
    130  OD1      -34.3860   55.8270    1.7250 O.co2 267  ASP267     -0.2456
    131  OD2      -33.1640   54.0080    1.9820 O.co2 267  ASP267     -0.2456
    132  N        -32.6800   60.7610   -2.5400 N.3   270  GLY270     -0.1210
    133  CA       -32.6420   61.7170   -1.4470 C.3   270  GLY270      0.1956
    134  C        -31.2600   61.8590   -0.8350 C.2   270  GLY270      0.2611
    135  O        -30.8770   62.9460   -0.3920 O.2   270  GLY270     -0.2717
    136  N        -30.4990   60.7650   -0.7810 N.am  271  ALA271     -0.1979
    137  CA       -29.1890   60.8270   -0.1390 C.3   271  ALA271      0.1597
    138  C        -28.1140   61.3390   -1.0840 C.2   271  ALA271      0.2287
    139  O        -27.1080   61.8990   -0.6330 O.2   271  ALA271     -0.2864
    140  CB       -28.7950   59.4500    0.3920 C.3   271  ALA271      0.0319
    141  N        -25.9180   61.6860   10.2700 N.3   340  LEU340     -0.1231
    142  CA       -27.2850   61.2800   10.5540 C.3   340  LEU340      0.1678
    143  C        -27.2830   60.5350   11.8790 C.2   340  LEU340      0.2438
    144  O        -26.3070   59.8500   12.1840 O.2   340  LEU340     -0.2733
    145  CB       -27.8480   60.3520    9.4670 C.3   340  LEU340      0.0284
    146  CG       -27.9320   60.8670    8.0300 C.3   340  LEU340      0.0019
    147  CD1      -28.8120   59.9270    7.2060 C.3   340  LEU340      0.0001
    148  CD2      -28.4290   62.3010    7.9620 C.3   340  LEU340      0.0001
    149  N        -28.3370   60.6440   12.6920 N.am  341  PRO341     -0.2653
    150  CA       -28.2720   60.0370   14.0290 C.3   341  PRO341      0.1628
    151  C        -28.2460   58.5170   13.9500 C.2   341  PRO341      0.2315
    152  O        -28.8630   57.9150   13.0710 O.2   341  PRO341     -0.2861
    153  CB       -29.5310   60.5570   14.7450 C.2   341  PRO341     -0.0016
    154  CG       -30.3030   61.3480   13.7750 C.2   341  PRO341     -0.0072
    155  CD       -29.4840   61.5550   12.5210 C.3   341  PRO341      0.1203
    156  N        -30.1350   70.7170    8.8780 N.3   450  PHE450     -0.1241
    157  CA       -29.3620   69.4930    8.6770 C.3   450  PHE450      0.1605
    158  C        -27.9420   69.7250    8.1840 C.2   450  PHE450      0.2264
    159  O        -27.0340   68.9900    8.5780 O.2   450  PHE450     -0.2867
    160  CB       -30.0720   68.5680    7.6640 C.3   450  PHE450      0.0534
    161  CG       -31.1150   67.6740    8.2750 C.ar  450  PHE450     -0.0203
    162  CD1      -31.1340   67.4360    9.6410 C.ar  450  PHE450     -0.0042
    163  CD2      -32.0780   67.0670    7.4750 C.ar  450  PHE450     -0.0042
    164  CE1      -32.1070   66.6060   10.2090 C.ar  450  PHE450     -0.0003
    165  CE2      -33.0500   66.2340    8.0310 C.ar  450  PHE450     -0.0003
    166  CZ       -33.0640   66.0080    9.4010 C.ar  450  PHE450     -0.0000
@<TRIPOS>BOND
     1   117   118    1
     2   123   121    1
     3   118   121    1
     4   118   119    1
     5   113   112    2
     6   132   133    1
     7   121   122    1
     8   120   119    2
     9   119   124   am
    10   112   111    1
    11   133   134    1
    12   110   111    1
    13   124   125    1
    14   126   127    2
    15   126   125    1
    16   111   114    1
    17   138   139    2
    18   138   137    1
    19   134   136   am
    20   134   135    2
    21   136   137    1
    22    70    71    1
    23   125   128    1
    24    77    75   am
    25    83    82    1
    26    83    85    1
    27    75    76    2
    28    75    74    1
    29   137   140    1
    30    74    71    1
    31    82    84    1
    32    82    79    1
    33   114   115    1
    34   114   116    1
    35   128   129    1
    36   105   104    2
    37    71    72    1
    38    78    79    1
    39    78    72   am
    40   104   103    1
    41    79    80    1
    42    72    73    2
    43    97    96    2
    44   129   130   ar
    45   129   131   ar
    46    50    49    1
    47    51    49    1
    48    80    81    2
    49    49    48    2
    50    96    95    1
    51    96   102   am
    52    94    95    1
    53    95    98    1
    54   103   102    1
    55   103   106    1
    56    48    47    1
    57    47    46    1
    58   100    99    1
    59    39    38    2
    60   106   107    1
    61    58    56    1
    62    98    99    1
    63    99   101    1
    64    92    91    1
    65    40    37    1
    66    52    53    1
    67    46    45    1
    68    38    37    1
    69    56    53    1
    70    56    57    1
    71    42    45    1
    72    42    41    1
    73    42    43    1
    74    44    43    2
    75    37    36    1
    76   107   109    1
    77   107   108    1
    78    91    90    1
    79    91    93    1
    80    86    87    1
    81    53    54    1
    82    90    87    1
    83    67    65   ar
    84    67    69   ar
    85    87    88    1
    86    65    64   ar
    87    59    54   am
    88    59    60    1
    89    54    55    2
    90    88    89    2
    91    69    68   ar
    92    34    33    2
    93   147   146    1
    94    64    63    1
    95    64    66   ar
    96   163   165   ar
    97   163   161   ar
    98    63    60    1
    99   160   161    1
   100   160   157    1
   101    60    61    1
   102   148   146    1
   103    26    25    2
   104   146   145    1
   105   165   166   ar
   106    32    33    1
   107    32    35    1
   108    32    31    1
   109    61    62    2
   110   158   159    2
   111   158   157    1
   112    68    66   ar
   113    11     9    1
   114   161   162   ar
   115   157   156    1
   116    28    30    1
   117    28    29    1
   118    28    27    1
   119    25    31   am
   120    25    24    1
   121     9     8    2
   122     9    10    1
   123   166   164   ar
   124     8     7    1
   125   145   142    1
   126   162   164   ar
   127    27    24    1
   128    24    23    1
   129   141   142    1
   130   142   143    1
   131     7     6    1
   132     6     5    1
   133     5     2    1
   134    15    14    2
   135    16    17    1
   136    16    13    1
   137   143   144    2
   138   143   149   am
   139    19    17   ar
   140    19    21   ar
   141    17    18   ar
   142    21    22   ar
   143    18    20   ar
   144   155   149    1
   145   155   154    1
   146    14    13    1
   147    22    20   ar
   148   149   150    1
   149     2     1    1
   150     2     3    1
   151    13    12    1
   152   152   151    2
   153     3     4    2
   154   154   153    2
   155   151   150    1
   156   150   153    1
