@<TRIPOS>MOLECULE
tmp/5w0dB00.pdb
 103 100 0 0 0
SMALL
GASTEIGER

@<TRIPOS>ATOM
      1  N          7.6300   33.0160  -49.5880 N.3    33  TYR33      -0.1241
      2  CA         8.7460   33.6260  -50.2790 C.3    33  TYR33       0.1605
      3  C          8.3160   34.9970  -50.8110 C.2    33  TYR33       0.2264
      4  O          7.1390   35.2510  -51.0770 O.2    33  TYR33      -0.2867
      5  CB         9.2260   32.7590  -51.4500 C.3    33  TYR33       0.0534
      6  CG        10.0500   31.5230  -51.1310 C.ar   33  TYR33      -0.0201
      7  CD1        9.9300   30.8570  -49.9170 C.ar   33  TYR33      -0.0009
      8  CD2       10.9110   30.9850  -52.0810 C.ar   33  TYR33      -0.0009
      9  CE1       10.6860   29.7070  -49.6580 C.ar   33  TYR33       0.0417
     10  CE2       11.6560   29.8260  -51.8260 C.ar   33  TYR33       0.0417
     11  CZ        11.5410   29.1950  -50.6150 C.ar   33  TYR33       0.1957
     12  OH        12.2680   28.0190  -50.3520 O.3    33  TYR33      -0.2866
     13  N         14.2160   35.9420  -55.6410 N.3    50  TRP50      -0.1241
     14  CA        13.4130   35.7900  -54.4480 C.3    50  TRP50       0.1605
     15  C         14.2770   35.7000  -53.2050 C.2    50  TRP50       0.2264
     16  O         15.4590   35.3400  -53.2560 O.2    50  TRP50      -0.2867
     17  CB        12.5080   34.5470  -54.5200 C.3    50  TRP50       0.0550
     18  CG        13.1640   33.2080  -54.3520 C.ar   50  TRP50       0.0003
     19  CD1       13.9080   32.7530  -53.2770 C.ar   50  TRP50       0.0946
     20  CD2       13.0760   32.1100  -55.2620 C.ar   50  TRP50       0.0152
     21  NE1       14.3030   31.4590  -53.4890 N.ar   50  TRP50      -0.2442
     22  CE2       13.7950   31.0290  -54.6910 C.ar   50  TRP50       0.0810
     23  CE3       12.4520   31.9290  -56.5010 C.ar   50  TRP50       0.0012
     24  CZ2       13.9200   29.7870  -55.3280 C.ar   50  TRP50       0.0191
     25  CZ3       12.5760   30.6950  -57.1370 C.ar   50  TRP50       0.0001
     26  CH2       13.3040   29.6330  -56.5440 C.ar   50  TRP50       0.0015
     27  N         13.7310   33.8780  -49.2410 N.3    52  ASN52      -0.1240
     28  CA        12.9770   33.0760  -48.2950 C.3    52  ASN52       0.1653
     29  C         13.0810   33.7990  -46.9550 C.2    52  ASN52       0.2266
     30  O         14.1230   33.7440  -46.2990 O.2    52  ASN52      -0.2867
     31  CB        13.5500   31.6450  -48.2390 C.3    52  ASN52       0.1155
     32  CG        12.9360   30.7920  -47.1260 C.2    52  ASN52       0.2627
     33  OD1       12.1270   31.2650  -46.3280 O.2    52  ASN52      -0.2716
     34  ND2       13.3270   29.5270  -47.0750 N.am   52  ASN52      -0.0877
     35  N         14.3480   31.6740  -43.6820 N.3    55  SER55      -0.1217
     36  CA        15.7610   31.3400  -43.5960 C.3    55  SER55       0.1889
     37  C         16.6940   32.4510  -44.0550 C.2    55  SER55       0.2288
     38  O         17.8780   32.4260  -43.6920 O.2    55  SER55      -0.2866
     39  CB        16.0660   30.1070  -44.4470 C.3    55  SER55       0.2089
     40  OG        16.0520   30.4720  -45.8160 O.3    55  SER55      -0.2183
     41  N         17.5690   32.6380  -47.1660 N.3    57  GLY57      -0.1210
     42  CA        18.1130   32.1810  -48.4280 C.3    57  GLY57       0.1956
     43  C         17.5860   32.9920  -49.5940 C.2    57  GLY57       0.2612
     44  O         16.4450   33.4660  -49.5850 O.2    57  GLY57      -0.2717
     45  N         18.4230   33.1410  -50.6210 N.am   58  THR58      -0.1952
     46  CA        18.0440   33.9080  -51.8040 C.3    58  THR58       0.1897
     47  C         18.2960   33.0880  -53.0560 C.2    58  THR58       0.2313
     48  O         19.1010   32.1430  -53.0630 O.2    58  THR58      -0.2863
     49  CB        18.8370   35.2330  -51.9330 C.3    58  THR58       0.1794
     50  OG1       20.2440   34.9410  -51.9630 O.3    58  THR58      -0.2208
     51  CG2       18.5520   36.1770  -50.7630 C.3    58  THR58       0.0378
     52  N          4.7850   28.2980  -47.1540 N.3   103  MET103     -0.1230
     53  CA         5.9500   27.4500  -46.9830 C.3   103  MET103      0.1702
     54  C          6.2770   27.1550  -45.5340 C.2   103  MET103      0.2592
     55  O          6.9140   26.1390  -45.2540 O.2   103  MET103     -0.2718
     56  CB         7.1980   28.0800  -47.6460 C.3   103  MET103      0.0401
     57  CG         7.1960   28.0220  -49.1740 C.3   103  MET103      0.0596
     58  SD         7.4410   26.3500  -49.7830 S.3   103  MET103     -0.1393
     59  CE         9.1060   25.9780  -49.1890 C.3   103  MET103      0.0692
     60  N          5.8840   28.0270  -44.6170 N.am  104  TYR104     -0.1976
     61  CA         6.2130   27.8830  -43.2110 C.3   104  TYR104      0.1639
     62  C          5.0340   28.3730  -42.4060 C.2   104  TYR104      0.2290
     63  O          4.3210   29.3070  -42.8050 O.2   104  TYR104     -0.2864
     64  CB         7.4720   28.6900  -42.7910 C.3   104  TYR104      0.0560
     65  CG         8.7350   28.3380  -43.5380 C.ar  104  TYR104     -0.0198
     66  CD1        9.5760   27.3180  -43.0810 C.ar  104  TYR104     -0.0009
     67  CD2        9.0800   28.9980  -44.7060 C.ar  104  TYR104     -0.0009
     68  CE1       10.7140   26.9850  -43.7680 C.ar  104  TYR104      0.0417
     69  CE2       10.2180   28.6720  -45.3930 C.ar  104  TYR104      0.0417
     70  CZ        11.0360   27.6700  -44.9140 C.ar  104  TYR104      0.1957
     71  OH        12.1680   27.3300  -45.5950 O.3   104  TYR104     -0.2866
     72  N          6.7230   23.2060  -41.6960 N.3   111  GLU111     -0.1245
     73  CA         7.3840   23.6370  -42.9230 C.3   111  GLU111      0.1567
     74  C          6.9070   22.7540  -44.0570 C.2   111  GLU111      0.2260
     75  O          6.7940   21.5270  -43.8940 O.2   111  GLU111     -0.2867
     76  CB         8.9210   23.5350  -42.8500 C.3   111  GLU111      0.0388
     77  CG         9.5220   24.0540  -41.5630 C.3   111  GLU111      0.1160
     78  CD        11.0250   23.8310  -41.4640 C.2   111  GLU111      0.3649
     79  OE1       11.6930   23.5350  -42.4900 O.co2 111  GLU111     -0.2457
     80  OE2       11.5440   23.9350  -40.3320 O.co2 111  GLU111     -0.2457
     81  N          8.5950   21.9720  -46.6620 N.3   113  GLY113     -0.1210
     82  CA         9.6900   21.0500  -46.8630 C.3   113  GLY113      0.1956
     83  C         10.1480   20.9170  -48.2990 C.2   113  GLY113      0.2612
     84  O         11.1250   20.2150  -48.5600 O.2   113  GLY113     -0.2717
     85  N          9.4700   21.5660  -49.2340 N.am  114  VAL114     -0.1965
     86  CA         9.7650   21.4570  -50.6580 C.3   114  VAL114      0.1727
     87  C          9.2100   22.7210  -51.2950 C.2   114  VAL114      0.2616
     88  O          8.1510   23.1960  -50.9040 O.2   114  VAL114     -0.2715
     89  CB         9.1460   20.1770  -51.2700 C.3   114  VAL114      0.0290
     90  CG1        7.6690   20.1020  -50.9640 C.3   114  VAL114      0.0023
     91  CG2        9.3730   20.1270  -52.7580 C.3   114  VAL114      0.0023
     92  N          9.9460   23.2800  -52.2430 N.am  115  TYR115     -0.1974
     93  CA         9.5740   24.5530  -52.8520 C.3   115  TYR115      0.1639
     94  C          9.4270   24.3740  -54.3540 C.2   115  TYR115      0.2290
     95  O         10.2650   23.7370  -54.9950 O.2   115  TYR115     -0.2864
     96  CB        10.5970   25.6680  -52.6070 C.3   115  TYR115      0.0560
     97  CG        10.1680   26.9070  -53.3850 C.ar  115  TYR115     -0.0198
     98  CD1       10.7600   27.2210  -54.5890 C.ar  115  TYR115     -0.0009
     99  CD2        9.1250   27.6860  -52.9490 C.ar  115  TYR115     -0.0009
    100  CE1       10.3470   28.3330  -55.3280 C.ar  115  TYR115      0.0417
    101  CE2        8.7020   28.8040  -53.6790 C.ar  115  TYR115      0.0417
    102  CZ         9.3150   29.1060  -54.8650 C.ar  115  TYR115      0.1957
    103  OH         8.8820   30.2070  -55.5740 O.3   115  TYR115     -0.2866
@<TRIPOS>BOND
     1    25    26   ar
     2    25    23   ar
     3    26    24   ar
     4    23    20   ar
     5    13    14    1
     6   103   102    1
     7   100   102   ar
     8   100    98   ar
     9    24    22   ar
    10    20    22   ar
    11    20    18   ar
    12    95    94    2
    13   102   101   ar
    14    22    21   ar
    15    98    97   ar
    16    17    14    1
    17    17    18    1
    18    14    15    1
    19    94    93    1
    20    18    19   ar
    21   101    99   ar
    22    21    19   ar
    23    97    99   ar
    24    97    96    1
    25    16    15    2
    26    48    47    2
    27    47    46    1
    28    93    96    1
    29    93    92    1
    30    91    89    1
    31    92    87   am
    32     8    10   ar
    33     8     6   ar
    34    50    49    1
    35    49    46    1
    36    49    51    1
    37    10    11   ar
    38    46    45    1
    39     5     6    1
    40     5     2    1
    41    87    88    2
    42    87    86    1
    43    89    90    1
    44    89    86    1
    45     6     7   ar
    46     4     3    2
    47     3     2    1
    48    86    85    1
    49    45    43   am
    50    11    12    1
    51    11     9   ar
    52     2     1    1
    53     7     9   ar
    54    58    59    1
    55    58    57    1
    56    43    44    2
    57    43    42    1
    58    27    28    1
    59    85    83   am
    60    57    56    1
    61    84    83    2
    62    42    41    1
    63    83    82    1
    64    28    31    1
    65    28    29    1
    66    31    32    1
    67    56    53    1
    68    52    53    1
    69    32    34   am
    70    32    33    2
    71    53    54    1
    72    29    30    2
    73    82    81    1
    74    40    39    1
    75    71    70    1
    76    54    55    2
    77    54    60   am
    78    69    70   ar
    79    69    67   ar
    80    70    68   ar
    81    67    65   ar
    82    60    61    1
    83    39    36    1
    84    74    75    2
    85    74    73    1
    86    37    38    2
    87    37    36    1
    88    68    66   ar
    89    35    36    1
    90    65    66   ar
    91    65    64    1
    92    61    64    1
    93    61    62    1
    94    73    76    1
    95    73    72    1
    96    76    77    1
    97    63    62    2
    98    79    78   ar
    99    77    78    1
   100    78    80   ar
