@<TRIPOS>MOLECULE
tmp/5w0eA00.pdb
 158 153 0 0 0
SMALL
GASTEIGER

@<TRIPOS>ATOM
      1  N         -0.2940   10.5190   -8.6090 N.3    23  ASP23      -0.1225
      2  CA         0.8070   10.1190   -7.7660 C.3    23  ASP23       0.1790
      3  C          1.0870   11.2780   -6.8220 C.2    23  ASP23       0.2439
      4  O          1.1910   12.4280   -7.2740 O.2    23  ASP23      -0.2733
      5  CB         2.0480    9.8180   -8.6270 C.3    23  ASP23       0.1423
      6  CG         3.1210    9.0180   -7.8780 C.2    23  ASP23       0.3668
      7  OD1        3.8330    9.5830   -7.0140 O.co2  23  ASP23      -0.2456
      8  OD2        3.2620    7.8100   -8.1670 O.co2  23  ASP23      -0.2456
      9  N          1.2290   11.0330   -5.5260 N.am   24  PRO24      -0.2729
     10  CA         1.2620    9.7130   -4.8950 C.3    24  PRO24       0.1401
     11  C         -0.1190    9.1850   -4.5200 C.2    24  PRO24       0.2269
     12  O         -0.2330    8.1080   -3.9440 O.2    24  PRO24      -0.2865
     13  CB         2.0580    9.9820   -3.6210 C.3    24  PRO24       0.0296
     14  CG         1.6840   11.3910   -3.2740 C.3    24  PRO24       0.0237
     15  CD         1.5950   12.1090   -4.5930 C.3    24  PRO24       0.0939
     16  N         -1.4430    5.5330   -4.9860 N.3    27  LEU27      -0.1231
     17  CA        -0.6300    4.3950   -4.5580 C.3    27  LEU27       0.1678
     18  C         -1.3090    3.5190   -3.5090 C.2    27  LEU27       0.2434
     19  O         -1.2470    2.2810   -3.6500 O.2    27  LEU27      -0.2733
     20  CB         0.7620    4.8610   -4.1110 C.3    27  LEU27       0.0284
     21  CG         1.6150    5.5250   -5.1940 C.3    27  LEU27       0.0019
     22  CD1        2.8910    6.0840   -4.5970 C.3    27  LEU27       0.0001
     23  CD2        1.9080    4.5740   -6.3430 C.3    27  LEU27       0.0001
     24  N         -1.9610    4.0620   -2.4710 N.am   28  PRO28      -0.2718
     25  CA        -2.6370    3.1970   -1.4860 C.3    28  PRO28       0.1535
     26  C         -3.8800    2.5040   -2.0130 C.2    28  PRO28       0.2598
     27  O         -4.4330    1.6520   -1.2990 O.2    28  PRO28      -0.2715
     28  CB        -3.0080    4.1670   -0.3410 C.3    28  PRO28       0.0310
     29  CG        -2.2620    5.4230   -0.6120 C.3    28  PRO28       0.0237
     30  CD        -2.0130    5.4830   -2.0710 C.3    28  PRO28       0.0939
     31  N         -4.3090    2.8170   -3.2360 N.am   29  PHE29      -0.1974
     32  CA        -5.5550    2.3270   -3.8040 C.3    29  PHE29       0.1639
     33  C         -5.3520    1.3190   -4.9240 C.2    29  PHE29       0.2290
     34  O         -6.3410    0.7890   -5.4490 O.2    29  PHE29      -0.2864
     35  CB        -6.3680    3.5050   -4.3420 C.3    29  PHE29       0.0560
     36  CG        -6.8500    4.4240   -3.2790 C.ar   29  PHE29      -0.0200
     37  CD1       -6.0390    5.4400   -2.7920 C.ar   29  PHE29      -0.0042
     38  CD2       -8.1160    4.2610   -2.7410 C.ar   29  PHE29      -0.0042
     39  CE1       -6.4980    6.2760   -1.7990 C.ar   29  PHE29      -0.0003
     40  CE2       -8.5800    5.0950   -1.7470 C.ar   29  PHE29      -0.0003
     41  CZ        -7.7710    6.1030   -1.2730 C.ar   29  PHE29      -0.0000
     42  N         -6.2640   -3.7580   -0.0190 N.3    33  VAL33      -0.1245
     43  CA        -5.6210   -3.6310    1.2840 C.3    33  VAL33       0.1561
     44  C         -5.3060   -5.0140    1.8160 C.2    33  VAL33       0.2260
     45  O         -6.1700   -5.8950    1.8480 O.2    33  VAL33      -0.2867
     46  CB        -6.5100   -2.8540    2.2630 C.3    33  VAL33       0.0252
     47  CG1       -5.8690   -2.8400    3.6640 C.3    33  VAL33       0.0019
     48  CG2       -6.7540   -1.4480    1.7290 C.3    33  VAL33       0.0019
     49  N          0.3550   -5.2500    5.9960 N.3    38  LEU38      -0.1231
     50  CA         0.5140   -3.8660    6.4100 C.3    38  LEU38       0.1693
     51  C          0.6040   -3.6990    7.9180 C.2    38  LEU38       0.2593
     52  O          0.9470   -2.6070    8.3880 O.2    38  LEU38      -0.2718
     53  CB        -0.6610   -3.0550    5.8800 C.3    38  LEU38       0.0284
     54  CG        -0.7840   -2.9360    4.3600 C.3    38  LEU38       0.0019
     55  CD1       -2.0830   -2.2530    3.9960 C.3    38  LEU38       0.0001
     56  CD2        0.3950   -2.1470    3.8030 C.3    38  LEU38       0.0001
     57  N          0.3190   -4.7450    8.6870 N.am   39  GLY39      -0.1942
     58  CA         0.2760   -4.5860   10.1250 C.3    39  GLY39       0.2014
     59  C         -0.9240   -3.8210   10.6410 C.2    39  GLY39       0.2638
     60  O         -0.8480   -3.2210   11.7190 O.2    39  GLY39      -0.2714
     61  N         -2.0420   -3.8550    9.9230 N.am   40  ILE40      -0.1977
     62  CA        -3.2970   -3.2640   10.3930 C.3    40  ILE40       0.1596
     63  C         -4.3720   -4.3430   10.4910 C.2    40  ILE40       0.2287
     64  O         -5.3600   -4.3130    9.7460 O.2    40  ILE40      -0.2864
     65  CB        -3.7350   -2.0640    9.5360 C.3    40  ILE40       0.0276
     66  CG1       -3.7330   -2.4050    8.0400 C.3    40  ILE40       0.0022
     67  CG2       -2.8360   -0.8780    9.8340 C.3    40  ILE40       0.0022
     68  CD1       -4.5120   -1.3850    7.1960 C.3    40  ILE40       0.0001
     69  N         -8.3700   -4.0400   10.0830 N.3    43  TYR43      -0.1241
     70  CA        -8.9630   -3.4450    8.8860 C.3    43  TYR43       0.1605
     71  C        -10.2940   -4.0990    8.5240 C.2    43  TYR43       0.2264
     72  O        -11.3020   -3.4120    8.3200 O.2    43  TYR43      -0.2867
     73  CB        -7.9710   -3.5060    7.7190 C.3    43  TYR43       0.0534
     74  CG        -8.5000   -2.8210    6.4800 C.ar   43  TYR43      -0.0201
     75  CD1       -8.4290   -1.4370    6.3340 C.ar   43  TYR43      -0.0009
     76  CD2       -9.1040   -3.5560    5.4730 C.ar   43  TYR43      -0.0009
     77  CE1       -8.9370   -0.8110    5.1930 C.ar   43  TYR43       0.0417
     78  CE2       -9.6100   -2.9460    4.3520 C.ar   43  TYR43       0.0417
     79  CZ        -9.5220   -1.5810    4.2110 C.ar   43  TYR43       0.1957
     80  OH       -10.0550   -1.0050    3.0790 O.3    43  TYR43      -0.2866
     81  N        -12.8070   -2.6870   -1.5110 N.3    51  MET51      -0.1230
     82  CA       -12.7770   -2.4120   -2.9350 C.3    51  MET51       0.1702
     83  C        -11.5220   -1.6060   -3.2140 C.2    51  MET51       0.2592
     84  O        -11.0620   -0.8470   -2.3540 O.2    51  MET51      -0.2718
     85  CB       -14.0410   -1.6590   -3.3660 C.3    51  MET51       0.0401
     86  CG       -14.1670   -1.4180   -4.8690 C.3    51  MET51       0.0596
     87  SD       -14.1010   -2.9070   -5.8790 S.3    51  MET51      -0.1393
     88  CE       -15.4460   -3.8880   -5.2160 C.3    51  MET51       0.0692
     89  N        -10.9580   -1.7870   -4.4060 N.am   52  ASP52      -0.1974
     90  CA        -9.7550   -1.0670   -4.7990 C.3    52  ASP52       0.1709
     91  C         -9.7070   -0.9490   -6.3180 C.2    52  ASP52       0.2293
     92  O        -10.5230   -1.5260   -7.0460 O.2    52  ASP52      -0.2864
     93  CB        -8.5020   -1.7720   -4.2970 C.3    52  ASP52       0.1436
     94  CG        -8.2060   -3.0160   -5.0820 C.2    52  ASP52       0.3671
     95  OD1       -8.9660   -4.0120   -4.9680 O.co2  52  ASP52      -0.2456
     96  OD2       -7.2230   -2.9840   -5.8380 O.co2  52  ASP52      -0.2456
     97  N        -14.9140    2.2100   -2.6460 N.3    78  MET78      -0.1245
     98  CA       -13.4850    2.3680   -2.3960 C.3    78  MET78       0.1570
     99  C        -13.1910    3.6430   -1.6120 C.2    78  MET78       0.2261
    100  O        -12.4470    3.6160   -0.6250 O.2    78  MET78      -0.2867
    101  CB       -12.7450    2.3710   -3.7270 C.3    78  MET78       0.0387
    102  CG       -11.2720    2.6840   -3.6190 C.3    78  MET78       0.0595
    103  SD       -10.4740    2.5430   -5.2280 S.3    78  MET78      -0.1393
    104  CE       -11.0930    4.0300   -6.0280 C.3    78  MET78       0.0692
    105  N        -12.0220    4.0740    2.5420 N.3    82  ALA82      -0.1245
    106  CA       -10.8020    4.7690    2.9310 C.3    82  ALA82       0.1562
    107  C        -11.0920    5.8860    3.9180 C.2    82  ALA82       0.2260
    108  O        -10.3330    6.0840    4.8710 O.2    82  ALA82      -0.2867
    109  CB       -10.0950    5.3120    1.6940 C.3    82  ALA82       0.0290
    110  N        -11.9810    4.0050    7.3950 N.3    85  TYR85      -0.1227
    111  CA       -10.9200    3.3470    8.1430 C.3    85  TYR85       0.1736
    112  C         -9.8270    4.3120    8.5750 C.2    85  TYR85       0.2595
    113  O         -9.3590    4.2670    9.7200 O.2    85  TYR85      -0.2718
    114  CB       -10.3110    2.2130    7.3150 C.3    85  TYR85       0.0548
    115  CG        -9.2100    1.5750    8.1060 C.ar   85  TYR85      -0.0200
    116  CD1       -9.5140    0.7060    9.1510 C.ar   85  TYR85      -0.0009
    117  CD2       -7.8710    1.9100    7.8820 C.ar   85  TYR85      -0.0009
    118  CE1       -8.5160    0.1590    9.9220 C.ar   85  TYR85       0.0417
    119  CE2       -6.8730    1.3710    8.6440 C.ar   85  TYR85       0.0417
    120  CZ        -7.2020    0.4920    9.6590 C.ar   85  TYR85       0.1957
    121  OH        -6.2140   -0.0510   10.4450 O.3    85  TYR85      -0.2866
    122  N         -9.3630    5.1540    7.6610 N.am   86  ASN86      -0.1974
    123  CA        -8.1870    5.9620    7.9330 C.3    86  ASN86       0.1688
    124  C         -8.5540    7.2520    8.6490 C.2    86  ASN86       0.2292
    125  O         -9.6650    7.7750    8.5110 O.2    86  ASN86      -0.2864
    126  CB        -7.4400    6.2490    6.6360 C.3    86  ASN86       0.1181
    127  CG        -7.0150    4.9750    5.9300 C.2    86  ASN86       0.2629
    128  OD1       -5.9950    4.3830    6.2700 O.2    86  ASN86      -0.2716
    129  ND2       -7.8210    4.5290    4.9640 N.am   86  ASN86      -0.0877
    130  N         -2.3040   10.1390    5.3660 N.3    91  ARG91      -0.1231
    131  CA        -2.0550   10.1920    3.9280 C.3    91  ARG91       0.1694
    132  C         -3.1820    9.5400    3.1510 C.2    91  ARG91       0.2591
    133  O         -3.6640   10.1020    2.1650 O.2    91  ARG91      -0.2718
    134  CB        -0.7390    9.4940    3.5910 C.3    91  ARG91       0.0321
    135  CG         0.4960   10.2040    4.0860 C.3    91  ARG91       0.0489
    136  CD         1.7230    9.3020    4.0190 C.3    91  ARG91       0.2205
    137  NE         1.5690    8.1790    4.9380 N.pl3  91  ARG91      -0.0865
    138  CZ         2.3360    7.0940    4.9620 C.cat  91  ARG91       0.5346
    139  NH1        3.3500    6.9540    4.1150 N.pl3  91  ARG91       0.1354
    140  NH2        2.0790    6.1320    5.8460 N.pl3  91  ARG91       0.1354
    141  N         -3.5950    8.3330    3.5440 N.am   92  VAL92      -0.1980
    142  CA        -4.6030    7.6330    2.7470 C.3    92  VAL92       0.1595
    143  C         -5.8970    8.4360    2.6970 C.2    92  VAL92       0.2287
    144  O         -6.5410    8.5420    1.6450 O.2    92  VAL92      -0.2864
    145  CB        -4.8390    6.1890    3.2360 C.3    92  VAL92       0.0276
    146  CG1       -6.0160    5.5800    2.4740 C.3    92  VAL92       0.0022
    147  CG2       -3.6010    5.3360    3.0520 C.3    92  VAL92       0.0022
    148  N         -5.3270   11.5130    0.5040 N.3    95  PHE95      -0.1241
    149  CA        -5.1890   11.0320   -0.8620 C.3    95  PHE95       0.1605
    150  C         -6.5370   10.6120   -1.4200 C.2    95  PHE95       0.2264
    151  O         -6.8290   10.8470   -2.6000 O.2    95  PHE95      -0.2867
    152  CB        -4.1940    9.8770   -0.9150 C.3    95  PHE95       0.0534
    153  CG        -2.7710   10.2900   -0.6530 C.ar   95  PHE95      -0.0203
    154  CD1       -2.4120   11.6310   -0.5410 C.ar   95  PHE95      -0.0042
    155  CD2       -1.7780    9.3450   -0.5290 C.ar   95  PHE95      -0.0042
    156  CE1       -1.0810   12.0180   -0.3020 C.ar   95  PHE95      -0.0003
    157  CE2       -0.4670    9.7260   -0.3010 C.ar   95  PHE95      -0.0003
    158  CZ        -0.1200   11.0870   -0.1810 C.ar   95  PHE95      -0.0000
@<TRIPOS>BOND
     1     5     6    1
     2     5     2    1
     3     1     2    1
     4     8     6   ar
     5     6     7   ar
     6     2     3    1
     7     4     3    2
     8    92    91    2
     9     3     9   am
    10    23    21    1
    11    91    90    1
    12   104   103    1
    13    87    88    1
    14    87    86    1
    15    96    94   ar
    16     9    10    1
    17     9    15    1
    18    34    33    2
    19   103   102    1
    20    21    22    1
    21    21    20    1
    22    94    95   ar
    23    94    93    1
    24    16    17    1
    25    33    32    1
    26    10    11    1
    27    10    13    1
    28    86    85    1
    29    90    89    1
    30    90    93    1
    31    15    14    1
    32    17    20    1
    33    17    18    1
    34    11    12    2
    35    89    83   am
    36    35    32    1
    37    35    36    1
    38    32    31    1
    39   101   102    1
    40   101    98    1
    41    19    18    2
    42    13    14    1
    43    18    24   am
    44    85    82    1
    45    36    37   ar
    46    36    38   ar
    47    31    26   am
    48    83    82    1
    49    83    84    2
    50    82    81    1
    51    37    39   ar
    52    38    40   ar
    53    97    98    1
    54   151   150    2
    55    24    30    1
    56    24    25    1
    57    98    99    1
    58    30    29    1
    59    26    25    1
    60    26    27    2
    61    39    41   ar
    62    40    41   ar
    63    99   100    2
    64    25    28    1
    65   150   149    1
    66   152   149    1
    67   152   153    1
    68   149   148    1
    69   153   154   ar
    70   153   155   ar
    71    29    28    1
    72   154   156   ar
    73   155   157   ar
    74   156   158   ar
    75   157   158   ar
    76    42    43    1
    77    43    44    1
    78    43    46    1
    79   144   143    2
    80   109   106    1
    81    48    46    1
    82    44    45    2
    83   133   132    2
    84    46    47    1
    85   146   145    1
    86   105   106    1
    87   143   142    1
    88   142   145    1
    89   142   141    1
    90   106   107    1
    91   147   145    1
    92    80    79    1
    93   132   141   am
    94   132   131    1
    95   134   131    1
    96   134   135    1
    97    56    54    1
    98   107   108    2
    99   131   130    1
   100    55    54    1
   101   136   135    1
   102   136   137    1
   103   139   138    1
   104    79    78   ar
   105    79    77   ar
   106    78    76   ar
   107    54    53    1
   108   137   138    2
   109   138   140    1
   110   129   127   am
   111    77    75   ar
   112    76    74   ar
   113    53    50    1
   114   127   128    2
   115   127   126    1
   116    49    50    1
   117    75    74   ar
   118    50    51    1
   119    74    73    1
   120   126   123    1
   121    68    66    1
   122   114   115    1
   123   114   111    1
   124   110   111    1
   125   122   123    1
   126   122   112   am
   127    73    70    1
   128   117   115   ar
   129   117   119   ar
   130    51    52    2
   131    51    57   am
   132   123   124    1
   133    66    65    1
   134   115   116   ar
   135   111   112    1
   136    72    71    2
   137   125   124    2
   138    71    70    1
   139   112   113    2
   140   119   120   ar
   141    57    58    1
   142    70    69    1
   143   116   118   ar
   144    65    67    1
   145    65    62    1
   146   120   118   ar
   147   120   121    1
   148    64    63    2
   149    61    62    1
   150    61    59   am
   151    58    59    1
   152    62    63    1
   153    59    60    2
