@<TRIPOS>MOLECULE
tmp/5w0iA00.pdb
 137 132 0 0 0
SMALL
GASTEIGER

@<TRIPOS>ATOM
      1  N         -0.8410   10.9980    5.8590 N.3    23  PRO23      -0.2116
      2  CA        -0.8080    9.7300    5.1260 C.3    23  PRO23       0.1372
      3  C          0.5810    9.2600    4.7610 C.2    23  PRO23       0.2244
      4  O          0.7270    8.2070    4.1600 O.2    23  PRO23      -0.2868
      5  CB        -1.5880   10.0520    3.8540 C.3    23  PRO23       0.0268
      6  CG        -1.2690   11.5050    3.6060 C.3    23  PRO23       0.0207
      7  CD        -1.2320   12.1330    4.9820 C.3    23  PRO23       0.0892
      8  N          1.8530    5.6190    5.1180 N.3    26  LEU26      -0.1231
      9  CA         1.0170    4.5110    4.6760 C.3    26  LEU26       0.1678
     10  C          1.6560    3.6280    3.6210 C.2    26  LEU26       0.2434
     11  O          1.4770    2.3930    3.6880 O.2    26  LEU26      -0.2733
     12  CB        -0.3940    4.9940    4.2710 C.3    26  LEU26       0.0284
     13  CG        -1.1580    5.6600    5.4050 C.3    26  LEU26       0.0019
     14  CD1       -2.5600    6.1720    4.9030 C.3    26  LEU26       0.0001
     15  CD2       -1.3220    4.7140    6.6130 C.3    26  LEU26       0.0001
     16  N          2.3650    4.1410    2.6300 N.am   27  PRO27      -0.2718
     17  CA         2.9230    3.2460    1.6090 C.3    27  PRO27       0.1535
     18  C          4.0530    2.3710    2.1360 C.2    27  PRO27       0.2598
     19  O          4.4830    1.4720    1.4120 O.2    27  PRO27      -0.2715
     20  CB         3.4100    4.1970    0.5170 C.3    27  PRO27       0.0310
     21  CG         2.6750    5.4720    0.7550 C.3    27  PRO27       0.0237
     22  CD         2.5150    5.5740    2.2640 C.3    27  PRO27       0.0939
     23  N          4.5530    2.6590    3.3540 N.am   28  PHE28      -0.1974
     24  CA         5.7670    2.0560    3.8810 C.3    28  PHE28       0.1639
     25  C          5.4970    1.1120    5.0260 C.2    28  PHE28       0.2290
     26  O          6.4650    0.5640    5.5900 O.2    28  PHE28      -0.2864
     27  CB         6.7170    3.1770    4.3400 C.3    28  PHE28       0.0560
     28  CG         7.0220    4.1410    3.2420 C.ar   28  PHE28      -0.0200
     29  CD1        8.0010    3.8560    2.3300 C.ar   28  PHE28      -0.0042
     30  CD2        6.2910    5.3190    3.1430 C.ar   28  PHE28      -0.0042
     31  CE1        8.2640    4.7360    1.2790 C.ar   28  PHE28      -0.0003
     32  CE2        6.5060    6.2120    2.0970 C.ar   28  PHE28      -0.0003
     33  CZ         7.4890    5.9340    1.1470 C.ar   28  PHE28      -0.0000
     34  N          4.0920   -1.8830    5.2430 N.3    30  GLN30      -0.1245
     35  CA         4.1740   -3.3200    5.0040 C.3    30  GLN30       0.1566
     36  C          5.0490   -3.5240    3.7810 C.2    30  GLN30       0.2260
     37  O          5.2020   -2.6010    2.9820 O.2    30  GLN30      -0.2867
     38  CB         2.7940   -3.9320    4.7220 C.3    30  GLN30       0.0367
     39  CG         1.8910   -3.9030    5.9160 C.3    30  GLN30       0.0905
     40  CD         2.3420   -4.8750    7.0010 C.2    30  GLN30       0.2608
     41  OE1        2.8360   -5.9700    6.7140 O.2    30  GLN30      -0.2717
     42  NE2        2.1850   -4.4750    8.2490 N.am   30  GLN30      -0.0878
     43  N          6.3360   -4.0910    0.1610 N.3    32  VAL32      -0.1245
     44  CA         5.6750   -3.8580   -1.1290 C.3    32  VAL32       0.1561
     45  C          5.2600   -5.2040   -1.6820 C.2    32  VAL32       0.2260
     46  O          6.0560   -6.1490   -1.7410 O.2    32  VAL32      -0.2867
     47  CB         6.6390   -3.1750   -2.1090 C.3    32  VAL32       0.0252
     48  CG1        6.0110   -3.0660   -3.5230 C.3    32  VAL32       0.0019
     49  CG2        7.0040   -1.7840   -1.6450 C.3    32  VAL32       0.0019
     50  N         -0.4680   -4.7820   -5.8440 N.3    37  LEU37      -0.1245
     51  CA        -0.5150   -3.3990   -6.2690 C.3    37  LEU37       0.1561
     52  C         -0.5870   -3.2290   -7.7880 C.2    37  LEU37       0.2260
     53  O         -0.7710   -2.1040   -8.2540 O.2    37  LEU37      -0.2867
     54  CB         0.7430   -2.6920   -5.7510 C.3    37  LEU37       0.0270
     55  CG         0.8510   -2.5200   -4.2330 C.3    37  LEU37       0.0019
     56  CD1        2.2190   -1.8890   -3.8170 C.3    37  LEU37       0.0001
     57  CD2       -0.2890   -1.7020   -3.6600 C.3    37  LEU37       0.0001
     58  N          1.9390   -3.6770   -9.9230 N.3    39  ILE39      -0.1245
     59  CA         3.2310   -3.1890  -10.4030 C.3    39  ILE39       0.1561
     60  C          4.2610   -4.3010  -10.5230 C.2    39  ILE39       0.2260
     61  O          5.2760   -4.3140   -9.8100 O.2    39  ILE39      -0.2867
     62  CB         3.7410   -2.0200   -9.5500 C.3    39  ILE39       0.0252
     63  CG1        3.6900   -2.3490   -8.0490 C.3    39  ILE39       0.0019
     64  CG2        2.9140   -0.8140   -9.8350 C.3    39  ILE39       0.0019
     65  CD1        4.5190   -1.3760   -7.1690 C.3    39  ILE39       0.0001
     66  N          8.2920   -4.2030  -10.1280 N.3    42  TYR42      -0.1241
     67  CA         8.9290   -3.6720   -8.9210 C.3    42  TYR42       0.1605
     68  C         10.2490   -4.3730   -8.6070 C.2    42  TYR42       0.2264
     69  O         11.2630   -3.7120   -8.3560 O.2    42  TYR42      -0.2867
     70  CB         7.9670   -3.7250   -7.7380 C.3    42  TYR42       0.0534
     71  CG         8.5580   -3.0730   -6.4970 C.ar   42  TYR42      -0.0201
     72  CD1        8.5290   -1.6960   -6.3350 C.ar   42  TYR42      -0.0009
     73  CD2        9.1380   -3.8350   -5.4910 C.ar   42  TYR42      -0.0009
     74  CE1        9.0900   -1.0900   -5.2040 C.ar   42  TYR42       0.0417
     75  CE2        9.6790   -3.2350   -4.3660 C.ar   42  TYR42       0.0417
     76  CZ         9.6530   -1.8850   -4.2410 C.ar   42  TYR42       0.1957
     77  OH        10.2320   -1.3150   -3.1330 O.3    42  TYR42      -0.2866
     78  N         12.2860    3.8400   -2.5770 N.3    81  ALA81      -0.1245
     79  CA        11.0910    4.5450   -3.0190 C.3    81  ALA81       0.1562
     80  C         11.4320    5.6800   -3.9620 C.2    81  ALA81       0.2260
     81  O         10.6800    5.9090   -4.9220 O.2    81  ALA81      -0.2867
     82  CB        10.3360    5.0700   -1.8030 C.3    81  ALA81       0.0290
     83  N         12.1810    3.8550   -7.3990 N.3    84  TYR84      -0.1227
     84  CA        11.0840    3.2040   -8.1110 C.3    84  TYR84       0.1736
     85  C          9.9950    4.1770   -8.5610 C.2    84  TYR84       0.2595
     86  O          9.4360    4.0420   -9.6660 O.2    84  TYR84      -0.2718
     87  CB        10.4730    2.0820   -7.2570 C.3    84  TYR84       0.0548
     88  CG         9.3760    1.4320   -8.0520 C.ar   84  TYR84      -0.0200
     89  CD1        9.7090    0.5290   -9.0650 C.ar   84  TYR84      -0.0009
     90  CD2        8.0420    1.7590   -7.8250 C.ar   84  TYR84      -0.0009
     91  CE1        8.6990    0.0120   -9.9120 C.ar   84  TYR84       0.0417
     92  CE2        7.0510    1.2220   -8.6400 C.ar   84  TYR84       0.0417
     93  CZ         7.4040    0.3690   -9.6640 C.ar   84  TYR84       0.1957
     94  OH         6.3820   -0.1290  -10.4730 O.3    84  TYR84      -0.2866
     95  N          9.6390    5.1350   -7.7250 N.am   85  ASN85      -0.1974
     96  CA         8.4510    5.9540   -7.9690 C.3    85  ASN85       0.1688
     97  C          8.8370    7.2410   -8.6890 C.2    85  ASN85       0.2292
     98  O          9.9320    7.7730   -8.5130 O.2    85  ASN85      -0.2864
     99  CB         7.8130    6.2600   -6.6210 C.3    85  ASN85       0.1181
    100  CG         7.3790    4.9740   -5.9140 C.2    85  ASN85       0.2629
    101  OD1        6.3570    4.4090   -6.2580 O.2    85  ASN85      -0.2716
    102  ND2        8.2190    4.4580   -4.9840 N.am   85  ASN85      -0.0877
    103  N          4.7630   11.3910   -7.9630 N.3    89  SER89      -0.1202
    104  CA         3.8730   10.4020   -7.3570 C.3    89  SER89       0.2020
    105  C          3.7040   10.6450   -5.8510 C.2    89  SER89       0.2619
    106  O          4.5650   11.2450   -5.1810 O.2    89  SER89      -0.2717
    107  CB         4.3790    9.0010   -7.5880 C.3    89  SER89       0.2103
    108  OG         5.5580    8.7330   -6.8450 O.3    89  SER89      -0.2182
    109  N          2.5600   10.1680   -5.3160 N.am   90  ARG90      -0.1965
    110  CA         2.3570   10.2090   -3.8640 C.3    90  ARG90       0.1729
    111  C          3.4950    9.5160   -3.1300 C.2    90  ARG90       0.2616
    112  O          3.9990   10.0430   -2.1440 O.2    90  ARG90      -0.2715
    113  CB         1.0060    9.5790   -3.4560 C.3    90  ARG90       0.0348
    114  CG        -0.1980   10.2890   -3.9870 C.3    90  ARG90       0.0492
    115  CD        -1.4670    9.4540   -3.8970 C.3    90  ARG90       0.2205
    116  NE        -1.3660    8.3210   -4.8180 N.pl3  90  ARG90      -0.0865
    117  CZ        -2.1610    7.2750   -4.7590 C.cat  90  ARG90       0.5346
    118  NH1       -3.1800    7.2060   -3.8700 N.pl3  90  ARG90       0.1354
    119  NH2       -1.9500    6.2620   -5.6080 N.pl3  90  ARG90       0.1354
    120  N          3.8420    8.2990   -3.5260 N.am   91  VAL91      -0.1977
    121  CA         4.8480    7.5600   -2.7430 C.3    91  VAL91       0.1596
    122  C          6.1750    8.3220   -2.6630 C.2    91  VAL91       0.2287
    123  O          6.8360    8.3500   -1.5920 O.2    91  VAL91      -0.2864
    124  CB         4.9830    6.1050   -3.2450 C.3    91  VAL91       0.0276
    125  CG1        6.0440    5.4300   -2.4580 C.3    91  VAL91       0.0022
    126  CG2        3.6300    5.3890   -3.0030 C.3    91  VAL91       0.0022
    127  N          5.7200   11.3350   -0.3540 N.3    94  PHE94      -0.1241
    128  CA         5.5980   10.8660    1.0340 C.3    94  PHE94       0.1605
    129  C          6.9380   10.3710    1.5630 C.2    94  PHE94       0.2264
    130  O          7.2690   10.6130    2.7360 O.2    94  PHE94      -0.2867
    131  CB         4.5580    9.7520    1.0990 C.3    94  PHE94       0.0534
    132  CG         3.1350   10.2270    0.8600 C.ar   94  PHE94      -0.0203
    133  CD1        2.8000   11.5860    0.6910 C.ar   94  PHE94      -0.0042
    134  CD2        2.1070    9.3130    0.8670 C.ar   94  PHE94      -0.0042
    135  CE1        1.4720   11.9960    0.5110 C.ar   94  PHE94      -0.0003
    136  CE2        0.7520    9.7340    0.6990 C.ar   94  PHE94      -0.0003
    137  CZ         0.4520   11.0580    0.4920 C.ar   94  PHE94      -0.0000
@<TRIPOS>BOND
     1    60    59    1
     2    60    61    2
     3    94    93    1
     4    59    58    1
     5    59    62    1
     6    66    67    1
     7    91    93   ar
     8    91    89   ar
     9    64    62    1
    10    86    85    2
    11    93    92   ar
    12    62    63    1
    13    89    88   ar
    14    67    68    1
    15    67    70    1
    16    97    98    2
    17    97    96    1
    18    92    90   ar
    19    68    69    2
    20    85    84    1
    21    85    95   am
    22    53    52    2
    23    84    83    1
    24    84    87    1
    25    88    90   ar
    26    88    87    1
    27    63    65    1
    28    96    95    1
    29    96    99    1
    30   103   104    1
    31    52    51    1
    32    70    71    1
    33   107   104    1
    34   107   108    1
    35   104   105    1
    36    99   100    1
    37    71    72   ar
    38    71    73   ar
    39    72    74   ar
    40    51    50    1
    41    51    54    1
    42   101   100    2
    43   100   102   am
    44   105   109   am
    45   105   106    2
    46    54    55    1
    47   119   117    1
    48    73    75   ar
    49   109   110    1
    50    74    76   ar
    51    81    80    2
    52   116   117    2
    53   116   115    1
    54   117   118    1
    55    75    76   ar
    56    76    77    1
    57    55    56    1
    58    55    57    1
    59   114   115    1
    60   114   113    1
    61    80    79    1
    62   110   113    1
    63   110   111    1
    64   120   111   am
    65   120   121    1
    66    48    47    1
    67   124   126    1
    68   124   121    1
    69   124   125    1
    70   111   112    2
    71    79    78    1
    72    79    82    1
    73   121   122    1
    74   122   123    2
    75    47    49    1
    76    47    44    1
    77    46    45    2
    78    45    44    1
    79    44    43    1
    80   127   128    1
    81   137   135   ar
    82   137   136   ar
    83   135   133   ar
    84    20    21    1
    85    20    17    1
    86   133   132   ar
    87   136   134   ar
    88    21    22    1
    89   132   134   ar
    90   132   131    1
    91   128   131    1
    92   128   129    1
    93    33    31   ar
    94    33    32   ar
    95    31    29   ar
    96    19    18    2
    97   129   130    2
    98    17    18    1
    99    17    16    1
   100    32    30   ar
   101    18    23   am
   102    22    16    1
   103    29    28   ar
   104    16    10   am
   105    37    36    2
   106    30    28   ar
   107    28    27    1
   108    23    24    1
   109     6     5    1
   110     6     7    1
   111    10    11    2
   112    10     9    1
   113    36    35    1
   114     5     2    1
   115    24    27    1
   116    24    25    1
   117     4     3    2
   118    12     9    1
   119    12    13    1
   120     9     8    1
   121    38    35    1
   122    38    39    1
   123     3     2    1
   124    14    13    1
   125     7     1    1
   126    35    34    1
   127    25    26    2
   128     2     1    1
   129    13    15    1
   130    39    40    1
   131    41    40    2
   132    40    42   am
