@<TRIPOS>MOLECULE
tmp/5w0nA00.pdb
 162 150 0 0 0
SMALL
GASTEIGER

@<TRIPOS>ATOM
      1  N        -50.7990   76.5410   -1.3630 N.3    61  PHE61      -0.1227
      2  CA       -51.1270   76.7860   -2.7590 C.3    61  PHE61       0.1736
      3  C        -51.7130   75.4980   -3.3270 C.2    61  PHE61       0.2596
      4  O        -52.0390   74.5630   -2.5900 O.2    61  PHE61      -0.2718
      5  CB       -49.8990   77.2910   -3.5330 C.3    61  PHE61       0.0547
      6  CG       -48.8180   76.2660   -3.7230 C.ar   61  PHE61      -0.0202
      7  CD1      -47.9490   75.9580   -2.6930 C.ar   61  PHE61      -0.0042
      8  CD2      -48.6480   75.6360   -4.9530 C.ar   61  PHE61      -0.0042
      9  CE1      -46.9430   75.0270   -2.8700 C.ar   61  PHE61      -0.0003
     10  CE2      -47.6440   74.7030   -5.1370 C.ar   61  PHE61      -0.0003
     11  CZ       -46.7900   74.3980   -4.0920 C.ar   61  PHE61      -0.0000
     12  N        -51.8630   75.4480   -4.6500 N.am   62  GLY62      -0.1942
     13  CA       -52.4500   74.2730   -5.2590 C.3    62  GLY62       0.2014
     14  C        -53.9520   74.1980   -5.0290 C.2    62  GLY62       0.2639
     15  O        -54.6300   75.1970   -4.7720 O.2    62  GLY62      -0.2714
     16  N        -54.4730   72.9720   -5.1120 N.am   63  SER63      -0.1949
     17  CA       -55.9180   72.7820   -5.0970 C.3    63  SER63       0.1924
     18  C        -56.5480   73.0650   -3.7380 C.2    63  SER63       0.2314
     19  O        -57.7750   73.1830   -3.6660 O.2    63  SER63      -0.2863
     20  CB       -56.2660   71.3660   -5.5470 C.3    63  SER63       0.2116
     21  OG       -55.9190   70.4110   -4.5680 O.3    63  SER63      -0.2180
     22  N        -56.9280   76.9280   -4.9660 N.3    66  ASN66      -0.1240
     23  CA       -57.3340   77.3650   -6.2950 C.3    66  ASN66       0.1653
     24  C        -58.7940   77.0610   -6.5980 C.2    66  ASN66       0.2266
     25  O        -59.2540   77.3610   -7.7050 O.2    66  ASN66      -0.2867
     26  CB       -56.4410   76.7270   -7.3660 C.3    66  ASN66       0.1155
     27  CG       -56.6370   75.2290   -7.4850 C.2    66  ASN66       0.2627
     28  OD1      -57.6360   74.6750   -7.0230 O.2    66  ASN66      -0.2716
     29  ND2      -55.6790   74.5610   -8.1190 N.am   66  ASN66      -0.0877
     30  N        -56.9660   65.3210   -1.6880 N.3    73  SER73      -0.1202
     31  CA       -55.8460   65.9550   -2.3700 C.3    73  SER73       0.2020
     32  C        -54.7200   66.2440   -1.3840 C.2    73  SER73       0.2618
     33  O        -54.9460   66.4610   -0.1900 O.2    73  SER73      -0.2717
     34  CB       -56.2920   67.2520   -3.0480 C.3    73  SER73       0.2103
     35  OG       -57.1580   66.9970   -4.1450 O.3    73  SER73      -0.2182
     36  N        -53.4940   66.2650   -1.8990 N.am   74  ASP74      -0.1973
     37  CA       -52.3450   66.5680   -1.0650 C.3    74  ASP74       0.1709
     38  C        -52.3960   68.0270   -0.6070 C.2    74  ASP74       0.2293
     39  O        -53.2020   68.8330   -1.0810 O.2    74  ASP74      -0.2864
     40  CB       -51.0430   66.2580   -1.8130 C.3    74  ASP74       0.1436
     41  CG       -50.8160   67.1560   -3.0150 C.2    74  ASP74       0.3671
     42  OD1      -51.6940   67.9850   -3.3230 O.co2  74  ASP74      -0.2456
     43  OD2      -49.7580   67.0160   -3.6680 O.co2  74  ASP74      -0.2456
     44  N        -50.2970   71.2560   -0.5680 N.3    76  ASP76      -0.1239
     45  CA       -49.1550   71.9040   -1.2020 C.3    76  ASP76       0.1674
     46  C        -48.7690   73.1490   -0.4160 C.2    76  ASP76       0.2266
     47  O        -49.5790   74.0710   -0.2640 O.2    76  ASP76      -0.2867
     48  CB       -49.4800   72.2540   -2.6520 C.3    76  ASP76       0.1410
     49  CG       -49.8910   71.0470   -3.4540 C.2    76  ASP76       0.3668
     50  OD1      -49.0150   70.2070   -3.7430 O.co2  76  ASP76      -0.2456
     51  OD2      -51.0890   70.9300   -3.7870 O.co2  76  ASP76      -0.2456
     52  N        -41.5510   78.8570   -4.0180 N.3   140  ASN140     -0.1240
     53  CA       -42.3310   78.4990   -5.1980 C.3   140  ASN140      0.1653
     54  C        -43.2910   79.6450   -5.5250 C.2   140  ASN140      0.2266
     55  O        -44.5140   79.5220   -5.4660 O.2   140  ASN140     -0.2867
     56  CB       -43.0690   77.1920   -4.9470 C.3   140  ASN140      0.1155
     57  CG       -43.4610   76.4900   -6.2210 C.2   140  ASN140      0.2627
     58  OD1      -43.4590   77.0820   -7.3020 O.2   140  ASN140     -0.2716
     59  ND2      -43.8050   75.2160   -6.1030 N.am  140  ASN140     -0.0877
     60  N        -45.9620   79.4210   -8.3710 N.3   143  ALA143     -0.1245
     61  CA       -47.0740   78.5320   -8.0500 C.3   143  ALA143      0.1562
     62  C        -48.1360   79.2620   -7.2400 C.2   143  ALA143      0.2260
     63  O        -49.3370   79.0500   -7.4410 O.2   143  ALA143     -0.2867
     64  CB       -46.5680   77.3050   -7.2930 C.3   143  ALA143      0.0290
     65  N        -50.2190   81.3570   -9.9190 N.3   146  ASN146     -0.1225
     66  CA       -51.1650   80.6100  -10.7400 C.3   146  ASN146      0.1785
     67  C        -52.2510   79.9660   -9.8860 C.2   146  ASN146      0.2597
     68  O        -53.3350   79.6740  -10.4020 O.2   146  ASN146     -0.2718
     69  CB       -50.4370   79.5770  -11.6220 C.3   146  ASN146      0.1169
     70  CG       -49.9180   78.3740  -10.8550 C.2   146  ASN146      0.2627
     71  OD1      -50.6180   77.7880  -10.0330 O.2   146  ASN146     -0.2716
     72  ND2      -48.6820   77.9850  -11.1450 N.am  146  ASN146     -0.0877
     73  N        -51.9980   79.7660   -8.5890 N.am  147  THR147     -0.1953
     74  CA       -53.0740   79.3920   -7.6760 C.3   147  THR147      0.1897
     75  C        -54.1170   80.4980   -7.6000 C.2   147  THR147      0.2313
     76  O        -55.3210   80.2420   -7.7150 O.2   147  THR147     -0.2863
     77  CB       -52.5140   79.0910   -6.2800 C.3   147  THR147      0.1794
     78  OG1      -51.6260   77.9690   -6.3400 O.3   147  THR147     -0.2208
     79  CG2      -53.6410   78.7840   -5.2880 C.3   147  THR147      0.0378
     80  N        -56.0560   80.6020  -11.0100 N.3   150  LEU150     -0.1245
     81  CA       -57.0850   79.5750  -11.1310 C.3   150  LEU150      0.1561
     82  C        -58.2500   79.8470  -10.1880 C.2   150  LEU150      0.2260
     83  O        -59.4100   79.5940  -10.5350 O.2   150  LEU150     -0.2867
     84  CB       -56.4790   78.1970  -10.8590 C.3   150  LEU150      0.0270
     85  CG       -55.9710   77.4560  -12.1020 C.3   150  LEU150      0.0019
     86  CD1      -54.9650   78.2980  -12.8800 C.3   150  LEU150      0.0001
     87  CD2      -55.3610   76.1180  -11.7130 C.3   150  LEU150      0.0001
     88  N        -61.1120   66.3000  -13.3200 N.3   168  LYS168     -0.1245
     89  CA       -60.2270   65.6780  -12.3410 C.3   168  LYS168      0.1561
     90  C        -60.6770   64.2580  -12.0150 C.2   168  LYS168      0.2260
     91  O        -59.8450   63.3560  -11.8670 O.2   168  LYS168     -0.2867
     92  CB       -60.1710   66.5330  -11.0760 C.3   168  LYS168      0.0271
     93  CG       -58.9900   66.2300  -10.1690 C.3   168  LYS168      0.0035
     94  CD       -58.8480   67.2870   -9.0780 C.3   168  LYS168      0.0206
     95  CE       -57.7580   68.2960   -9.4100 C.3   168  LYS168      0.1093
     96  NZ       -57.6810   69.3890   -8.3950 N.3   168  LYS168     -0.1314
     97  N        -58.3920   61.0000  -13.1540 N.3   172  LYS172     -0.1245
     98  CA       -58.0270   60.1490  -12.0290 C.3   172  LYS172      0.1561
     99  C        -58.5360   58.7270  -12.2390 C.2   172  LYS172      0.2260
    100  O        -57.8270   57.7580  -11.9440 O.2   172  LYS172     -0.2867
    101  CB       -58.5630   60.7460  -10.7290 C.3   172  LYS172      0.0271
    102  CG       -58.0020   60.0960   -9.4730 C.3   172  LYS172      0.0035
    103  CD       -58.4350   60.8230   -8.1980 C.3   172  LYS172      0.0206
    104  CE       -57.9270   62.2610   -8.1280 C.3   172  LYS172      0.1093
    105  NZ       -56.4410   62.3340   -8.0820 N.3   172  LYS172     -0.1314
    106  N        -49.8170   66.2460  -14.8830 N.3   185  SER185     -0.1202
    107  CA       -50.2570   66.8230  -13.6250 C.3   185  SER185      0.2020
    108  C        -51.7240   67.2250  -13.7230 C.2   185  SER185      0.2619
    109  O        -52.2090   67.6420  -14.7770 O.2   185  SER185     -0.2717
    110  CB       -49.3940   68.0350  -13.2710 C.3   185  SER185      0.2103
    111  OG       -49.9210   68.7410  -12.1610 O.3   185  SER185     -0.2182
    112  N        -52.4440   67.0830  -12.6090 N.am  186  SER186     -0.1937
    113  CA       -53.8350   67.5200  -12.5870 C.3   186  SER186      0.2055
    114  C        -53.9450   69.0160  -12.8600 C.2   186  SER186      0.2643
    115  O        -54.9630   69.4810  -13.3860 O.2   186  SER186     -0.2714
    116  CB       -54.4700   67.1730  -11.2390 C.3   186  SER186      0.2130
    117  OG       -53.8440   67.8820  -10.1950 O.3   186  SER186     -0.2179
    118  N        -52.9050   69.7790  -12.5100 N.am  187  TYR187     -0.1973
    119  CA       -52.8460   71.1930  -12.8630 C.3   187  TYR187      0.1639
    120  C        -52.8170   71.3840  -14.3730 C.2   187  TYR187      0.2290
    121  O        -53.3520   72.3730  -14.8860 O.2   187  TYR187     -0.2864
    122  CB       -51.6160   71.8280  -12.2100 C.3   187  TYR187      0.0560
    123  CG       -51.2760   73.2310  -12.6670 C.ar  187  TYR187     -0.0198
    124  CD1      -52.0990   74.3070  -12.3610 C.ar  187  TYR187     -0.0009
    125  CD2      -50.1090   73.4800  -13.3780 C.ar  187  TYR187     -0.0009
    126  CE1      -51.7780   75.5900  -12.7690 C.ar  187  TYR187      0.0417
    127  CE2      -49.7770   74.7540  -13.7860 C.ar  187  TYR187      0.0417
    128  CZ       -50.6130   75.8080  -13.4810 C.ar  187  TYR187      0.1957
    129  OH       -50.2760   77.0800  -13.8930 O.3   187  TYR187     -0.2866
    130  N        -56.3920   70.9800  -15.5030 N.3   190  THR190     -0.1218
    131  CA       -57.1520   72.1880  -15.2010 C.3   190  THR190      0.1862
    132  C        -56.9430   73.2430  -16.2830 C.2   190  THR190      0.2287
    133  O        -57.8980   73.9010  -16.7100 O.2   190  THR190     -0.2866
    134  CB       -56.7580   72.7360  -13.8270 C.3   190  THR190      0.1770
    135  OG1      -56.9830   71.7380  -12.8220 O.3   190  THR190     -0.2211
    136  CG2      -57.5790   73.9710  -13.4810 C.3   190  THR190      0.0375
    137  N        -47.4910   76.9340  -19.5460 N.3   296  ASP296     -0.1239
    138  CA       -47.8730   77.5170  -18.2700 C.3   296  ASP296      0.1674
    139  C        -48.2650   78.9800  -18.4700 C.2   296  ASP296      0.2266
    140  O        -47.6320   79.6900  -19.2570 O.2   296  ASP296     -0.2867
    141  CB       -46.7260   77.4170  -17.2650 C.3   296  ASP296      0.1410
    142  CG       -47.1070   77.9410  -15.8930 C.2   296  ASP296      0.3668
    143  OD1      -47.6490   77.1610  -15.0770 O.co2 296  ASP296     -0.2456
    144  OD2      -46.8710   79.1410  -15.6360 O.co2 296  ASP296     -0.2456
    145  N        -42.1200   76.6740  -19.7970 N.3   302  HIS302     -0.1241
    146  CA       -42.5110   75.3930  -19.2220 C.3   302  HIS302      0.1621
    147  C        -43.6170   74.7810  -20.0740 C.2   302  HIS302      0.2264
    148  O        -44.7200   75.3320  -20.1640 O.2   302  HIS302     -0.2867
    149  CB       -42.9680   75.5670  -17.7760 C.3   302  HIS302      0.0745
    150  CG       -43.2720   74.2770  -17.0800 C.ar  302  HIS302      0.0817
    151  ND1      -42.8660   73.0540  -17.5700 N.ar  302  HIS302     -0.2268
    152  CD2      -43.9390   74.0190  -15.9310 C.ar  302  HIS302      0.1154
    153  CE1      -43.2730   72.0980  -16.7540 C.ar  302  HIS302      0.1986
    154  NE2      -43.9280   72.6570  -15.7520 N.ar  302  HIS302     -0.2212
    155  N        -45.9560   71.7960  -19.9690 N.3   304  LEU304     -0.1245
    156  CA       -46.4460   70.7870  -19.0330 C.3   304  LEU304      0.1561
    157  C        -46.4810   69.3870  -19.6410 C.2   304  LEU304      0.2260
    158  O        -46.4860   68.4020  -18.8950 O.2   304  LEU304     -0.2867
    159  CB       -47.8440   71.1710  -18.5370 C.3   304  LEU304      0.0270
    160  CG       -48.0110   72.2400  -17.4460 C.3   304  LEU304      0.0019
    161  CD1      -47.7860   71.6290  -16.0930 C.3   304  LEU304      0.0001
    162  CD2      -47.0850   73.4270  -17.6370 C.3   304  LEU304      0.0001
@<TRIPOS>BOND
     1   148   147    2
     2   147   146    1
     3   155   156    1
     4   145   146    1
     5   157   156    1
     6   157   158    2
     7   137   138    1
     8   140   139    2
     9   146   149    1
    10   156   159    1
    11   159   160    1
    12   139   138    1
    13   138   141    1
    14   149   150    1
    15   162   160    1
    16   151   150   ar
    17   151   153   ar
    18   160   161    1
    19   141   142    1
    20   150   152   ar
    21   153   154   ar
    22   133   132    2
    23   132   131    1
    24   152   154   ar
    25   142   144   ar
    26   142   143   ar
    27   130   131    1
    28   131   134    1
    29   121   120    2
    30   106   107    1
    31   109   108    2
    32   120   119    1
    33   129   128    1
    34   134   136    1
    35   134   135    1
    36   127   128   ar
    37   127   125   ar
    38   108   107    1
    39   108   112   am
    40   107   110    1
    41   128   126   ar
    42   115   114    2
    43   125   123   ar
    44    88    89    1
    45   110   111    1
    46    97    98    1
    47    86    85    1
    48   119   118    1
    49   119   122    1
    50   114   113    1
    51   114   118   am
    52   126   124   ar
    53   123   124   ar
    54   123   122    1
    55   112   113    1
    56   113   116    1
    57    89    90    1
    58    89    92    1
    59    99    98    1
    60    99   100    2
    61    85    87    1
    62    85    84    1
    63    98   101    1
    64    90    91    2
    65    69    70    1
    66    69    66    1
    67   116   117    1
    68    72    70   am
    69    81    80    1
    70    81    84    1
    71    81    82    1
    72    92    93    1
    73    70    71    2
    74    66    65    1
    75    66    67    1
    76   101   102    1
    77    83    82    2
    78    68    67    2
    79    93    94    1
    80    67    73   am
    81   102   103    1
    82    95    94    1
    83    95    96    1
    84    73    74    1
    85    60    61    1
    86   103   104    1
    87   104   105    1
    88    29    27   am
    89    61    64    1
    90    61    62    1
    91    76    75    2
    92    25    24    2
    93    74    75    1
    94    74    77    1
    95    27    26    1
    96    27    28    2
    97    63    62    2
    98    26    23    1
    99    58    57    2
   100    24    23    1
   101    78    77    1
   102    23    22    1
   103    77    79    1
   104    57    59   am
   105    57    56    1
   106    20    17    1
   107    20    21    1
   108    54    55    2
   109    54    53    1
   110    13    14    1
   111    13    12    1
   112    53    56    1
   113    53    52    1
   114    10     8   ar
   115    10    11   ar
   116    16    17    1
   117    16    14   am
   118    17    18    1
   119    14    15    2
   120     8     6   ar
   121    12     3   am
   122    35    34    1
   123    11     9   ar
   124    51    49   ar
   125    50    49   ar
   126    18    19    2
   127     6     5    1
   128     6     7   ar
   129    43    41   ar
   130     5     2    1
   131    49    48    1
   132     3     2    1
   133     3     4    2
   134    42    41   ar
   135    34    31    1
   136    41    40    1
   137     9     7   ar
   138     2     1    1
   139    48    45    1
   140    31    30    1
   141    31    32    1
   142    36    32   am
   143    36    37    1
   144    40    37    1
   145    32    33    2
   146    45    44    1
   147    45    46    1
   148    39    38    2
   149    37    38    1
   150    46    47    2
