@<TRIPOS>MOLECULE
tmp/5w0oA00.pdb
 164 153 0 0 0
SMALL
GASTEIGER

@<TRIPOS>ATOM
      1  N        -41.1820   93.2480    3.2310 N.3    59  PHE59      -0.1227
      2  CA       -41.5010   91.8420    3.4150 C.3    59  PHE59       0.1736
      3  C        -41.7460   91.6090    4.9020 C.2    59  PHE59       0.2596
      4  O        -41.8480   92.5560    5.6840 O.2    59  PHE59      -0.2718
      5  CB       -40.3940   90.9590    2.8280 C.3    59  PHE59       0.0547
      6  CG       -39.0680   91.1160    3.5080 C.ar   59  PHE59      -0.0202
      7  CD1      -38.2220   92.1730    3.1840 C.ar   59  PHE59      -0.0042
      8  CD2      -38.6540   90.2030    4.4560 C.ar   59  PHE59      -0.0042
      9  CE1      -36.9910   92.3190    3.8070 C.ar   59  PHE59      -0.0003
     10  CE2      -37.4110   90.3410    5.0830 C.ar   59  PHE59      -0.0003
     11  CZ       -36.5830   91.3960    4.7510 C.ar   59  PHE59      -0.0000
     12  N        -41.8580   90.3430    5.2920 N.am   60  GLY60      -0.1942
     13  CA       -42.1030   90.0750    6.6890 C.3    60  GLY60       0.2014
     14  C        -43.5290   90.4100    7.0900 C.2    60  GLY60       0.2639
     15  O        -44.4650   90.3780    6.2810 O.2    60  GLY60      -0.2714
     16  N        -43.6910   90.7610    8.3680 N.am   61  SER61      -0.1949
     17  CA       -45.0270   91.0030    8.9080 C.3    61  SER61       0.1924
     18  C        -45.7400   92.1240    8.1670 C.2    61  SER61       0.2314
     19  O        -46.9710   92.0910    8.0320 O.2    61  SER61      -0.2863
     20  CB       -44.9440   91.3250   10.4020 C.3    61  SER61       0.2116
     21  OG       -44.1450   92.4720   10.6400 O.3    61  SER61      -0.2180
     22  N        -46.8240   89.7840    5.0130 N.3    64  ASN64      -0.1240
     23  CA       -47.1100   88.3530    4.9750 C.3    64  ASN64       0.1653
     24  C        -48.4760   87.9840    5.5660 C.2    64  ASN64       0.2266
     25  O        -48.6960   86.8140    5.8980 O.2    64  ASN64      -0.2867
     26  CB       -46.0070   87.5670    5.6870 C.3    64  ASN64       0.1155
     27  CG       -45.9190   87.8710    7.1720 C.2    64  ASN64       0.2627
     28  OD1      -46.8280   88.4580    7.7680 O.2    64  ASN64      -0.2716
     29  ND2      -44.8070   87.4800    7.7780 N.am   64  ASN64      -0.0877
     30  N        -49.6720   88.7980    8.4740 N.3    66  PHE66      -0.1241
     31  CA       -49.6310   88.7930    9.9300 C.3    66  PHE66       0.1605
     32  C        -49.1030   90.1190   10.4470 C.2    66  PHE66       0.2264
     33  O        -48.3030   90.1670   11.3880 O.2    66  PHE66      -0.2867
     34  CB       -48.7800   87.6370   10.4530 C.3    66  PHE66       0.0534
     35  CG       -49.1930   86.3020    9.9200 C.ar   66  PHE66      -0.0203
     36  CD1      -50.4200   85.7620   10.2540 C.ar   66  PHE66      -0.0042
     37  CD2      -48.3560   85.5850    9.0810 C.ar   66  PHE66      -0.0042
     38  CE1      -50.8090   84.5350    9.7640 C.ar   66  PHE66      -0.0003
     39  CE2      -48.7380   84.3480    8.5850 C.ar   66  PHE66      -0.0003
     40  CZ       -49.9660   83.8220    8.9280 C.ar   66  PHE66      -0.0000
     41  N        -44.5350   96.4680   15.0130 N.3    71  SER71      -0.1202
     42  CA       -43.4610   95.6050   14.5450 C.3    71  SER71       0.2020
     43  C        -42.4020   96.4110   13.7970 C.2    71  SER71       0.2618
     44  O        -42.6670   97.4840   13.2490 O.2    71  SER71      -0.2717
     45  CB       -44.0090   94.5080   13.6320 C.3    71  SER71       0.2103
     46  OG       -44.3760   93.3620   14.3800 O.3    71  SER71      -0.2182
     47  N        -41.1830   95.8870   13.7920 N.am   72  ASP72      -0.1973
     48  CA       -40.1320   96.4670   12.9760 C.3    72  ASP72       0.1709
     49  C        -40.4680   96.3150   11.4980 C.2    72  ASP72       0.2293
     50  O        -41.1820   95.3990   11.0840 O.2    72  ASP72      -0.2864
     51  CB       -38.7920   95.7970   13.2680 C.3    72  ASP72       0.1436
     52  CG       -38.2990   96.0760   14.6680 C.2    72  ASP72       0.3671
     53  OD1      -38.8400   97.0040   15.3100 O.co2  72  ASP72      -0.2456
     54  OD2      -37.3690   95.3740   15.1230 O.co2  72  ASP72      -0.2456
     55  N        -39.3390   95.4510    7.8320 N.3    74  ASP74      -0.1239
     56  CA       -38.3620   94.6990    7.0530 C.3    74  ASP74       0.1674
     57  C        -38.3630   95.2030    5.6140 C.2    74  ASP74       0.2266
     58  O        -39.3930   95.1520    4.9320 O.2    74  ASP74      -0.2867
     59  CB       -38.6690   93.2030    7.0910 C.3    74  ASP74       0.1410
     60  CG       -38.4740   92.5640    8.4140 C.2    74  ASP74       0.3668
     61  OD1      -37.7370   93.1220    9.2830 O.co2  74  ASP74      -0.2456
     62  OD2      -39.0000   91.4180    8.6100 O.co2  74  ASP74      -0.2456
     63  N        -32.5990   90.1390   -0.4570 N.3   134  ASN134     -0.1240
     64  CA       -33.1720   89.1230    0.4240 C.3   134  ASN134      0.1653
     65  C        -34.3540   88.4510   -0.2720 C.2   134  ASN134      0.2266
     66  O        -35.5050   88.5400    0.1520 O.2   134  ASN134     -0.2867
     67  CB       -33.5770   89.7550    1.7500 C.3   134  ASN134      0.1155
     68  CG       -33.6340   88.7540    2.8720 C.2   134  ASN134      0.2627
     69  OD1      -33.7080   87.5460    2.6340 O.2   134  ASN134     -0.2716
     70  ND2      -33.5870   89.2400    4.1050 N.am  134  ASN134     -0.0877
     71  N        -36.6560   85.8570    1.2580 N.3   137  ALA137     -0.1245
     72  CA       -37.5450   86.4740    2.2380 C.3   137  ALA137      0.1562
     73  C        -38.8030   87.0040    1.5700 C.2   137  ALA137      0.2260
     74  O        -39.9010   86.9010    2.1300 O.2   137  ALA137     -0.2867
     75  CB       -36.8250   87.5930    2.9850 C.3   137  ALA137      0.0290
     76  N        -41.0100   83.7370    1.0980 N.3   140  ASN140     -0.1225
     77  CA       -41.6810   83.2270    2.2930 C.3   140  ASN140      0.1785
     78  C        -42.7230   84.2130    2.8170 C.2   140  ASN140      0.2597
     79  O        -43.6510   83.8080    3.5300 O.2   140  ASN140     -0.2718
     80  CB       -40.6680   82.8590    3.3890 C.3   140  ASN140      0.1169
     81  CG       -40.0220   84.0760    4.0650 C.2   140  ASN140      0.2627
     82  OD1      -40.6990   85.0050    4.4930 O.2   140  ASN140     -0.2716
     83  ND2      -38.6950   84.0490    4.1800 N.am  140  ASN140     -0.0877
     84  N        -42.5880   85.4970    2.4800 N.am  141  THR141     -0.1953
     85  CA       -43.6570   86.4520    2.7510 C.3   141  THR141      0.1897
     86  C        -44.9280   86.0890    1.9890 C.2   141  THR141      0.2313
     87  O        -46.0160   86.0430    2.5740 O.2   141  THR141     -0.2863
     88  CB       -43.1960   87.8620    2.3930 C.3   141  THR141      0.1794
     89  OG1      -42.1380   88.2570    3.2810 O.3   141  THR141     -0.2208
     90  CG2      -44.3590   88.8510    2.4760 C.3   141  THR141      0.0378
     91  N        -46.3960   82.6790    3.5700 N.3   144  LEU144     -0.1245
     92  CA       -47.1420   82.9080    4.7980 C.3   144  LEU144      0.1561
     93  C        -48.4450   83.6360    4.5070 C.2   144  LEU144      0.2260
     94  O        -49.4920   83.3040    5.0720 O.2   144  LEU144     -0.2867
     95  CB       -46.2860   83.6850    5.7990 C.3   144  LEU144      0.0270
     96  CG       -45.4690   82.8070    6.7550 C.3   144  LEU144      0.0019
     97  CD1      -44.5990   81.8170    5.9700 C.3   144  LEU144      0.0001
     98  CD2      -44.6190   83.6510    7.6690 C.3   144  LEU144      0.0001
     99  N        -47.8710   85.7590   18.6810 N.3   162  LYS162     -0.1245
    100  CA       -47.0530   86.9650   18.6930 C.3   162  LYS162      0.1561
    101  C        -47.2550   87.7660   19.9770 C.2   162  LYS162      0.2260
    102  O        -46.2920   88.3020   20.5440 O.2   162  LYS162     -0.2867
    103  CB       -47.3700   87.8200   17.4700 C.3   162  LYS162      0.0271
    104  CG       -46.7240   87.3300   16.1930 C.3   162  LYS162      0.0035
    105  CD       -46.8440   88.3470   15.0760 C.3   162  LYS162      0.0206
    106  CE       -46.1390   87.8420   13.8420 C.3   162  LYS162      0.1093
    107  NZ       -46.3180   88.7640   12.6830 N.3   162  LYS162     -0.1314
    108  N        -36.8400   84.0020   16.7090 N.3   179  SER179     -0.1202
    109  CA       -37.4560   85.1410   16.0520 C.3   179  SER179      0.2020
    110  C        -38.9520   84.8970   15.8380 C.2   179  SER179      0.2619
    111  O        -39.4240   83.7560   15.8360 O.2   179  SER179     -0.2717
    112  CB       -36.7800   85.3950   14.7110 C.3   179  SER179      0.2103
    113  OG       -37.1970   84.4170   13.7800 O.3   179  SER179     -0.2182
    114  N        -39.6980   85.9910   15.6420 N.am  180  SER180     -0.1937
    115  CA       -41.1300   85.8710   15.3630 C.3   180  SER180      0.2055
    116  C        -41.3920   84.9020   14.2170 C.2   180  SER180      0.2643
    117  O        -42.2960   84.0580   14.2960 O.2   180  SER180     -0.2714
    118  CB       -41.7310   87.2430   15.0360 C.3   180  SER180      0.2130
    119  OG       -41.9120   88.0110   16.2070 O.3   180  SER180     -0.2179
    120  N        -40.6040   85.0220   13.1360 N.am  181  TYR181     -0.1973
    121  CA       -40.7470   84.1480   11.9790 C.3   181  TYR181      0.1639
    122  C        -40.6740   82.6870   12.3930 C.2   181  TYR181      0.2290
    123  O        -41.4130   81.8460   11.8670 O.2   181  TYR181     -0.2864
    124  CB       -39.6710   84.4860   10.9420 C.3   181  TYR181      0.0560
    125  CG       -39.7220   83.6810    9.6560 C.ar  181  TYR181     -0.0198
    126  CD1      -40.8950   83.5850    8.9120 C.ar  181  TYR181     -0.0009
    127  CD2      -38.5880   83.0420    9.1710 C.ar  181  TYR181     -0.0009
    128  CE1      -40.9350   82.8660    7.7390 C.ar  181  TYR181      0.0417
    129  CE2      -38.6240   82.3140    8.0040 C.ar  181  TYR181      0.0417
    130  CZ       -39.7980   82.2290    7.2900 C.ar  181  TYR181      0.1957
    131  OH       -39.8240   81.5110    6.1200 O.3   181  TYR181     -0.2866
    132  N        -44.1420   81.8130   14.1750 N.3   184  THR184     -0.1218
    133  CA       -45.1500   81.6230   13.1370 C.3   184  THR184      0.1862
    134  C        -45.0240   80.2550   12.4630 C.2   184  THR184      0.2287
    135  O        -46.0290   79.5540   12.2810 O.2   184  THR184     -0.2866
    136  CB       -45.0440   82.7310   12.1010 C.3   184  THR184      0.1770
    137  OG1      -45.1390   83.9990   12.7570 O.3   184  THR184     -0.2211
    138  CG2      -46.1710   82.5960   11.0920 C.3   184  THR184      0.0375
    139  N        -36.3150   76.3090    7.4680 N.3   282  ASP282     -0.1239
    140  CA       -36.9460   77.3260    6.6500 C.3   282  ASP282      0.1674
    141  C        -37.7400   76.6650    5.5220 C.2   282  ASP282      0.2266
    142  O        -37.3060   75.6440    4.9670 O.2   282  ASP282     -0.2867
    143  CB       -35.8980   78.2820    6.0800 C.3   282  ASP282      0.1410
    144  CG       -36.4980   79.3100    5.1380 C.2   282  ASP282      0.3668
    145  OD1      -36.9230   80.3730    5.6350 O.co2 282  ASP282     -0.2456
    146  OD2      -36.5360   79.0590    3.9070 O.co2 282  ASP282     -0.2456
    147  N        -31.0310   76.2180    6.2980 N.3   288  HIS288     -0.1241
    148  CA       -31.0930   77.1690    7.4010 C.3   288  HIS288      0.1621
    149  C        -31.9690   76.6060    8.5170 C.2   288  HIS288      0.2264
    150  O        -33.1900   76.4780    8.3620 O.2   288  HIS288     -0.2867
    151  CB       -31.6220   78.5200    6.9200 C.3   288  HIS288      0.0745
    152  CG       -31.8560   79.5100    8.0150 C.ar  288  HIS288      0.0817
    153  ND1      -32.8560   80.4470    7.9700 N.ar  288  HIS288     -0.2268
    154  CD2      -31.2150   79.7070    9.1920 C.ar  288  HIS288      0.1154
    155  CE1      -32.8150   81.1810    9.0700 C.ar  288  HIS288      0.1986
    156  NE2      -31.8270   80.7530    9.8300 N.ar  288  HIS288     -0.2212
    157  N        -33.5020   77.5970   11.8640 N.3   290  LEU290     -0.1245
    158  CA       -33.7850   78.8310   12.5970 C.3   290  LEU290      0.1561
    159  C        -33.5420   78.7070   14.0970 C.2   290  LEU290      0.2260
    160  O        -33.5620   79.7270   14.7900 O.2   290  LEU290     -0.2867
    161  CB       -35.2290   79.2890   12.3590 C.3   290  LEU290      0.0270
    162  CG       -35.5600   79.9420   11.0150 C.3   290  LEU290      0.0019
    163  CD1      -35.6010   78.9250    9.8560 C.3   290  LEU290      0.0001
    164  CD2      -36.8710   80.7180   11.1090 C.3   290  LEU290      0.0001
@<TRIPOS>BOND
     1    63    64    1
     2    65    66    2
     3    65    64    1
     4    64    67    1
     5    76    77    1
     6    71    72    1
     7    73    74    2
     8    73    72    1
     9    67    68    1
    10    86    87    2
    11    86    85    1
    12    72    75    1
    13    77    78    1
    14    77    80    1
    15    88    90    1
    16    88    85    1
    17    88    89    1
    18    84    85    1
    19    84    78   am
    20    69    68    2
    21    78    79    2
    22     5     2    1
    23     5     6    1
    24    68    70   am
    25     7     6   ar
    26     7     9   ar
    27     1     2    1
    28    80    81    1
    29     2     3    1
    30     6     8   ar
    31    91    92    1
    32     9    11   ar
    33   146   144   ar
    34    81    83   am
    35    81    82    2
    36     8    10   ar
    37    93    92    1
    38    93    94    2
    39    11    10   ar
    40    92    95    1
    41     3    12   am
    42     3     4    2
    43    58    57    2
    44   142   141    2
    45    23    22    1
    46    23    24    1
    47    23    26    1
    48   144   145   ar
    49   144   143    1
    50    12    13    1
    51   141   140    1
    52    24    25    2
    53    57    56    1
    54    26    27    1
    55    95    96    1
    56    97    96    1
    57   143   140    1
    58   131   130    1
    59    15    14    2
    60   147   148    1
    61   140   139    1
    62    13    14    1
    63    96    98    1
    64   151   148    1
    65   151   152    1
    66    56    59    1
    67    56    55    1
    68    14    16   am
    69    59    60    1
    70    27    28    2
    71    27    29   am
    72   130   128   ar
    73   130   129   ar
    74   148   149    1
    75   128   126   ar
    76   153   152   ar
    77   153   155   ar
    78   129   127   ar
    79   152   154   ar
    80    19    18    2
    81    18    17    1
    82   150   149    2
    83    16    17    1
    84    60    62   ar
    85    60    61   ar
    86    30    31    1
    87    39    40   ar
    88    39    37   ar
    89    17    20    1
    90   126   125   ar
    91    40    38   ar
    92   155   156   ar
    93    37    35   ar
    94   127   125   ar
    95   154   156   ar
    96   125   124    1
    97    38    36   ar
    98   163   162    1
    99    35    36   ar
   100    35    34    1
   101    31    32    1
   102    31    34    1
   103    20    21    1
   104    32    33    2
   105   124   121    1
   106   162   164    1
   107   162   161    1
   108    50    49    2
   109   138   136    1
   110    49    48    1
   111   157   158    1
   112   123   122    2
   113   121   122    1
   114   121   120    1
   115   136   137    1
   116   136   133    1
   117   135   134    2
   118   161   158    1
   119   134   133    1
   120   158   159    1
   121   107   106    1
   122    48    51    1
   123    48    47    1
   124   120   116   am
   125   133   132    1
   126    44    43    2
   127    51    52    1
   128    45    46    1
   129    45    42    1
   130   113   112    1
   131    47    43   am
   132    43    42    1
   133   106   105    1
   134   159   160    2
   135   116   117    2
   136   116   115    1
   137    42    41    1
   138    52    54   ar
   139    52    53   ar
   140   112   109    1
   141   118   115    1
   142   118   119    1
   143   105   104    1
   144   115   114    1
   145   114   110   am
   146   111   110    2
   147   110   109    1
   148   109   108    1
   149   104   103    1
   150   103   100    1
   151    99   100    1
   152   100   101    1
   153   101   102    2
