@<TRIPOS>MOLECULE
tmp/5w0qA00.pdb
 136 131 0 0 0
SMALL
GASTEIGER

@<TRIPOS>ATOM
      1  N          8.4640   17.4120   -3.1350 N.3    28  LEU28      -0.1231
      2  CA         8.0370   18.6490   -2.4810 C.3    28  LEU28       0.1678
      3  C          8.4910   19.9080   -3.2100 C.2    28  LEU28       0.2434
      4  O          7.6580   20.8110   -3.4040 O.2    28  LEU28      -0.2733
      5  CB         8.5000   18.6500   -1.0200 C.3    28  LEU28       0.0284
      6  CG         7.9410   17.5430   -0.1250 C.3    28  LEU28       0.0019
      7  CD1        8.3340   17.7760    1.3240 C.3    28  LEU28       0.0001
      8  CD2        6.4290   17.4320   -0.2580 C.3    28  LEU28       0.0001
      9  N          9.7530   20.0480   -3.6400 N.am   29  PRO29      -0.2718
     10  CA        10.1360   21.2580   -4.3860 C.3    29  PRO29       0.1535
     11  C          9.5510   21.3400   -5.7880 C.2    29  PRO29       0.2598
     12  O          9.8010   22.3330   -6.4790 O.2    29  PRO29      -0.2715
     13  CB        11.6710   21.1660   -4.4410 C.3    29  PRO29       0.0310
     14  CG        12.0450   20.2040   -3.3640 C.3    29  PRO29       0.0237
     15  CD        10.9310   19.2160   -3.3320 C.3    29  PRO29       0.0939
     16  N          8.7910   20.3390   -6.2330 N.am   30  PHE30      -0.1974
     17  CA         8.1970   20.3280   -7.5630 C.3    30  PHE30       0.1639
     18  C          6.6840   20.5010   -7.5450 C.2    30  PHE30       0.2290
     19  O          6.0740   20.6010   -8.6150 O.2    30  PHE30      -0.2864
     20  CB         8.5410   19.0200   -8.2880 C.3    30  PHE30       0.0560
     21  CG        10.0080   18.8310   -8.5490 C.ar   30  PHE30      -0.0200
     22  CD1       10.8470   18.3480   -7.5550 C.ar   30  PHE30      -0.0042
     23  CD2       10.5480   19.1180   -9.7920 C.ar   30  PHE30      -0.0042
     24  CE1       12.2000   18.1700   -7.7930 C.ar   30  PHE30      -0.0003
     25  CE2       11.8980   18.9410  -10.0360 C.ar   30  PHE30      -0.0003
     26  CZ        12.7240   18.4680   -9.0370 C.ar   30  PHE30      -0.0000
     27  N          4.6580   22.9330   -6.4750 N.3    32  GLN32      -0.1231
     28  CA         4.1470   24.2600   -6.7730 C.3    32  GLN32       0.1683
     29  C          5.1460   24.9870   -7.6550 C.2    32  GLN32       0.2434
     30  O          6.3250   24.6200   -7.7010 O.2    32  GLN32      -0.2733
     31  CB         3.8930   25.0610   -5.4860 C.3    32  GLN32       0.0380
     32  CG         2.7850   24.4920   -4.6100 C.3    32  GLN32       0.0905
     33  CD         1.4390   24.4470   -5.3150 C.2    32  GLN32       0.2608
     34  OE1        1.1310   25.2990   -6.1480 O.2    32  GLN32      -0.2717
     35  NE2        0.6320   23.4460   -4.9840 N.am   32  GLN32      -0.0878
     36  N          4.7070   26.0120   -8.3860 N.am   33  PRO33      -0.2718
     37  CA         5.6480   26.7650   -9.2210 C.3    33  PRO33       0.1535
     38  C          6.7440   27.4060   -8.3830 C.2    33  PRO33       0.2598
     39  O          6.5070   27.8730   -7.2660 O.2    33  PRO33      -0.2715
     40  CB         4.7630   27.8210   -9.8900 C.3    33  PRO33       0.0310
     41  CG         3.3980   27.2200   -9.8880 C.3    33  PRO33       0.0237
     42  CD         3.3150   26.4490   -8.6000 C.3    33  PRO33       0.0939
     43  N          7.9590   27.4100   -8.9340 N.am   34  VAL34      -0.1978
     44  CA         9.0730   28.0740   -8.2710 C.3    34  VAL34       0.1596
     45  C          8.7580   29.5560   -8.1280 C.2    34  VAL34       0.2287
     46  O          8.3800   30.2230   -9.0990 O.2    34  VAL34      -0.2864
     47  CB        10.3740   27.8500   -9.0570 C.3    34  VAL34       0.0276
     48  CG1       11.5220   28.6070   -8.4120 C.3    34  VAL34       0.0022
     49  CG2       10.6920   26.3610   -9.1530 C.3    34  VAL34       0.0022
     50  N         11.8530   32.6420   -2.5520 N.3    39  LEU39      -0.1245
     51  CA        13.0290   31.8140   -2.3150 C.3    39  LEU39       0.1561
     52  C         14.3380   32.5890   -2.3780 C.2    39  LEU39       0.2260
     53  O         15.3800   32.0370   -2.0090 O.2    39  LEU39      -0.2867
     54  CB        13.0690   30.6620   -3.3260 C.3    39  LEU39       0.0270
     55  CG        11.9520   29.6210   -3.2250 C.3    39  LEU39       0.0019
     56  CD1       12.0290   28.6380   -4.3860 C.3    39  LEU39       0.0001
     57  CD2       12.0230   28.8890   -1.8920 C.3    39  LEU39       0.0001
     58  N         15.9560   33.7970   -5.1530 N.3    41  ILE41      -0.1245
     59  CA        16.7780   33.3490   -6.2740 C.3    41  ILE41       0.1561
     60  C         16.4230   34.1740   -7.5090 C.2    41  ILE41       0.2260
     61  O         15.7890   33.6600   -8.4410 O.2    41  ILE41      -0.2867
     62  CB        16.6020   31.8400   -6.5170 C.3    41  ILE41       0.0252
     63  CG1       15.1210   31.4480   -6.5160 C.3    41  ILE41       0.0019
     64  CG2       17.3300   31.0480   -5.4410 C.3    41  ILE41       0.0019
     65  CD1       14.8800   29.9700   -6.7440 C.3    41  ILE41       0.0001
     66  N         16.5500   32.9150  -11.3030 N.3    44  TYR44      -0.1241
     67  CA        15.8410   31.7250  -11.7660 C.3    44  TYR44       0.1605
     68  C         15.2000   31.9570  -13.1290 C.2    44  TYR44       0.2264
     69  O         15.3960   31.1690  -14.0630 O.2    44  TYR44      -0.2867
     70  CB        14.7850   31.2970  -10.7460 C.3    44  TYR44       0.0534
     71  CG        14.1240   29.9980  -11.1350 C.ar   44  TYR44      -0.0201
     72  CD1       14.7540   28.7830  -10.9010 C.ar   44  TYR44      -0.0009
     73  CD2       12.8840   29.9840  -11.7610 C.ar   44  TYR44      -0.0009
     74  CE1       14.1640   27.5900  -11.2670 C.ar   44  TYR44       0.0417
     75  CE2       12.2850   28.7930  -12.1320 C.ar   44  TYR44       0.0417
     76  CZ        12.9300   27.6000  -11.8830 C.ar   44  TYR44       0.1957
     77  OH        12.3430   26.4080  -12.2500 O.3    44  TYR44      -0.2866
     78  N          7.8190   25.0350  -15.2170 N.3    52  MET52      -0.1245
     79  CA         6.8110   23.9860  -15.1860 C.3    52  MET52       0.1570
     80  C          6.9130   23.2560  -13.8550 C.2    52  MET52       0.2261
     81  O          8.0030   23.1120  -13.2970 O.2    52  MET52      -0.2867
     82  CB         6.9900   23.0030  -16.3500 C.3    52  MET52       0.0387
     83  CG         5.8680   21.9810  -16.5000 C.3    52  MET52       0.0595
     84  SD         4.2450   22.7370  -16.7230 S.3    52  MET52      -0.1393
     85  CE         4.5210   23.7660  -18.1630 C.3    52  MET52       0.0692
     86  N          9.7820   20.1830  -16.9150 N.3    79  MET79      -0.1245
     87  CA         9.9590   20.3520  -15.4750 C.3    79  MET79       0.1570
     88  C         11.2940   19.7780  -15.0170 C.2    79  MET79       0.2261
     89  O         12.0330   20.4170  -14.2570 O.2    79  MET79      -0.2867
     90  CB         8.8000   19.6840  -14.7340 C.3    79  MET79       0.0387
     91  CG         8.9270   19.6730  -13.2180 C.3    79  MET79       0.0595
     92  SD         7.5340   18.8120  -12.4600 S.3    79  MET79      -0.1393
     93  CE         7.6140   17.2410  -13.3170 C.3    79  MET79       0.0692
     94  N         14.9260   21.8980  -13.7160 N.3    83  ALA83      -0.1245
     95  CA        15.5590   21.6820  -12.4180 C.3    83  ALA83       0.1562
     96  C         17.0140   21.2510  -12.5680 C.2    83  ALA83       0.2260
     97  O         17.8780   21.6950  -11.8030 O.2    83  ALA83      -0.2867
     98  CB        14.7670   20.6490  -11.6170 C.3    83  ALA83       0.0290
     99  N         18.8740   24.6210  -13.6350 N.3    86  TYR86      -0.1227
    100  CA        19.1070   25.6660  -12.6450 C.3    86  TYR86       0.1736
    101  C         19.9680   25.1820  -11.4850 C.2    86  TYR86       0.2595
    102  O         20.8810   25.8950  -11.0510 O.2    86  TYR86      -0.2718
    103  CB        17.7860   26.2160  -12.1040 C.3    86  TYR86       0.0548
    104  CG        18.0420   27.3160  -11.1010 C.ar   86  TYR86      -0.0200
    105  CD1       18.3620   28.5960  -11.5250 C.ar   86  TYR86      -0.0009
    106  CD2       18.0210   27.0640   -9.7330 C.ar   86  TYR86      -0.0009
    107  CE1       18.6260   29.6020  -10.6230 C.ar   86  TYR86       0.0417
    108  CE2       18.2890   28.0690   -8.8180 C.ar   86  TYR86       0.0417
    109  CZ        18.5910   29.3350   -9.2740 C.ar   86  TYR86       0.1957
    110  OH        18.8590   30.3460   -8.3810 O.3    86  TYR86      -0.2866
    111  N         19.6860   23.9970  -10.9610 N.am   87  ASN87      -0.1974
    112  CA        20.3470   23.5210   -9.7570 C.3    87  ASN87       0.1688
    113  C         21.6430   22.7950  -10.0980 C.2    87  ASN87       0.2292
    114  O         21.7690   22.1670  -11.1520 O.2    87  ASN87      -0.2864
    115  CB        19.4180   22.5990   -8.9660 C.3    87  ASN87       0.1181
    116  CG        18.1200   23.2800   -8.5710 C.2    87  ASN87       0.2629
    117  OD1       18.0630   23.9980   -7.5730 O.2    87  ASN87      -0.2716
    118  ND2       17.0690   23.0550   -9.3550 N.am   87  ASN87      -0.0877
    119  N         20.3730   19.3010   -3.3780 N.3    92  ARG92      -0.1231
    120  CA        19.2440   18.4630   -2.9870 C.3    92  ARG92       0.1694
    121  C         18.2150   18.3640   -4.1060 C.2    92  ARG92       0.2591
    122  O         17.7420   17.2700   -4.4350 O.2    92  ARG92      -0.2718
    123  CB        18.6050   19.0250   -1.7150 C.3    92  ARG92       0.0321
    124  CG        17.2820   18.3830   -1.3230 C.3    92  ARG92       0.0489
    125  CD        16.6370   19.1320   -0.1610 C.3    92  ARG92       0.2205
    126  NE        16.1710   20.4570   -0.5620 N.pl3  92  ARG92      -0.0865
    127  CZ        14.9060   20.8600   -0.4930 C.cat  92  ARG92       0.5346
    128  NH1       13.9720   20.0470   -0.0180 N.pl3  92  ARG92       0.1354
    129  NH2       14.5750   22.0840   -0.8870 N.pl3  92  ARG92       0.1354
    130  N         17.8600   19.5010   -4.7060 N.am   93  VAL93      -0.1980
    131  CA        16.7960   19.5200   -5.7050 C.3    93  VAL93       0.1595
    132  C         17.2350   18.8020   -6.9770 C.2    93  VAL93       0.2287
    133  O         16.4350   18.1140   -7.6230 O.2    93  VAL93      -0.2864
    134  CB        16.3590   20.9710   -5.9800 C.3    93  VAL93       0.0276
    135  CG1       15.3600   21.0280   -7.1240 C.3    93  VAL93       0.0022
    136  CG2       15.7560   21.5790   -4.7250 C.3    93  VAL93       0.0022
@<TRIPOS>BOND
     1    85    84    1
     2    86    87    1
     3    84    83    1
     4    83    82    1
     5    82    79    1
     6    87    88    1
     7    87    90    1
     8    78    79    1
     9    79    80    1
    10    88    89    2
    11    90    91    1
    12    69    68    2
    13    80    81    2
    14    94    95    1
    15    99   100    1
    16    93    92    1
    17    91    92    1
    18    68    67    1
    19   100   103    1
    20   100   101    1
    21    96    95    1
    22    96    97    2
    23    95    98    1
    24    77    76    1
    25    75    76   ar
    26    75    73   ar
    27   103   104    1
    28    76    74   ar
    29    67    66    1
    30    67    70    1
    31    73    71   ar
    32   105   104   ar
    33   105   107   ar
    34   101   102    2
    35   101   111   am
    36    74    72   ar
    37   114   113    2
    38    71    72   ar
    39    71    70    1
    40   104   106   ar
    41   111   112    1
    42   107   109   ar
    43   113   112    1
    44    25    23   ar
    45    25    26   ar
    46    40    41    1
    47    40    37    1
    48    41    42    1
    49    23    21   ar
    50   112   115    1
    51   106   108   ar
    52   118   116   am
    53   109   108   ar
    54   109   110    1
    55    37    36    1
    56    37    38    1
    57    49    47    1
    58    46    45    2
    59    47    48    1
    60    47    44    1
    61    26    24   ar
    62   115   116    1
    63    43    38   am
    64    43    44    1
    65    19    18    2
    66    42    36    1
    67   116   117    2
    68    21    20    1
    69    21    22   ar
    70    61    60    2
    71    36    29   am
    72    38    39    2
    73    20    17    1
    74    44    45    1
    75    24    22   ar
    76    30    29    2
    77    29    28    1
    78   133   132    2
    79    17    18    1
    80    17    16    1
    81    60    59    1
    82   135   134    1
    83   132   131    1
    84    28    27    1
    85    28    31    1
    86    65    63    1
    87    62    63    1
    88    62    59    1
    89    62    64    1
    90    12    11    2
    91    59    58    1
    92    16    11   am
    93    34    33    2
    94   134   131    1
    95   134   136    1
    96    11    10    1
    97   131   130    1
    98    31    32    1
    99    33    35   am
   100    33    32    1
   101   130   121   am
   102    13    10    1
   103    13    14    1
   104   122   121    2
   105    56    55    1
   106    10     9    1
   107   121   120    1
   108     9    15    1
   109     9     3   am
   110     4     3    2
   111   119   120    1
   112    14    15    1
   113    54    55    1
   114    54    51    1
   115    55    57    1
   116     3     2    1
   117     1     2    1
   118   120   123    1
   119    50    51    1
   120     2     5    1
   121    52    51    1
   122    52    53    2
   123   123   124    1
   124   124   125    1
   125     5     6    1
   126   129   127    1
   127   126   127    2
   128   126   125    1
   129   127   128    1
   130     8     6    1
   131     6     7    1
