@<TRIPOS>MOLECULE
tmp/5w0uD00.pdb
 116 113 0 0 0
SMALL
GASTEIGER

@<TRIPOS>ATOM
      1  N        326.4400   20.8790 1268.0380 N.3   390  ARG390     -0.1231
      2  CA       325.2240   20.2090 1268.4810 C.3   390  ARG390      0.1694
      3  C        324.1140   20.4630 1267.4720 C.2   390  ARG390      0.2591
      4  O        323.8610   21.6130 1267.0960 O.2   390  ARG390     -0.2718
      5  CB       324.8070   20.6860 1269.8720 C.3   390  ARG390      0.0321
      6  CG       325.8670   20.4160 1270.9190 C.3   390  ARG390      0.0489
      7  CD       325.2800   20.2330 1272.3020 C.3   390  ARG390      0.2205
      8  NE       326.2290   19.5460 1273.1720 N.pl3 390  ARG390     -0.0865
      9  CZ       327.3610   20.0880 1273.6120 C.cat 390  ARG390      0.5346
     10  NH1      327.6860   21.3240 1273.2600 N.pl3 390  ARG390      0.1354
     11  NH2      328.1700   19.3920 1274.3970 N.pl3 390  ARG390      0.1354
     12  N        323.4520   19.4140 1267.0580 N.am  391  ARG391     -0.1980
     13  CA       322.5040   19.5580 1266.0130 C.3   391  ARG391      0.1597
     14  C        321.0770   19.1800 1266.3570 C.2   391  ARG391      0.2287
     15  O        320.1780   19.5890 1265.6460 O.2   391  ARG391     -0.2864
     16  CB       322.9970   18.8040 1264.8100 C.3   391  ARG391      0.0334
     17  CG       324.2880   19.3570 1264.2460 C.3   391  ARG391      0.0492
     18  CD       324.7320   18.6080 1263.0080 C.3   391  ARG391      0.2205
     19  NE       324.1990   19.1720 1261.7810 N.pl3 391  ARG391     -0.0865
     20  CZ       323.5940   18.4610 1260.8410 C.cat 391  ARG391      0.5346
     21  NH1      323.4480   17.1580 1261.0040 N.pl3 391  ARG391      0.1354
     22  NH2      323.1340   19.0500 1259.7460 N.pl3 391  ARG391      0.1354
     23  N        317.9170   19.9900 1268.7030 N.3   393  THR393     -0.1218
     24  CA       317.4490   21.1300 1269.4760 C.3   393  THR393      0.1862
     25  C        316.2770   20.6880 1270.3330 C.2   393  THR393      0.2287
     26  O        315.3450   20.0500 1269.8350 O.2   393  THR393     -0.2866
     27  CB       317.0490   22.2920 1268.5650 C.3   393  THR393      0.1770
     28  OG1      318.1860   22.6980 1267.7950 O.3   393  THR393     -0.2211
     29  CG2      316.5650   23.4750 1269.3880 C.3   393  THR393      0.0375
     30  N        314.0190   17.5690 1268.4290 N.3   412  ASN412     -0.1240
     31  CA       314.0920   17.4930 1266.9780 C.3   412  ASN412      0.1653
     32  C        313.5420   16.1780 1266.4410 C.2   412  ASN412      0.2266
     33  O        313.5490   15.1580 1267.1290 O.2   412  ASN412     -0.2867
     34  CB       315.5320   17.6920 1266.5030 C.3   412  ASN412      0.1155
     35  CG       315.8460   19.1410 1266.1850 C.2   412  ASN412      0.2627
     36  OD1      316.6800   19.4340 1265.3290 O.2   412  ASN412     -0.2716
     37  ND2      315.1760   20.0570 1266.8760 N.am  412  ASN412     -0.0877
     38  N        312.0000   20.9340 1262.7400 N.3   417  HIS417     -0.1226
     39  CA       312.5700   21.5810 1263.9110 C.3   417  HIS417      0.1752
     40  C        311.5690   21.5700 1265.0670 C.2   417  HIS417      0.2596
     41  O        310.3860   21.2630 1264.9030 O.2   417  HIS417     -0.2718
     42  CB       312.9620   23.0280 1263.5970 C.3   417  HIS417      0.0759
     43  CG       314.0420   23.1590 1262.5690 C.ar  417  HIS417      0.0818
     44  ND1      314.4030   24.3710 1262.0140 N.ar  417  HIS417     -0.2268
     45  CD2      314.8520   22.2390 1262.0050 C.ar  417  HIS417      0.1154
     46  CE1      315.3830   24.1900 1261.1470 C.ar  417  HIS417      0.1986
     47  NE2      315.6710   22.9040 1261.1210 N.ar  417  HIS417     -0.2212
     48  N        312.0570   21.9570 1266.2480 N.am  418  VAL418     -0.1966
     49  CA       311.2050   21.9810 1267.4360 C.3   418  VAL418      0.1727
     50  C        310.0290   22.9250 1267.2370 C.2   418  VAL418      0.2616
     51  O        308.8700   22.5550 1267.4560 O.2   418  VAL418     -0.2715
     52  CB       312.0250   22.3730 1268.6760 C.3   418  VAL418      0.0290
     53  CG1      313.0710   21.3310 1268.9570 C.3   418  VAL418      0.0023
     54  CG2      312.6580   23.7320 1268.4600 C.3   418  VAL418      0.0023
     55  N        310.3160   24.1590 1266.8170 N.am  419  ALA419     -0.1977
     56  CA       309.2890   25.1930 1266.7640 C.3   419  ALA419      0.1597
     57  C        308.0930   24.7540 1265.9310 C.2   419  ALA419      0.2287
     58  O        306.9430   25.0250 1266.2920 O.2   419  ALA419     -0.2864
     59  CB       309.8800   26.4910 1266.2110 C.3   419  ALA419      0.0319
     60  N        318.7250   25.7590 1270.7380 N.3   445  TRP445     -0.1227
     61  CA       319.0980   26.7080 1269.7010 C.3   445  TRP445      0.1737
     62  C        317.9610   27.6890 1269.4650 C.2   445  TRP445      0.2596
     63  O        316.7850   27.3090 1269.4840 O.2   445  TRP445     -0.2718
     64  CB       319.4270   26.0000 1268.3830 C.3   445  TRP445      0.0564
     65  CG       320.7410   25.2780 1268.3420 C.ar  445  TRP445      0.0003
     66  CD1      320.9310   23.9290 1268.2710 C.ar  445  TRP445      0.0946
     67  CD2      322.0480   25.8670 1268.3420 C.ar  445  TRP445      0.0152
     68  NE1      322.2730   23.6400 1268.2340 N.ar  445  TRP445     -0.2442
     69  CE2      322.9810   24.8120 1268.2780 C.ar  445  TRP445      0.0810
     70  CE3      322.5210   27.1800 1268.4000 C.ar  445  TRP445      0.0012
     71  CZ2      324.3570   25.0310 1268.2690 C.ar  445  TRP445      0.0191
     72  CZ3      323.8880   27.3960 1268.3850 C.ar  445  TRP445      0.0001
     73  CH2      324.7900   26.3270 1268.3230 C.ar  445  TRP445      0.0015
     74  N        318.3170   28.9500 1269.2320 N.am  446  SER446     -0.1938
     75  CA       317.3290   29.9330 1268.8320 C.3   446  SER446      0.2040
     76  C        316.7620   29.5650 1267.4610 C.2   446  SER446      0.2485
     77  O        317.4060   28.8570 1266.6840 O.2   446  SER446     -0.2729
     78  CB       317.9510   31.3300 1268.8030 C.3   446  SER446      0.2129
     79  OG       318.9410   31.4350 1267.7940 O.3   446  SER446     -0.2179
     80  N        315.5490   30.0210 1267.1510 N.am  447  PRO447     -0.2715
     81  CA       314.9350   29.6640 1265.8650 C.3   447  PRO447      0.1536
     82  C        315.7380   30.1920 1264.6820 C.2   447  PRO447      0.2598
     83  O        316.3240   31.2770 1264.7280 O.2   447  PRO447     -0.2715
     84  CB       313.5520   30.3200 1265.9350 C.3   447  PRO447      0.0310
     85  CG       313.6670   31.3530 1267.0210 C.3   447  PRO447      0.0237
     86  CD       314.6310   30.7930 1268.0050 C.3   447  PRO447      0.0939
     87  N        315.7620   29.4010 1263.6110 N.am  448  CYS448     -0.1968
     88  CA       316.3950   29.8130 1262.3650 C.3   448  CYS448      0.1712
     89  C        315.4170   30.6890 1261.5860 C.2   448  CYS448      0.2296
     90  O        314.3550   31.0660 1262.0860 O.2   448  CYS448     -0.2864
     91  CB       316.8440   28.5910 1261.5690 C.3   448  CYS448      0.0983
     92  SG       315.4710   27.5630 1261.0010 S.3   448  CYS448     -0.0798
     93  N        312.0290   28.8820 1260.8020 N.3   451  CYS451     -0.1235
     94  CA       311.2260   28.7670 1262.0160 C.3   451  CYS451      0.1677
     95  C        310.7570   30.1320 1262.5010 C.2   451  CYS451      0.2270
     96  O        309.6230   30.2700 1262.9720 O.2   451  CYS451     -0.2867
     97  CB       312.0180   28.0590 1263.1130 C.3   451  CYS451      0.0956
     98  SG       312.1130   26.2710 1262.9220 S.3   451  CYS451     -0.0801
     99  N        321.7300   30.5560 1267.2270 N.3   475  TYR475     -0.1241
    100  CA       322.0560   29.7760 1266.0620 C.3   475  TYR475      0.1605
    101  C        322.3890   30.6210 1264.8980 C.2   475  TYR475      0.2264
    102  O        321.9360   31.7220 1264.7680 O.2   475  TYR475     -0.2867
    103  CB       320.8960   28.9510 1265.6240 C.3   475  TYR475      0.0534
    104  CG       321.1800   28.0690 1264.4800 C.ar  475  TYR475     -0.0201
    105  CD1      322.0730   27.0830 1264.5810 C.ar  475  TYR475     -0.0009
    106  CD2      320.5330   28.2140 1263.3140 C.ar  475  TYR475     -0.0009
    107  CE1      322.3240   26.2390 1263.5420 C.ar  475  TYR475      0.0417
    108  CE2      320.7710   27.3850 1262.2570 C.ar  475  TYR475      0.0417
    109  CZ       321.6730   26.3910 1262.3780 C.ar  475  TYR475      0.1957
    110  OH       321.9140   25.5440 1261.3200 O.3   475  TYR475     -0.2866
    111  N        323.5200   29.8480 1260.6190 N.3   477  CYS477     -0.1235
    112  CA       324.0920   29.0640 1259.5730 C.3   477  CYS477      0.1677
    113  C        324.8830   30.0350 1258.7350 C.2   477  CYS477      0.2270
    114  O        324.9240   31.2130 1259.0170 O.2   477  CYS477     -0.2867
    115  CB       323.0150   28.4660 1258.7290 C.3   477  CYS477      0.0956
    116  SG       322.0950   29.7320 1257.8890 S.3   477  CYS477     -0.0801
@<TRIPOS>BOND
     1   116   115    1
     2   115   112    1
     3   113   114    2
     4   113   112    1
     5   112   111    1
     6    22    20    1
     7    93    94    1
     8    20    21    1
     9    20    19    2
    10    92    91    1
    11    47    46   ar
    12    47    45   ar
    13    46    44   ar
    14   110   109    1
    15    91    88    1
    16    89    90    2
    17    89    88    1
    18    19    18    1
    19    45    43   ar
    20    44    43   ar
    21    94    95    1
    22    94    97    1
    23   108   109   ar
    24   108   106   ar
    25    88    87    1
    26   109   107   ar
    27    95    96    2
    28    43    42    1
    29    38    39    1
    30    98    97    1
    31    18    17    1
    32   106   104   ar
    33   107   105   ar
    34    42    39    1
    35    87    82   am
    36    39    40    1
    37    17    16    1
    38   104   105   ar
    39   104   103    1
    40    82    83    2
    41    82    81    1
    42   102   101    2
    43    16    13    1
    44   101   100    1
    45    41    40    2
    46    40    48   am
    47    36    35    2
    48   103   100    1
    49    15    14    2
    50    81    84    1
    51    81    80    1
    52    57    58    2
    53    57    56    1
    54    84    85    1
    55    13    14    1
    56    13    12    1
    57   100    99    1
    58    35    34    1
    59    35    37   am
    60    59    56    1
    61    48    49    1
    62    32    31    1
    63    32    33    2
    64    34    31    1
    65    77    76    2
    66    56    55    1
    67    55    50   am
    68    31    30    1
    69    85    86    1
    70    12     3   am
    71     4     3    2
    72    80    76   am
    73    80    86    1
    74    50    49    1
    75    50    51    2
    76    49    52    1
    77    76    75    1
    78     3     2    1
    79    79    78    1
    80    28    27    1
    81     1     2    1
    82    68    66   ar
    83    68    69   ar
    84    71    69   ar
    85    71    73   ar
    86    66    65   ar
    87    69    67   ar
    88    73    72   ar
    89    65    67   ar
    90    65    64    1
    91    67    70   ar
    92    64    61    1
    93    72    70   ar
    94    54    52    1
    95     2     5    1
    96    27    29    1
    97    27    24    1
    98    52    53    1
    99    23    24    1
   100    78    75    1
   101    75    74    1
   102    74    62   am
   103    62    63    2
   104    62    61    1
   105    24    25    1
   106    61    60    1
   107    26    25    2
   108     5     6    1
   109     6     7    1
   110     7     8    1
   111     8     9    2
   112    10     9    1
   113     9    11    1
