@<TRIPOS>MOLECULE
tmp/5w10A00.pdb
 167 158 0 0 0
SMALL
GASTEIGER

@<TRIPOS>ATOM
      1  N         40.9770   29.9760   35.3570 N.3    43  ASN43      -0.1225
      2  CA        41.6590   28.7040   35.2910 C.3    43  ASN43       0.1785
      3  C         41.1100   27.6730   36.2770 C.2    43  ASN43       0.2597
      4  O         41.2010   27.8350   37.5170 O.2    43  ASN43      -0.2718
      5  CB        43.1460   28.8790   35.5940 C.3    43  ASN43       0.1169
      6  CG        43.8640   29.6390   34.4870 C.2    43  ASN43       0.2627
      7  OD1       43.6480   30.8310   34.3010 O.2    43  ASN43      -0.2716
      8  ND2       44.6160   28.9150   33.6750 N.am   43  ASN43      -0.0877
      9  N         40.5570   26.5980   35.7380 N.am   44  TRP44      -0.1962
     10  CA        40.0380   25.5140   36.5690 C.3    44  TRP44       0.1771
     11  C         40.0000   24.2500   35.7540 C.2    44  TRP44       0.2620
     12  O         40.0460   24.3030   34.5320 O.2    44  TRP44      -0.2715
     13  CB        38.6590   25.8820   37.1320 C.3    44  TRP44       0.0590
     14  CG        37.5680   25.8910   36.1630 C.ar   44  TRP44       0.0006
     15  CD1       37.2150   26.9030   35.3200 C.ar   44  TRP44       0.0946
     16  CD2       36.6620   24.8250   35.9070 C.ar   44  TRP44       0.0152
     17  NE1       36.1460   26.5380   34.5610 N.ar   44  TRP44      -0.2442
     18  CE2       35.7960   25.2580   34.9020 C.ar   44  TRP44       0.0810
     19  CE3       36.4960   23.5410   36.4410 C.ar   44  TRP44       0.0012
     20  CZ2       34.7640   24.4780   34.4340 C.ar   44  TRP44       0.0191
     21  CZ3       35.4800   22.7440   35.9610 C.ar   44  TRP44       0.0001
     22  CH2       34.6160   23.2210   34.9700 C.ar   44  TRP44       0.0015
     23  N         39.9440   23.1170   36.4310 N.am   45  SER45      -0.1950
     24  CA        39.9580   21.8550   35.7370 C.3    45  SER45       0.1924
     25  C         39.1930   20.7480   36.4610 C.2    45  SER45       0.2314
     26  O         38.9380   20.7970   37.6790 O.2    45  SER45      -0.2863
     27  CB        41.4140   21.4390   35.4880 C.3    45  SER45       0.2116
     28  OG        42.0430   21.1040   36.7100 O.3    45  SER45      -0.2180
     29  N         43.0290   14.7320   32.4480 N.3    57  PHE57      -0.1241
     30  CA        42.1350   15.8650   32.3010 C.3    57  PHE57       0.1605
     31  C         40.9250   15.5300   31.4590 C.2    57  PHE57       0.2264
     32  O         41.0570   14.9590   30.3550 O.2    57  PHE57      -0.2867
     33  CB        42.8650   17.0390   31.6510 C.3    57  PHE57       0.0534
     34  CG        43.8160   17.7680   32.5780 C.ar   57  PHE57      -0.0203
     35  CD1       43.3410   18.7320   33.4650 C.ar   57  PHE57      -0.0042
     36  CD2       45.1780   17.5150   32.5390 C.ar   57  PHE57      -0.0042
     37  CE1       44.2020   19.4130   34.3070 C.ar   57  PHE57      -0.0003
     38  CE2       46.0470   18.1960   33.3770 C.ar   57  PHE57      -0.0003
     39  CZ        45.5630   19.1460   34.2610 C.ar   57  PHE57      -0.0000
     40  N         39.8150   21.5070   31.2060 N.3    60  ALA60      -0.1231
     41  CA        40.9470   22.3480   31.5730 C.3    60  ALA60       0.1694
     42  C         40.7300   23.7000   30.9610 C.2    60  ALA60       0.2591
     43  O         41.0570   23.9110   29.7980 O.2    60  ALA60      -0.2718
     44  CB        42.2400   21.7350   31.0680 C.3    60  ALA60       0.0304
     45  N         40.1060   24.5940   31.7160 N.am   61  GLU61      -0.1979
     46  CA        39.7950   25.9250   31.2090 C.3    61  GLU61       0.1602
     47  C         40.9300   26.8940   31.5290 C.2    61  GLU61       0.2287
     48  O         41.5590   26.7880   32.5900 O.2    61  GLU61      -0.2864
     49  CB        38.5030   26.4010   31.8210 C.3    61  GLU61       0.0415
     50  CG        37.3490   25.5240   31.4150 C.3    61  GLU61       0.1163
     51  CD        36.9600   25.6550   29.9410 C.2    61  GLU61       0.3649
     52  OE1       36.6050   26.7890   29.5370 O.co2  61  GLU61      -0.2457
     53  OE2       36.9700   24.6170   29.2100 O.co2  61  GLU61      -0.2457
     54  N         43.7920   27.0820   29.8570 N.3    63  ILE63      -0.1245
     55  CA        44.9970   26.5780   29.2070 C.3    63  ILE63       0.1561
     56  C         44.5730   25.7430   27.9840 C.2    63  ILE63       0.2260
     57  O         43.4220   25.3720   27.8540 O.2    63  ILE63      -0.2867
     58  CB        45.8640   25.7260   30.1310 C.3    63  ILE63       0.0252
     59  CG1       45.0060   24.7330   30.9290 C.3    63  ILE63       0.0019
     60  CG2       46.6630   26.6150   31.0790 C.3    63  ILE63       0.0019
     61  CD1       45.8200   23.6450   31.6000 C.3    63  ILE63       0.0001
     62  N         48.7380   11.7940   35.8430 N.3    73  LEU73      -0.1245
     63  CA        49.3490   11.9160   37.1690 C.3    73  LEU73       0.1561
     64  C         49.2030   10.5910   37.8850 C.2    73  LEU73       0.2260
     65  O         48.0850   10.0780   37.9790 O.2    73  LEU73      -0.2867
     66  CB        48.6840   13.0260   37.9970 C.3    73  LEU73       0.0270
     67  CG        48.8260   14.4580   37.4700 C.3    73  LEU73       0.0019
     68  CD1       48.0490   15.4340   38.3460 C.3    73  LEU73       0.0001
     69  CD2       50.2810   14.8840   37.4060 C.3    73  LEU73       0.0001
     70  N         51.3070   15.3160   42.5120 N.3    78  GLY78      -0.1210
     71  CA        50.6660   16.6250   42.4460 C.3    78  GLY78       0.1956
     72  C         49.7350   16.8440   43.6130 C.2    78  GLY78       0.2612
     73  O         49.4830   15.9340   44.4120 O.2    78  GLY78      -0.2717
     74  N         49.2550   18.0700   43.7550 N.am   79  ILE79      -0.1965
     75  CA        48.1660   18.3530   44.7140 C.3    79  ILE79       0.1727
     76  C         46.9700   17.4520   44.3820 C.2    79  ILE79       0.2616
     77  O         46.3800   16.8270   45.2700 O.2    79  ILE79      -0.2715
     78  CB        47.7120   19.8210   44.6740 C.3    79  ILE79       0.0290
     79  CG1       48.8770   20.7860   44.9430 C.3    79  ILE79       0.0022
     80  CG2       46.6070   20.0690   45.6920 C.3    79  ILE79       0.0023
     81  CD1       49.6140   20.5410   46.2370 C.3    79  ILE79       0.0001
     82  N         46.6440   17.3590   43.0960 N.am   80  ALA80      -0.1977
     83  CA        45.5100   16.5490   42.6760 C.3    80  ALA80       0.1597
     84  C         45.6760   15.0930   43.0950 C.2    80  ALA80       0.2287
     85  O         44.7380   14.4940   43.6540 O.2    80  ALA80      -0.2864
     86  CB        45.2940   16.6780   41.1780 C.3    80  ALA80       0.0319
     87  N         53.1780   19.6500   45.2770 N.3   101  PHE101     -0.1227
     88  CA        52.9020   20.2620   43.9890 C.3   101  PHE101      0.1736
     89  C         53.6480   19.5810   42.8520 C.2   101  PHE101      0.2596
     90  O         54.7610   19.1090   43.0500 O.2   101  PHE101     -0.2718
     91  CB        53.2700   21.7380   44.0480 C.3   101  PHE101      0.0547
     92  CG        53.1660   22.4540   42.7350 C.ar  101  PHE101     -0.0202
     93  CD1       51.9370   22.6140   42.1070 C.ar  101  PHE101     -0.0042
     94  CD2       54.2910   23.0000   42.1320 C.ar  101  PHE101     -0.0042
     95  CE1       51.8300   23.3000   40.9000 C.ar  101  PHE101     -0.0003
     96  CE2       54.1980   23.6820   40.9250 C.ar  101  PHE101     -0.0003
     97  CZ        52.9650   23.8350   40.3060 C.ar  101  PHE101     -0.0000
     98  N         53.0330   19.5350   41.6660 N.am  102  SER102     -0.1952
     99  CA        53.6910   19.0120   40.4570 C.3   102  SER102      0.1924
    100  C         53.7840   20.0870   39.3920 C.2   102  SER102      0.2314
    101  O         52.7610   20.6690   38.9900 O.2   102  SER102     -0.2863
    102  CB        52.9420   17.8140   39.9060 C.3   102  SER102      0.2116
    103  OG        53.3740   17.5210   38.5950 O.3   102  SER102     -0.2180
    104  N         52.6090   20.1710   34.6010 N.3   105  VAL105     -0.1231
    105  CA        51.6400   20.8410   33.7410 C.3   105  VAL105      0.1692
    106  C         52.0390   22.2730   33.4100 C.2   105  VAL105      0.2592
    107  O         51.9090   22.7040   32.2640 O.2   105  VAL105     -0.2718
    108  CB        50.2140   20.7790   34.3720 C.3   105  VAL105      0.0266
    109  CG1       49.2380   21.6510   33.6090 C.3   105  VAL105      0.0020
    110  CG2       49.7130   19.3390   34.4110 C.3   105  VAL105      0.0020
    111  N         52.4770   23.0390   34.4040 N.am  106  ASP106     -0.1974
    112  CA        53.0020   24.4120   34.1410 C.3   106  ASP106      0.1709
    113  C         54.1380   24.4050   33.0870 C.2   106  ASP106      0.2293
    114  O         54.1950   25.2700   32.2120 O.2   106  ASP106     -0.2864
    115  CB        53.5360   25.0550   35.4310 C.3   106  ASP106      0.1436
    116  CG        52.4280   25.6520   36.3320 C.2   106  ASP106      0.3671
    117  OD1       51.2140   25.5770   36.0290 O.co2 106  ASP106     -0.2456
    118  OD2       52.8020   26.2190   37.3750 O.co2 106  ASP106     -0.2456
    119  N         52.4320   24.0250   29.7550 N.3   109  THR109     -0.1218
    120  CA        51.5310   25.0960   29.3550 C.3   109  THR109      0.1862
    121  C         52.1940   26.4520   29.3250 C.2   109  THR109      0.2287
    122  O         51.7040   27.3520   28.6450 O.2   109  THR109     -0.2866
    123  CB        50.3380   25.2210   30.3190 C.3   109  THR109      0.1770
    124  OG1       50.8150   25.5300   31.6380 O.3   109  THR109     -0.2211
    125  CG2       49.5290   23.9370   30.3490 C.3   109  THR109      0.0375
    126  N         51.9890   28.3110   31.8420 N.3   111  PHE111     -0.1241
    127  CA        51.2100   29.0420   32.8390 C.3   111  PHE111      0.1605
    128  C         51.9490   28.9070   34.1510 C.2   111  PHE111      0.2264
    129  O         52.5840   27.8790   34.3910 O.2   111  PHE111     -0.2867
    130  CB        49.8110   28.4030   32.9580 C.3   111  PHE111      0.0534
    131  CG        48.8920   29.0730   33.9500 C.ar  111  PHE111     -0.0203
    132  CD1       48.1270   30.1630   33.5730 C.ar  111  PHE111     -0.0042
    133  CD2       48.7600   28.5790   35.2230 C.ar  111  PHE111     -0.0042
    134  CE1       47.2700   30.7720   34.4720 C.ar  111  PHE111     -0.0003
    135  CE2       47.8950   29.1820   36.1350 C.ar  111  PHE111     -0.0003
    136  CZ        47.1510   30.2750   35.7590 C.ar  111  PHE111     -0.0000
    137  N         51.2930   28.4660   38.0380 N.3   113  THR113     -0.1218
    138  CA        50.3450   28.1540   39.0940 C.3   113  THR113      0.1862
    139  C         50.8640   28.7510   40.3900 C.2   113  THR113      0.2287
    140  O         51.9950   28.5010   40.7520 O.2   113  THR113     -0.2866
    141  CB        50.1920   26.6200   39.2780 C.3   113  THR113      0.1770
    142  OG1       49.6340   26.0470   38.0860 O.3   113  THR113     -0.2211
    143  CG2       49.3010   26.2960   40.4650 C.3   113  THR113      0.0375
    144  N         46.0270   26.8220   44.5350 N.3   116  ILE116     -0.1245
    145  CA        45.1130   25.7740   44.1510 C.3   116  ILE116      0.1561
    146  C         44.1190   25.5030   45.2740 C.2   116  ILE116      0.2260
    147  O         44.5180   25.3550   46.4250 O.2   116  ILE116     -0.2867
    148  CB        45.8610   24.4680   43.8660 C.3   116  ILE116      0.0252
    149  CG1       46.8070   24.6620   42.6840 C.3   116  ILE116      0.0019
    150  CG2       44.8680   23.3520   43.5740 C.3   116  ILE116      0.0019
    151  CD1       47.7020   23.4680   42.4390 C.3   116  ILE116      0.0001
    152  N         39.8940   21.3120   40.3810 N.3   131  GLU131     -0.1245
    153  CA        40.8380   22.3190   40.8540 C.3   131  GLU131      0.1567
    154  C         40.4330   23.6740   40.3790 C.2   131  GLU131      0.2260
    155  O         40.0500   23.8570   39.2120 O.2   131  GLU131     -0.2867
    156  CB        42.2650   22.0260   40.3760 C.3   131  GLU131      0.0388
    157  CG        42.9190   20.8380   41.0600 C.3   131  GLU131      0.1160
    158  CD        44.4170   20.7240   40.7930 C.2   131  GLU131      0.3649
    159  OE1       44.9040   21.2650   39.7800 O.co2 131  GLU131     -0.2457
    160  OE2       45.1160   20.0990   41.6190 O.co2 131  GLU131     -0.2457
    161  N         42.3300   27.2130   40.0360 N.3   133  VAL133     -0.1245
    162  CA        43.7330   27.5760   40.0250 C.3   133  VAL133      0.1561
    163  C         43.8420   29.0720   39.9750 C.2   133  VAL133      0.2260
    164  O         43.1770   29.7470   39.1610 O.2   133  VAL133     -0.2867
    165  CB        44.4490   26.9350   38.8320 C.3   133  VAL133      0.0252
    166  CG1       45.9240   27.3060   38.8300 C.3   133  VAL133      0.0019
    167  CG2       44.3270   25.4170   38.8990 C.3   133  VAL133      0.0019
@<TRIPOS>BOND
     1    57    56    2
     2    56    55    1
     3   122   121    2
     4    55    54    1
     5    55    58    1
     6    53    51   ar
     7   121   120    1
     8   120   119    1
     9   120   123    1
    10    52    51   ar
    11    43    42    2
    12    51    50    1
    13    58    59    1
    14    58    60    1
    15   123   125    1
    16   123   124    1
    17    32    31    2
    18    59    61    1
    19    42    41    1
    20    42    45   am
    21    44    41    1
    22    40    41    1
    23    46    47    1
    24    46    45    1
    25    46    49    1
    26    50    49    1
    27    31    30    1
    28    47    48    2
    29    33    30    1
    30    33    34    1
    31   126   127    1
    32   114   113    2
    33   107   106    2
    34    30    29    1
    35    36    34   ar
    36    36    38   ar
    37    34    35   ar
    38   127   130    1
    39   127   128    1
    40   130   131    1
    41   113   112    1
    42    38    39   ar
    43   106   105    1
    44   106   111   am
    45    35    37   ar
    46   132   131   ar
    47   132   134   ar
    48   109   108    1
    49     8     6   am
    50   105   108    1
    51   105   104    1
    52   131   133   ar
    53   112   111    1
    54   112   115    1
    55   128   129    2
    56    39    37   ar
    57     7     6    2
    58   108   110    1
    59    20    18   ar
    60    20    22   ar
    61   134   136   ar
    62     6     5    1
    63    12    11    2
    64    17    18   ar
    65    17    15   ar
    66    18    16   ar
    67    22    21   ar
    68   133   135   ar
    69     2     1    1
    70     2     5    1
    71     2     3    1
    72    15    14   ar
    73   115   116    1
    74    27    24    1
    75    27    28    1
    76    24    23    1
    77    24    25    1
    78     9     3   am
    79     9    10    1
    80    11    23   am
    81    11    10    1
    82   136   135   ar
    83    62    63    1
    84    16    14   ar
    85    16    19   ar
    86    21    19   ar
    87   117   116   ar
    88    14    13    1
    89     3     4    2
    90   116   118   ar
    91    25    26    2
    92    10    13    1
    93    63    64    1
    94    63    66    1
    95    69    67    1
    96    67    66    1
    97    67    68    1
    98    64    65    2
    99   137   138    1
   100   142   141    1
   101   103   102    1
   102   166   165    1
   103   165   167    1
   104   165   162    1
   105   101   100    2
   106   138   141    1
   107   138   139    1
   108   164   163    2
   109   155   154    2
   110   141   143    1
   111   100    99    1
   112   159   158   ar
   113   102    99    1
   114   163   162    1
   115   162   161    1
   116    97    95   ar
   117    97    96   ar
   118   156   153    1
   119   156   157    1
   120   154   153    1
   121   152   153    1
   122   139   140    2
   123    99    98    1
   124   158   157    1
   125   158   160   ar
   126    95    93   ar
   127    96    94   ar
   128    86    83    1
   129    98    89   am
   130    93    92   ar
   131    94    92   ar
   132   151   149    1
   133    71    70    1
   134    71    72    1
   135    83    84    1
   136    83    82    1
   137   149   148    1
   138    92    91    1
   139    89    90    2
   140    89    88    1
   141    84    85    2
   142    82    76   am
   143   150   148    1
   144    72    74   am
   145    72    73    2
   146    74    75    1
   147   148   145    1
   148    88    91    1
   149    88    87    1
   150   145   144    1
   151   145   146    1
   152    76    75    1
   153    76    77    2
   154    78    75    1
   155    78    79    1
   156    78    80    1
   157    79    81    1
   158   146   147    2
