@<TRIPOS>MOLECULE
tmp/5w11B02.pdb
 226 216 0 0 0
SMALL
GASTEIGER

@<TRIPOS>ATOM
      1  N         -3.6840   -8.3420   -6.0860 N.3   173  ASP173     -0.1239
      2  CA        -2.2530   -8.0730   -5.9350 C.3   173  ASP173      0.1674
      3  C         -1.5730   -8.3160   -7.2700 C.2   173  ASP173      0.2266
      4  O         -2.2350   -8.4550   -8.3030 O.2   173  ASP173     -0.2867
      5  CB        -1.6310   -8.8740   -4.7780 C.3   173  ASP173      0.1410
      6  CG        -1.5750  -10.3690   -5.0310 C.2   173  ASP173      0.3668
      7  OD1       -1.7420  -10.8400   -6.1820 O.co2 173  ASP173     -0.2456
      8  OD2       -1.3400  -11.0830   -4.0360 O.co2 173  ASP173     -0.2456
      9  N          0.0420  -10.7700   -8.4790 N.3   175  GLN175     -0.1245
     10  CA        -0.0950  -12.0950   -9.0670 C.3   175  GLN175      0.1566
     11  C         -1.4100  -12.2760   -9.8160 C.2   175  GLN175      0.2260
     12  O         -1.6340  -13.3530  -10.3770 O.2   175  GLN175     -0.2867
     13  CB         0.0130  -13.1730   -7.9750 C.3   175  GLN175      0.0367
     14  CG         1.1620  -12.9440   -7.0240 C.3   175  GLN175      0.0905
     15  CD         2.4890  -13.0600   -7.7400 C.2   175  GLN175      0.2608
     16  OE1        2.6520  -13.9090   -8.6220 O.2   175  GLN175     -0.2717
     17  NE2        3.4340  -12.1990   -7.3890 N.am  175  GLN175     -0.0878
     18  N          1.3770   -3.7510   -6.1180 N.3   212  GLU212     -0.1245
     19  CA         1.7580   -4.3970   -4.8690 C.3   212  GLU212      0.1567
     20  C          3.1260   -3.9200   -4.4250 C.2   212  GLU212      0.2260
     21  O          4.0890   -3.9990   -5.1890 O.2   212  GLU212     -0.2867
     22  CB         1.7770   -5.9170   -5.0200 C.3   212  GLU212      0.0388
     23  CG         1.7610   -6.6380   -3.7070 C.3   212  GLU212      0.1160
     24  CD         1.8490   -8.1470   -3.8560 C.2   212  GLU212      0.3649
     25  OE1        1.5040   -8.6920   -4.9300 O.co2 212  GLU212     -0.2457
     26  OE2        2.2180   -8.8040   -2.8740 O.co2 212  GLU212     -0.2457
     27  N          5.5880   -5.0070   -1.5100 N.3   214  ASP214     -0.1239
     28  CA         5.8200   -6.0250   -0.4880 C.3   214  ASP214      0.1674
     29  C          6.8780   -5.4910    0.4640 C.2   214  ASP214      0.2266
     30  O          8.0830   -5.6470    0.2480 O.2   214  ASP214     -0.2867
     31  CB         6.2190   -7.3530   -1.1220 C.3   214  ASP214      0.1410
     32  CG         5.0490   -8.0060   -1.8430 C.2   214  ASP214      0.3668
     33  OD1        3.9030   -7.9060   -1.3370 O.co2 214  ASP214     -0.2456
     34  OD2        5.2650   -8.5860   -2.9170 O.co2 214  ASP214     -0.2456
     35  N          8.2640   -9.7410    3.5610 N.3   217  GLU217     -0.1245
     36  CA         7.9600  -11.1550    3.4190 C.3   217  GLU217      0.1567
     37  C          9.1070  -11.9170    4.0620 C.2   217  GLU217      0.2260
     38  O         10.2500  -11.8060    3.6150 O.2   217  GLU217     -0.2867
     39  CB         7.7830  -11.5200    1.9520 C.3   217  GLU217      0.0388
     40  CG         6.5720  -10.8480    1.3350 C.3   217  GLU217      0.1160
     41  CD         6.3060  -11.3430   -0.0520 C.2   217  GLU217      0.3649
     42  OE1        5.5320  -12.3160   -0.1800 O.co2 217  GLU217     -0.2457
     43  OE2        6.8890  -10.7840   -1.0070 O.co2 217  GLU217     -0.2457
     44  N          9.9960   -5.9880   -1.7290 N.3   226  THR226     -0.1218
     45  CA         9.7960   -6.1350   -3.1690 C.3   226  THR226      0.1862
     46  C          8.6370   -5.2970   -3.6960 C.2   226  THR226      0.2287
     47  O          7.4730   -5.6130   -3.4180 O.2   226  THR226     -0.2866
     48  CB         9.5050   -7.5970   -3.5240 C.3   226  THR226      0.1770
     49  OG1       10.4160   -8.4480   -2.8250 O.3   226  THR226     -0.2211
     50  CG2        9.6790   -7.8070   -5.0200 C.3   226  THR226      0.0375
     51  N          6.1870   -4.3300   -6.7840 N.3   228  HIS228     -0.1241
     52  CA         5.6490   -4.9780   -7.9830 C.3   228  HIS228      0.1621
     53  C          4.7550   -3.9980   -8.7310 C.2   228  HIS228      0.2264
     54  O          3.5700   -3.8590   -8.3820 O.2   228  HIS228     -0.2867
     55  CB         4.8020   -6.1960   -7.6490 C.3   228  HIS228      0.0745
     56  CG         5.5340   -7.3300   -7.0160 C.ar  228  HIS228      0.0817
     57  ND1        5.8100   -8.5020   -7.6870 N.ar  228  HIS228     -0.2268
     58  CD2        5.9620   -7.5130   -5.7460 C.ar  228  HIS228      0.1154
     59  CE1        6.4070   -9.3440   -6.8640 C.ar  228  HIS228      0.1986
     60  NE2        6.5130   -8.7680   -5.6810 N.ar  228  HIS228     -0.2212
     61  N          1.7290  -16.4080  -10.7190 N.3   246  THR246     -0.1203
     62  CA         2.5440  -17.5870  -10.4450 C.3   246  THR246      0.1994
     63  C          1.8060  -18.8790  -10.7900 C.2   246  THR246      0.2617
     64  O          2.4210  -19.8310  -11.2810 O.2   246  THR246     -0.2717
     65  CB         2.9300  -17.6080   -8.9530 C.3   246  THR246      0.1784
     66  OG1        3.7810  -16.4910   -8.6200 O.3   246  THR246     -0.2211
     67  CG2        3.6090  -18.9270   -8.5850 C.3   246  THR246      0.0376
     68  N          0.4910  -18.9070  -10.6000 N.am  247  TYR247     -0.1975
     69  CA        -0.3390  -20.0380  -11.0100 C.3   247  TYR247      0.1639
     70  C         -0.8800  -19.8040  -12.4230 C.2   247  TYR247      0.2290
     71  O         -2.0820  -19.6730  -12.6580 O.2   247  TYR247     -0.2864
     72  CB        -1.4620  -20.2860  -10.0040 C.3   247  TYR247      0.0560
     73  CG        -1.0240  -20.6360   -8.5920 C.ar  247  TYR247     -0.0198
     74  CD1       -0.6760  -19.6410   -7.6890 C.ar  247  TYR247     -0.0009
     75  CD2       -0.9830  -21.9630   -8.1530 C.ar  247  TYR247     -0.0009
     76  CE1       -0.2890  -19.9460   -6.3840 C.ar  247  TYR247      0.0417
     77  CE2       -0.6000  -22.2830   -6.8420 C.ar  247  TYR247      0.0417
     78  CZ        -0.2550  -21.2640   -5.9600 C.ar  247  TYR247      0.1957
     79  OH         0.1310  -21.5240   -4.6480 O.3   247  TYR247     -0.2866
     80  N          3.7730  -16.6070  -16.5870 N.3   251  ARG251     -0.1231
     81  CA         3.5940  -15.6670  -15.4890 C.3   251  ARG251      0.1694
     82  C          3.7250  -14.2050  -15.9170 C.2   251  ARG251      0.2592
     83  O          3.2050  -13.3290  -15.2220 O.2   251  ARG251     -0.2718
     84  CB         4.6020  -15.9870  -14.3790 C.3   251  ARG251      0.0321
     85  CG         6.0730  -15.8260  -14.7780 C.3   251  ARG251      0.0489
     86  CD         7.0120  -16.4390  -13.7310 C.3   251  ARG251      0.2205
     87  NE         7.1560  -15.6090  -12.5360 N.pl3 251  ARG251     -0.0865
     88  CZ         6.6710  -15.9360  -11.3390 C.cat 251  ARG251      0.5346
     89  NH1        6.0040  -17.0740  -11.1810 N.pl3 251  ARG251      0.1354
     90  NH2        6.8490  -15.1300  -10.2980 N.pl3 251  ARG251      0.1354
     91  N          4.3710  -13.9190  -17.0470 N.am  252  TYR252     -0.1976
     92  CA         4.6260  -12.5500  -17.4850 C.3   252  TYR252      0.1639
     93  C          3.6170  -12.0430  -18.5050 C.2   252  TYR252      0.2290
     94  O          3.7560  -10.9110  -18.9850 O.2   252  TYR252     -0.2864
     95  CB         6.0410  -12.4340  -18.0670 C.3   252  TYR252      0.0560
     96  CG         7.1000  -12.9550  -17.1300 C.ar  252  TYR252     -0.0198
     97  CD1        7.3560  -12.3170  -15.9180 C.ar  252  TYR252     -0.0009
     98  CD2        7.8390  -14.0850  -17.4500 C.ar  252  TYR252     -0.0009
     99  CE1        8.3080  -12.7940  -15.0480 C.ar  252  TYR252      0.0417
    100  CE2        8.8130  -14.5740  -16.5830 C.ar  252  TYR252      0.0417
    101  CZ         9.0280  -13.9310  -15.3870 C.ar  252  TYR252      0.1957
    102  OH         9.9770  -14.4090  -14.5370 O.3   252  TYR252     -0.2866
    103  N          5.0730  -10.1530  -11.8320 N.3   258  PRO258     -0.2102
    104  CA         4.9530  -11.1480  -10.7570 C.3   258  PRO258      0.1504
    105  C          6.2280  -11.3360   -9.9450 C.2   258  PRO258      0.2575
    106  O          6.1570  -11.8630   -8.8260 O.2   258  PRO258     -0.2718
    107  CB         4.6040  -12.4260  -11.5190 C.3   258  PRO258      0.0282
    108  CG         5.4160  -12.2700  -12.8080 C.3   258  PRO258      0.0208
    109  CD         5.3990  -10.7780  -13.1280 C.3   258  PRO258      0.0893
    110  N          7.3790  -10.9210  -10.4630 N.am  259  ASP259     -0.1974
    111  CA         8.6470  -11.1410   -9.7730 C.3   259  ASP259      0.1708
    112  C          9.0080  -10.0000   -8.8440 C.2   259  ASP259      0.2293
    113  O          9.3770  -10.2450   -7.6890 O.2   259  ASP259     -0.2864
    114  CB         9.7770  -11.3560  -10.7910 C.3   259  ASP259      0.1436
    115  CG         9.5740  -12.6100  -11.6310 C.2   259  ASP259      0.3671
    116  OD1        8.6020  -13.3610  -11.3690 O.co2 259  ASP259     -0.2456
    117  OD2       10.3860  -12.8420  -12.5530 O.co2 259  ASP259     -0.2456
    118  N         13.4470   -7.2340   -5.9740 N.3   262  ASP262     -0.1239
    119  CA        13.4860   -7.7030   -4.5960 C.3   262  ASP262      0.1674
    120  C         14.8380   -7.4160   -3.9700 C.2   262  ASP262      0.2266
    121  O         15.8700   -7.5240   -4.6360 O.2   262  ASP262     -0.2867
    122  CB        13.2040   -9.2070   -4.5260 C.3   262  ASP262      0.1410
    123  CG        14.2330  -10.0430   -5.2940 C.2   262  ASP262      0.3668
    124  OD1       14.2530   -9.9600   -6.5390 O.co2 262  ASP262     -0.2456
    125  OD2       15.0240  -10.7740   -4.6510 O.co2 262  ASP262     -0.2456
    126  N         20.1630  -13.2360   -0.4550 N.3   267  ARG267     -0.1245
    127  CA        20.2680  -13.3520   -1.9030 C.3   267  ARG267      0.1563
    128  C         21.2450  -12.3320   -2.4710 C.2   267  ARG267      0.2260
    129  O         21.9410  -12.6250   -3.4520 O.2   267  ARG267     -0.2867
    130  CB        18.8780  -13.2050   -2.5440 C.3   267  ARG267      0.0307
    131  CG        18.8100  -13.6260   -4.0120 C.3   267  ARG267      0.0489
    132  CD        17.4710  -13.3270   -4.6740 C.3   267  ARG267      0.2205
    133  NE        17.4670  -13.8350   -6.0440 N.pl3 267  ARG267     -0.0865
    134  CZ        16.8880  -13.2510   -7.0890 C.cat 267  ARG267      0.5346
    135  NH1       16.2190  -12.1030   -6.9570 N.pl3 267  ARG267      0.1354
    136  NH2       16.9900  -13.8210   -8.2810 N.pl3 267  ARG267      0.1354
    137  N         18.8070   -7.4140  -11.9320 N.3   338  LYS338     -0.1245
    138  CA        18.2450   -8.3390  -12.9070 C.3   338  LYS338      0.1561
    139  C         19.3200   -8.8220  -13.8760 C.2   338  LYS338      0.2260
    140  O         19.3440  -10.0010  -14.2510 O.2   338  LYS338     -0.2867
    141  CB        17.1030   -7.6610  -13.6620 C.3   338  LYS338      0.0271
    142  CG        15.8640   -7.2960  -12.8420 C.3   338  LYS338      0.0035
    143  CD        15.2150   -8.5200  -12.1980 C.3   338  LYS338      0.0206
    144  CE        13.9530   -8.1590  -11.4250 C.3   338  LYS338      0.1093
    145  NZ        13.4040   -9.3440  -10.7240 N.3   338  LYS338     -0.1314
    146  N         17.6320  -12.5300  -14.5710 N.3   343  ASP343     -0.1239
    147  CA        16.1890  -12.6280  -14.3830 C.3   343  ASP343      0.1674
    148  C         15.4560  -11.7780  -15.4140 C.2   343  ASP343      0.2266
    149  O         16.0030  -10.8170  -15.9590 O.2   343  ASP343     -0.2867
    150  CB        15.7750  -12.1870  -12.9770 C.3   343  ASP343      0.1410
    151  CG        16.1630  -13.1940  -11.9180 C.2   343  ASP343      0.3668
    152  OD1       16.4240  -14.3620  -12.2730 O.co2 343  ASP343     -0.2456
    153  OD2       16.1710  -12.8310  -10.7290 O.co2 343  ASP343     -0.2456
    154  N          1.1640  -17.5490    5.6490 N.3   371  TRP371     -0.1241
    155  CA         0.7830  -18.5360    4.6430 C.3   371  TRP371      0.1605
    156  C          1.9810  -19.3960    4.2920 C.2   371  TRP371      0.2264
    157  O          3.1260  -19.0180    4.5330 O.2   371  TRP371     -0.2867
    158  CB         0.2400  -17.8830    3.3690 C.3   371  TRP371      0.0550
    159  CG         1.0880  -16.7510    2.8520 C.ar  371  TRP371      0.0003
    160  CD1        1.2360  -15.5110    3.4190 C.ar  371  TRP371      0.0946
    161  CD2        1.9150  -16.7520    1.6750 C.ar  371  TRP371      0.0152
    162  NE1        2.0950  -14.7440    2.6660 N.ar  371  TRP371     -0.2442
    163  CE2        2.5270  -15.4790    1.5930 C.ar  371  TRP371      0.0810
    164  CE3        2.1930  -17.6960    0.6870 C.ar  371  TRP371      0.0012
    165  CZ2        3.3880  -15.1290    0.5550 C.ar  371  TRP371      0.0191
    166  CZ3        3.0560  -17.3450   -0.3450 C.ar  371  TRP371      0.0001
    167  CH2        3.6410  -16.0680   -0.4020 C.ar  371  TRP371      0.0015
    168  N          3.3030  -21.9440    0.7620 N.3   373  ASP373     -0.1239
    169  CA         3.3590  -21.6960   -0.6770 C.3   373  ASP373      0.1674
    170  C          3.1050  -22.9980   -1.4270 C.2   373  ASP373      0.2266
    171  O          3.9930  -23.8550   -1.5290 O.2   373  ASP373     -0.2867
    172  CB         4.7090  -21.0820   -1.0350 C.3   373  ASP373      0.1410
    173  CG         4.9270  -20.9350   -2.5300 C.2   373  ASP373      0.3668
    174  OD1        4.0000  -21.1730   -3.3320 O.co2 373  ASP373     -0.2456
    175  OD2        6.0530  -20.5530   -2.8940 O.co2 373  ASP373     -0.2456
    176  N          2.8260  -23.3490   -4.5510 N.3   375  ALA375     -0.1231
    177  CA         3.4630  -23.3770   -5.8600 C.3   375  ALA375      0.1694
    178  C          4.9490  -23.6930   -5.7870 C.2   375  ALA375      0.2591
    179  O          5.4130  -24.5770   -6.4990 O.2   375  ALA375     -0.2718
    180  CB         3.2480  -22.0430   -6.5830 C.3   375  ALA375      0.0304
    181  N          5.7080  -23.0200   -4.9170 N.am  376  VAL376     -0.1980
    182  CA         7.1700  -23.0640   -4.9510 C.3   376  VAL376      0.1595
    183  C          7.7260  -23.4060   -3.5700 C.2   376  VAL376      0.2287
    184  O          8.9320  -23.3160   -3.3330 O.2   376  VAL376     -0.2864
    185  CB         7.7420  -21.7270   -5.4720 C.3   376  VAL376      0.0276
    186  CG1        9.2340  -21.8330   -5.8130 C.3   376  VAL376      0.0022
    187  CG2        6.9870  -21.2800   -6.6850 C.3   376  VAL376      0.0022
    188  N         11.7830  -19.7050   -3.2070 N.3   380  TRP380     -0.1241
    189  CA        12.1990  -18.4030   -3.7220 C.3   380  TRP380      0.1605
    190  C         12.5800  -17.4490   -2.5990 C.2   380  TRP380      0.2264
    191  O         13.3890  -16.5350   -2.8080 O.2   380  TRP380     -0.2867
    192  CB        11.0750  -17.7920   -4.5700 C.3   380  TRP380      0.0550
    193  CG         9.8270  -17.5620   -3.7700 C.ar  380  TRP380      0.0003
    194  CD1        8.7990  -18.4370   -3.5880 C.ar  380  TRP380      0.0946
    195  CD2        9.4950  -16.3880   -3.0150 C.ar  380  TRP380      0.0152
    196  NE1        7.8380  -17.8810   -2.7840 N.ar  380  TRP380     -0.2442
    197  CE2        8.2420  -16.6220   -2.4170 C.ar  380  TRP380      0.0810
    198  CE3       10.1280  -15.1530   -2.8070 C.ar  380  TRP380      0.0012
    199  CZ2        7.6100  -15.6720   -1.6100 C.ar  380  TRP380      0.0191
    200  CZ3        9.5090  -14.2140   -2.0160 C.ar  380  TRP380      0.0001
    201  CH2        8.2550  -14.4740   -1.4220 C.ar  380  TRP380      0.0015
    202  N         16.8860  -21.5730   -5.2920 N.3   385  TRP385     -0.1241
    203  CA        15.8660  -21.6190   -6.3230 C.3   385  TRP385      0.1605
    204  C         16.4390  -21.0270   -7.6010 C.2   385  TRP385      0.2264
    205  O         16.7890  -19.8450   -7.6250 O.2   385  TRP385     -0.2867
    206  CB        14.6210  -20.8590   -5.8620 C.3   385  TRP385      0.0550
    207  CG        13.4850  -20.8820   -6.8180 C.ar  385  TRP385      0.0003
    208  CD1       12.9690  -19.8260   -7.5040 C.ar  385  TRP385      0.0946
    209  CD2       12.7320  -22.0270   -7.2150 C.ar  385  TRP385      0.0152
    210  NE1       11.9240  -20.2370   -8.2950 N.ar  385  TRP385     -0.2442
    211  CE2       11.7600  -21.5880   -8.1380 C.ar  385  TRP385      0.0810
    212  CE3       12.7810  -23.3830   -6.8760 C.ar  385  TRP385      0.0012
    213  CZ2       10.8520  -22.4610   -8.7380 C.ar  385  TRP385      0.0191
    214  CZ3       11.8780  -24.2460   -7.4580 C.ar  385  TRP385      0.0001
    215  CH2       10.9230  -23.7830   -8.3780 C.ar  385  TRP385      0.0015
    216  N         18.8940  -17.9310   -1.6210 N.3   397  ARG397     -0.1245
    217  CA        18.0770  -16.9230   -0.9740 C.3   397  ARG397      0.1563
    218  C         17.9580  -17.1180    0.5280 C.2   397  ARG397      0.2260
    219  O         17.6650  -16.1480    1.2360 O.2   397  ARG397     -0.2867
    220  CB        16.6840  -16.9020   -1.6120 C.3   397  ARG397      0.0307
    221  CG        16.7350  -16.7350   -3.1380 C.3   397  ARG397      0.0489
    222  CD        16.2570  -17.9720   -3.8580 C.3   397  ARG397      0.2205
    223  NE        16.3550  -17.8640   -5.3120 N.pl3 397  ARG397     -0.0865
    224  CZ        15.5830  -17.0720   -6.0550 C.cat 397  ARG397      0.5346
    225  NH1       14.6690  -16.3210   -5.4780 N.pl3 397  ARG397      0.1354
    226  NH2       15.7170  -17.0300   -7.3700 N.pl3 397  ARG397      0.1354
@<TRIPOS>BOND
     1    94    93    2
     2    93    92    1
     3    95    92    1
     4    95    96    1
     5    92    91    1
     6    98    96   ar
     7    98   100   ar
     8    96    97   ar
     9    91    82   am
    10    80    81    1
    11   100   101   ar
    12   149   148    2
    13    97    99   ar
    14    82    81    1
    15    82    83    2
    16    81    84    1
    17   148   147    1
    18   101    99   ar
    19   101   102    1
    20    85    84    1
    21    85    86    1
    22   146   147    1
    23   147   150    1
    24   140   139    2
    25   139   138    1
    26    86    87    1
    27   141   138    1
    28   141   142    1
    29   109   108    1
    30   109   103    1
    31   150   151    1
    32   138   137    1
    33   142   143    1
    34   108   107    1
    35    71    70    2
    36   117   115   ar
    37    87    88    2
    38    70    69    1
    39   152   151   ar
    40   143   144    1
    41   151   153   ar
    42   103   104    1
    43   115   116   ar
    44   115   114    1
    45   107   104    1
    46   144   145    1
    47    88    89    1
    48    88    90    1
    49    64    63    2
    50    69    68    1
    51    69    72    1
    52   114   111    1
    53    63    68   am
    54    63    62    1
    55   104   105    1
    56    61    62    1
    57   110   105   am
    58   110   111    1
    59    62    65    1
    60    12    11    2
    61    72    73    1
    62   105   106    2
    63    11    10    1
    64   111   112    1
    65    10     9    1
    66    10    13    1
    67    65    66    1
    68    65    67    1
    69   112   113    2
    70   213   215   ar
    71   213   211   ar
    72    53    54    2
    73    53    52    1
    74    16    15    2
    75    73    75   ar
    76    73    74   ar
    77   215   214   ar
    78     4     3    2
    79   210   211   ar
    80   210   208   ar
    81   136   134    1
    82    75    77   ar
    83   211   209   ar
    84    52    55    1
    85    52    51    1
    86    13    14    1
    87    15    17   am
    88    15    14    1
    89    74    76   ar
    90    57    56   ar
    91    57    59   ar
    92    55    56    1
    93   205   204    2
    94   204   203    1
    95   208   207   ar
    96   214   212   ar
    97   226   224    1
    98     3     2    1
    99   209   212   ar
   100   209   207   ar
   101   134   135    1
   102   134   133    2
   103    56    58   ar
   104    59    60   ar
   105    77    78   ar
   106   207   206    1
   107   187   185    1
   108   180   177    1
   109   124   123   ar
   110   179   178    2
   111    76    78   ar
   112   203   206    1
   113   203   202    1
   114     7     6   ar
   115    18    19    1
   116     1     2    1
   117   224   225    1
   118   224   223    2
   119   133   132    1
   120   118   119    1
   121    78    79    1
   122     2     5    1
   123   177   178    1
   124   177   176    1
   125   186   185    1
   126   178   181   am
   127    58    60   ar
   128   185   182    1
   129   223   222    1
   130   123   125   ar
   131   123   122    1
   132    21    20    2
   133     6     5    1
   134     6     8   ar
   135    50    48    1
   136    22    19    1
   137    22    23    1
   138   182   181    1
   139   182   183    1
   140    25    24   ar
   141    19    20    1
   142   132   131    1
   143   121   120    2
   144   119   122    1
   145   119   120    1
   146   192   193    1
   147   192   189    1
   148   131   130    1
   149   222   221    1
   150    24    23    1
   151    24    26   ar
   152   193   194   ar
   153   193   195   ar
   154   189   188    1
   155   189   190    1
   156    46    47    2
   157    46    45    1
   158   194   196   ar
   159   183   184    2
   160    48    45    1
   161    48    49    1
   162   129   128    2
   163   174   173   ar
   164    45    44    1
   165   221   220    1
   166   195   198   ar
   167   195   197   ar
   168    34    32   ar
   169   175   173   ar
   170   191   190    2
   171   198   200   ar
   172   196   197   ar
   173   130   127    1
   174   173   172    1
   175   128   127    1
   176   197   199   ar
   177   200   201   ar
   178   127   126    1
   179    32    33   ar
   180    32    31    1
   181   216   217    1
   182   220   217    1
   183   199   201   ar
   184   171   170    2
   185    27    28    1
   186   170   169    1
   187    31    28    1
   188   172   169    1
   189    43    41   ar
   190   217   218    1
   191   169   168    1
   192    28    29    1
   193   167   166   ar
   194   167   165   ar
   195   166   164   ar
   196    42    41   ar
   197    41    40    1
   198    30    29    2
   199   218   219    2
   200   165   163   ar
   201   164   161   ar
   202    40    39    1
   203   163   161   ar
   204   163   162   ar
   205   161   159   ar
   206    39    36    1
   207   162   160   ar
   208   159   158    1
   209   159   160   ar
   210   158   155    1
   211    36    35    1
   212    36    37    1
   213    38    37    2
   214   156   157    2
   215   156   155    1
   216   155   154    1
