@<TRIPOS>MOLECULE
tmp/5w11B01.pdb
 228 222 0 0 0
SMALL
GASTEIGER

@<TRIPOS>ATOM
      1  N        -11.9870  -14.7390    1.5050 N.3    36  ASN36      -0.1225
      2  CA       -11.7390  -16.1070    1.0560 C.3    36  ASN36       0.1785
      3  C        -11.6140  -17.1140    2.1880 C.2    36  ASN36       0.2597
      4  O        -11.7920  -18.3150    1.9440 O.2    36  ASN36      -0.2718
      5  CB       -10.4920  -16.1830    0.1690 C.3    36  ASN36       0.1169
      6  CG       -10.8240  -16.4220   -1.2910 C.2    36  ASN36       0.2627
      7  OD1      -11.8720  -16.0120   -1.7860 O.2    36  ASN36      -0.2716
      8  ND2       -9.9410  -17.1360   -1.9750 N.am   36  ASN36      -0.0877
      9  N        -11.2830  -16.6660    3.3950 N.am   37  TRP37      -0.1962
     10  CA       -11.2220  -17.5310    4.5600 C.3    37  TRP37       0.1771
     11  C        -12.5740  -17.7110    5.2380 C.2    37  TRP37       0.2619
     12  O        -12.7230  -18.6290    6.0490 O.2    37  TRP37      -0.2715
     13  CB       -10.2000  -16.9740    5.5670 C.3    37  TRP37       0.0590
     14  CG        -8.7720  -17.3760    5.2630 C.ar   37  TRP37       0.0006
     15  CD1       -8.0340  -18.3280    5.9050 C.ar   37  TRP37       0.0946
     16  CD2       -7.9250  -16.8330    4.2440 C.ar   37  TRP37       0.0152
     17  NE1       -6.7810  -18.4230    5.3360 N.ar   37  TRP37      -0.2442
     18  CE2       -6.6890  -17.5140    4.3170 C.ar   37  TRP37       0.0810
     19  CE3       -8.0910  -15.8460    3.2720 C.ar   37  TRP37       0.0012
     20  CZ2       -5.6230  -17.2280    3.4610 C.ar   37  TRP37       0.0191
     21  CZ3       -7.0260  -15.5660    2.4210 C.ar   37  TRP37       0.0001
     22  CH2       -5.8160  -16.2590    2.5220 C.ar   37  TRP37       0.0015
     23  N        -13.5600  -16.8830    4.9010 N.am   38  ARG38      -0.1977
     24  CA       -14.8550  -16.9080    5.5590 C.3    38  ARG38       0.1597
     25  C        -15.7370  -18.0500    5.0530 C.2    38  ARG38       0.2287
     26  O        -15.4940  -18.6710    4.0100 O.2    38  ARG38      -0.2864
     27  CB       -15.5800  -15.5750    5.3560 C.3    38  ARG38       0.0334
     28  CG       -14.9040  -14.4100    6.0680 C.3    38  ARG38       0.0492
     29  CD       -15.5710  -13.0760    5.7490 C.3    38  ARG38       0.2205
     30  NE       -14.8070  -11.9630    6.3160 N.pl3  38  ARG38      -0.0865
     31  CZ       -14.9490  -11.4880    7.5530 C.cat  38  ARG38       0.5346
     32  NH1      -15.8580  -12.0090    8.3870 N.pl3  38  ARG38       0.1354
     33  NH2      -14.1770  -10.4800    7.9530 N.pl3  38  ARG38       0.1354
     34  N        -19.8620  -22.9000   -1.0750 N.3    50  TYR50      -0.1241
     35  CA       -18.5220  -23.3820   -1.3610 C.3    50  TYR50       0.1605
     36  C        -18.0650  -24.2490   -0.2030 C.2    50  TYR50       0.2264
     37  O        -18.2850  -23.8980    0.9610 O.2    50  TYR50      -0.2867
     38  CB       -17.5730  -22.2080   -1.5540 C.3    50  TYR50       0.0534
     39  CG       -16.1670  -22.5940   -1.9360 C.ar   50  TYR50      -0.0201
     40  CD1      -15.8150  -22.7990   -3.2800 C.ar   50  TYR50      -0.0009
     41  CD2      -15.1830  -22.7250   -0.9650 C.ar   50  TYR50      -0.0009
     42  CE1      -14.5400  -23.1460   -3.6230 C.ar   50  TYR50       0.0417
     43  CE2      -13.8960  -23.0490   -1.3060 C.ar   50  TYR50       0.0417
     44  CZ       -13.5800  -23.2660   -2.6230 C.ar   50  TYR50       0.1957
     45  OH       -12.2940  -23.6030   -2.9310 O.3    50  TYR50      -0.2866
     46  N        -14.8770  -27.3810    0.7890 N.3    52  GLY52      -0.1225
     47  CA       -13.6680  -28.0090    0.3010 C.3    52  GLY52       0.1811
     48  C        -13.0890  -27.1070   -0.7680 C.2    52  GLY52       0.2280
     49  O        -12.7780  -25.9350   -0.5220 O.2    52  GLY52      -0.2866
     50  N        -11.1740  -20.0430   15.7740 N.3    80  THR80      -0.1203
     51  CA       -11.2210  -20.6770   14.4650 C.3    80  THR80       0.1994
     52  C        -10.0670  -20.2440   13.5690 C.2    80  THR80       0.2617
     53  O         -9.5000  -21.0780   12.8570 O.2    80  THR80      -0.2717
     54  CB       -12.5500  -20.3640   13.7730 C.3    80  THR80       0.1784
     55  OG1      -13.6330  -20.7530   14.6230 O.3    80  THR80      -0.2211
     56  CG2      -12.6530  -21.1110   12.4320 C.3    80  THR80       0.0376
     57  N         -9.6730  -18.9700   13.6110 N.am   81  TYR81      -0.1975
     58  CA        -8.6330  -18.4770   12.7180 C.3    81  TYR81       0.1639
     59  C         -7.2990  -18.1940   13.4030 C.2    81  TYR81       0.2290
     60  O         -6.3220  -17.8920   12.7050 O.2    81  TYR81      -0.2864
     61  CB        -9.1230  -17.2090   11.9970 C.3    81  TYR81       0.0560
     62  CG       -10.2820  -17.5050   11.0670 C.ar   81  TYR81      -0.0198
     63  CD1      -10.0830  -18.2460    9.9100 C.ar   81  TYR81      -0.0009
     64  CD2      -11.5910  -17.0990   11.3810 C.ar   81  TYR81      -0.0009
     65  CE1      -11.1290  -18.5430    9.0600 C.ar   81  TYR81       0.0417
     66  CE2      -12.6480  -17.3960   10.5430 C.ar   81  TYR81       0.0417
     67  CZ       -12.4130  -18.1170    9.3780 C.ar   81  TYR81       0.1957
     68  OH       -13.4410  -18.4200    8.5230 O.3    81  TYR81      -0.2866
     69  N        -10.1400  -27.2670   10.4930 N.3   102  THR102     -0.1203
     70  CA        -8.7610  -26.8440   10.6670 C.3   102  THR102      0.1994
     71  C         -8.4690  -25.7330    9.6810 C.2   102  THR102      0.2618
     72  O         -8.5960  -25.9330    8.4670 O.2   102  THR102     -0.2717
     73  CB        -7.8090  -28.0090   10.4550 C.3   102  THR102      0.1784
     74  OG1       -8.0400  -28.9920   11.4750 O.3   102  THR102     -0.2211
     75  CG2       -6.3800  -27.5070   10.5090 C.3   102  THR102      0.0376
     76  N         -8.0890  -24.5670   10.2040 N.am  103  ASN103     -0.1960
     77  CA        -7.8060  -23.3870    9.4000 C.3   103  ASN103      0.1819
     78  C         -6.3150  -23.2390    9.1350 C.2   103  ASN103      0.2621
     79  O         -5.4970  -23.3840   10.0460 O.2   103  ASN103     -0.2715
     80  CB        -8.3070  -22.1240   10.0910 C.3   103  ASN103      0.1195
     81  CG        -7.8920  -20.8700    9.3530 C.2   103  ASN103      0.2630
     82  OD1       -8.4210  -20.5750    8.2870 O.2   103  ASN103     -0.2716
     83  ND2       -6.9150  -20.1510    9.8960 N.am  103  ASN103     -0.0877
     84  N         -5.9690  -22.9190    7.8950 N.am  104  ILE104     -0.1977
     85  CA        -4.5790  -22.7250    7.4980 C.3   104  ILE104      0.1596
     86  C         -4.3770  -21.2580    7.1450 C.2   104  ILE104      0.2287
     87  O         -5.0530  -20.7240    6.2560 O.2   104  ILE104     -0.2864
     88  CB        -4.1850  -23.6200    6.3110 C.3   104  ILE104      0.0276
     89  CG1       -4.5020  -25.1010    6.5690 C.3   104  ILE104      0.0022
     90  CG2       -2.6980  -23.4410    6.0070 C.3   104  ILE104      0.0022
     91  CD1       -3.9240  -25.6460    7.8630 C.3   104  ILE104      0.0001
     92  N         -5.2200  -13.9440    5.9180 N.3   107  ARG107     -0.1245
     93  CA        -4.9130  -12.6590    5.3260 C.3   107  ARG107      0.1563
     94  C         -5.8700  -11.6800    5.9800 C.2   107  ARG107      0.2260
     95  O         -7.0580  -11.9850    6.1210 O.2   107  ARG107     -0.2867
     96  CB        -5.0670  -12.6920    3.8020 C.3   107  ARG107      0.0307
     97  CG        -4.8460  -11.3470    3.1090 C.3   107  ARG107      0.0489
     98  CD        -4.5490  -11.5090    1.6070 C.3   107  ARG107      0.2205
     99  NE        -5.7310  -11.7770    0.7940 N.pl3 107  ARG107     -0.0865
    100  CZ        -5.9040  -12.8780    0.0610 C.cat 107  ARG107      0.5346
    101  NH1       -4.9800  -13.8230    0.0350 N.pl3 107  ARG107      0.1354
    102  NH2       -7.0120  -13.0370   -0.6450 N.pl3 107  ARG107      0.1354
    103  N         -9.9620   -7.9650   -2.6800 N.3   171  TYR171     -0.1241
    104  CA        -8.5190   -8.1800   -2.7270 C.3   171  TYR171      0.1605
    105  C         -8.0040   -8.1570   -4.1650 C.2   171  TYR171      0.2264
    106  O         -8.7310   -8.4390   -5.1210 O.2   171  TYR171     -0.2867
    107  CB        -8.1310   -9.5040   -2.0720 C.3   171  TYR171      0.0534
    108  CG        -6.6320   -9.7180   -2.0170 C.ar  171  TYR171     -0.0201
    109  CD1       -5.8250   -8.9240   -1.2030 C.ar  171  TYR171     -0.0009
    110  CD2       -6.0170  -10.6780   -2.8150 C.ar  171  TYR171     -0.0009
    111  CE1       -4.4500   -9.1030   -1.1610 C.ar  171  TYR171      0.0417
    112  CE2       -4.6310  -10.8700   -2.7740 C.ar  171  TYR171      0.0417
    113  CZ        -3.8590  -10.0800   -1.9480 C.ar  171  TYR171      0.1957
    114  OH        -2.5040  -10.2640   -1.9010 O.3   171  TYR171     -0.2866
    115  N         -3.6840   -8.3420   -6.0860 N.3   173  ASP173     -0.1239
    116  CA        -2.2530   -8.0730   -5.9350 C.3   173  ASP173      0.1674
    117  C         -1.5730   -8.3160   -7.2700 C.2   173  ASP173      0.2266
    118  O         -2.2350   -8.4550   -8.3030 O.2   173  ASP173     -0.2867
    119  CB        -1.6310   -8.8740   -4.7780 C.3   173  ASP173      0.1410
    120  CG        -1.5750  -10.3690   -5.0310 C.2   173  ASP173      0.3668
    121  OD1       -1.7420  -10.8400   -6.1820 O.co2 173  ASP173     -0.2456
    122  OD2       -1.3400  -11.0830   -4.0360 O.co2 173  ASP173     -0.2456
    123  N         -4.4400  -12.8900   -8.7630 N.3   177  PRO177     -0.2116
    124  CA        -4.8900  -14.2140   -8.3170 C.3   177  PRO177      0.1372
    125  C         -6.2670  -14.5720   -8.8410 C.2   177  PRO177      0.2244
    126  O         -7.1970  -13.7600   -8.8210 O.2   177  PRO177     -0.2868
    127  CB        -4.9050  -14.0890   -6.7890 C.3   177  PRO177      0.0268
    128  CG        -5.0070  -12.6070   -6.5280 C.3   177  PRO177      0.0207
    129  CD        -4.2500  -11.9560   -7.6420 C.3   177  PRO177      0.0892
    130  N         -7.7230  -17.3350   -7.5260 N.3   179  ASP179     -0.1239
    131  CA        -8.2790  -18.1580   -6.4640 C.3   179  ASP179      0.1674
    132  C         -9.3200  -17.4280   -5.6190 C.2   179  ASP179      0.2266
    133  O         -9.9060  -18.0440   -4.7210 O.2   179  ASP179     -0.2867
    134  CB        -7.1580  -18.6660   -5.5610 C.3   179  ASP179      0.1410
    135  CG        -6.5570  -17.5630   -4.6780 C.2   179  ASP179      0.3668
    136  OD1       -6.3940  -16.4110   -5.1400 O.co2 179  ASP179     -0.2456
    137  OD2       -6.2310  -17.8570   -3.5090 O.co2 179  ASP179     -0.2456
    138  N        -12.8220  -16.1990   -4.5860 N.3   181  LYS181     -0.1245
    139  CA       -14.1410  -16.7400   -4.8780 C.3   181  LYS181      0.1561
    140  C        -15.1180  -15.6610   -5.3320 C.2   181  LYS181      0.2260
    141  O        -16.1230  -15.9700   -5.9840 O.2   181  LYS181     -0.2867
    142  CB       -14.6790  -17.4940   -3.6540 C.3   181  LYS181      0.0271
    143  CG       -14.0330  -18.8860   -3.5040 C.3   181  LYS181      0.0035
    144  CD       -14.3280  -19.5040   -2.1440 C.3   181  LYS181      0.0206
    145  CE       -13.3950  -18.9700   -1.0900 C.3   181  LYS181      0.1093
    146  NZ       -13.2800  -19.8570    0.0860 N.3   181  LYS181     -0.1314
    147  N         -4.1080  -28.0400   -2.6620 N.3   198  ASP198     -0.1239
    148  CA        -4.7200  -27.2860   -1.5740 C.3   198  ASP198      0.1674
    149  C         -6.1860  -27.6970   -1.4580 C.2   198  ASP198      0.2266
    150  O         -7.0040  -27.3680   -2.3260 O.2   198  ASP198     -0.2867
    151  CB        -4.5770  -25.7770   -1.8090 C.3   198  ASP198      0.1410
    152  CG        -4.9840  -24.9410   -0.5940 C.2   198  ASP198      0.3668
    153  OD1       -5.7380  -25.4560    0.2770 O.co2 198  ASP198     -0.2456
    154  OD2       -4.5690  -23.7520   -0.5320 O.co2 198  ASP198     -0.2456
    155  N         -8.5520  -26.5710    0.1160 N.3   200  ASN200     -0.1225
    156  CA        -9.5200  -25.4940    0.2900 C.3   200  ASN200      0.1785
    157  C         -9.6490  -24.5660   -0.9110 C.2   200  ASN200      0.2597
    158  O        -10.5270  -23.6960   -0.9080 O.2   200  ASN200     -0.2718
    159  CB        -9.1340  -24.6490    1.5010 C.3   200  ASN200      0.1169
    160  CG        -9.1430  -25.4400    2.7770 C.2   200  ASN200      0.2627
    161  OD1      -10.1970  -25.7890    3.2910 O.2   200  ASN200     -0.2716
    162  ND2       -7.9580  -25.7130    3.3120 N.am  200  ASN200     -0.0877
    163  N         -8.7990  -24.7060   -1.9220 N.am  201  ALA201     -0.1979
    164  CA        -8.6720  -23.6740   -2.9350 C.3   201  ALA201      0.1597
    165  C         -8.8990  -24.2380   -4.3310 C.2   201  ALA201      0.2287
    166  O         -8.7520  -25.4390   -4.5820 O.2   201  ALA201     -0.2864
    167  CB        -7.2930  -22.9950   -2.8600 C.3   201  ALA201      0.0319
    168  N          0.4910  -18.9070  -10.6000 N.3   247  TYR247     -0.1241
    169  CA        -0.3390  -20.0380  -11.0100 C.3   247  TYR247      0.1605
    170  C         -0.8800  -19.8040  -12.4230 C.2   247  TYR247      0.2264
    171  O         -2.0820  -19.6730  -12.6580 O.2   247  TYR247     -0.2867
    172  CB        -1.4620  -20.2860  -10.0040 C.3   247  TYR247      0.0534
    173  CG        -1.0240  -20.6360   -8.5920 C.ar  247  TYR247     -0.0201
    174  CD1       -0.6760  -19.6410   -7.6890 C.ar  247  TYR247     -0.0009
    175  CD2       -0.9830  -21.9630   -8.1530 C.ar  247  TYR247     -0.0009
    176  CE1       -0.2890  -19.9460   -6.3840 C.ar  247  TYR247      0.0417
    177  CE2       -0.6000  -22.2830   -6.8420 C.ar  247  TYR247      0.0417
    178  CZ        -0.2550  -21.2640   -5.9600 C.ar  247  TYR247      0.1957
    179  OH         0.1310  -21.5240   -4.6480 O.3   247  TYR247     -0.2866
    180  N          1.1640  -17.5490    5.6490 N.3   371  TRP371     -0.1227
    181  CA         0.7830  -18.5360    4.6430 C.3   371  TRP371      0.1737
    182  C          1.9810  -19.3960    4.2920 C.2   371  TRP371      0.2595
    183  O          3.1260  -19.0180    4.5330 O.2   371  TRP371     -0.2718
    184  CB         0.2400  -17.8830    3.3690 C.3   371  TRP371      0.0564
    185  CG         1.0880  -16.7510    2.8520 C.ar  371  TRP371      0.0003
    186  CD1        1.2360  -15.5110    3.4190 C.ar  371  TRP371      0.0946
    187  CD2        1.9150  -16.7520    1.6750 C.ar  371  TRP371      0.0152
    188  NE1        2.0950  -14.7440    2.6660 N.ar  371  TRP371     -0.2442
    189  CE2        2.5270  -15.4790    1.5930 C.ar  371  TRP371      0.0810
    190  CE3        2.1930  -17.6960    0.6870 C.ar  371  TRP371      0.0012
    191  CZ2        3.3880  -15.1290    0.5550 C.ar  371  TRP371      0.0191
    192  CZ3        3.0560  -17.3450   -0.3450 C.ar  371  TRP371      0.0001
    193  CH2        3.6410  -16.0680   -0.4020 C.ar  371  TRP371      0.0015
    194  N          1.6950  -20.5430    3.6900 N.am  372  ASP372     -0.1960
    195  CA         2.6930  -21.3690    3.0300 C.3   372  ASP372      0.1840
    196  C          2.4140  -21.3480    1.5380 C.2   372  ASP372      0.2622
    197  O          1.4300  -20.7690    1.0870 O.2   372  ASP372     -0.2715
    198  CB         2.7350  -22.7950    3.6040 C.3   372  ASP372      0.1450
    199  CG         1.3850  -23.5170    3.5790 C.2   372  ASP372      0.3671
    200  OD1        0.4240  -23.0510    2.9470 O.co2 372  ASP372     -0.2456
    201  OD2        1.2960  -24.5770    4.2310 O.co2 372  ASP372     -0.2456
    202  N          3.3030  -21.9440    0.7620 N.am  373  ASP373     -0.1957
    203  CA         3.3590  -21.6960   -0.6770 C.3   373  ASP373      0.1840
    204  C          3.1050  -22.9980   -1.4270 C.2   373  ASP373      0.2622
    205  O          3.9930  -23.8550   -1.5290 O.2   373  ASP373     -0.2715
    206  CB         4.7090  -21.0820   -1.0350 C.3   373  ASP373      0.1450
    207  CG         4.9270  -20.9350   -2.5300 C.2   373  ASP373      0.3671
    208  OD1        4.0000  -21.1730   -3.3320 O.co2 373  ASP373     -0.2456
    209  OD2        6.0530  -20.5530   -2.8940 O.co2 373  ASP373     -0.2456
    210  N          1.9040  -23.1070   -2.0010 N.am  374  HIS374     -0.1973
    211  CA         1.4780  -24.2930   -2.7330 C.3   374  HIS374      0.1656
    212  C          2.0370  -24.3410   -4.1490 C.2   374  HIS374      0.2291
    213  O          1.7750  -25.3090   -4.8750 O.2   374  HIS374     -0.2864
    214  CB        -0.0550  -24.3800   -2.7430 C.3   374  HIS374      0.0771
    215  CG        -0.6400  -24.6780   -1.3880 C.ar  374  HIS374      0.0820
    216  ND1       -0.9580  -23.6900   -0.4790 N.ar  374  HIS374     -0.2267
    217  CD2       -0.9450  -25.8520   -0.7830 C.ar  374  HIS374      0.1154
    218  CE1       -1.4360  -24.2430    0.6230 C.ar  374  HIS374      0.1986
    219  NE2       -1.4440  -25.5520    0.4640 N.ar  374  HIS374     -0.2212
    220  N          2.5570  -27.7730    7.5240 N.3   411  GLU411     -0.1245
    221  CA         1.3080  -27.7490    8.2700 C.3   411  GLU411      0.1567
    222  C          1.2990  -28.8350    9.3370 C.2   411  GLU411      0.2260
    223  O          0.7740  -28.6260   10.4390 O.2   411  GLU411     -0.2867
    224  CB         0.1230  -27.9250    7.3200 C.3   411  GLU411      0.0388
    225  CG        -0.2480  -26.6640    6.5640 C.3   411  GLU411      0.1160
    226  CD        -0.9170  -26.9520    5.2220 C.2   411  GLU411      0.3649
    227  OE1       -1.4480  -28.0690    5.0190 O.co2 411  GLU411     -0.2457
    228  OE2       -0.8930  -26.0560    4.3550 O.co2 411  GLU411     -0.2457
@<TRIPOS>BOND
     1   171   170    2
     2   170   169    1
     3   169   168    1
     4   169   172    1
     5   172   173    1
     6   125   126    2
     7   125   124    1
     8   123   124    1
     9   123   129    1
    10   173   175   ar
    11   173   174   ar
    12   124   127    1
    13   118   117    2
    14   175   177   ar
    15   174   176   ar
    16   129   128    1
    17   130   131    1
    18   117   116    1
    19   177   178   ar
    20   127   128    1
    21   131   132    1
    22   131   134    1
    23   176   178   ar
    24   121   120   ar
    25   115   116    1
    26   141   140    2
    27   178   179    1
    28   116   119    1
    29   132   133    2
    30   134   135    1
    31   140   139    1
    32   136   135   ar
    33   106   105    2
    34   120   119    1
    35   120   122   ar
    36   139   138    1
    37   139   142    1
    38   213   212    2
    39   135   137   ar
    40   166   165    2
    41   165   164    1
    42   105   104    1
    43   212   211    1
    44   142   143    1
    45    42    40   ar
    46    42    44   ar
    47   143   144    1
    48   208   207   ar
    49    40    39   ar
    50   164   167    1
    51   164   163    1
    52    45    44    1
    53   209   207   ar
    54   110   112   ar
    55   110   108   ar
    56   112   113   ar
    57   214   211    1
    58   214   215    1
    59   211   210    1
    60   104   103    1
    61   104   107    1
    62   147   148    1
    63    44    43   ar
    64   207   206    1
    65   150   149    2
    66   144   145    1
    67   107   108    1
    68   108   109   ar
    69   210   204   am
    70     8     6   am
    71   113   114    1
    72   113   111   ar
    73    39    38    1
    74    39    41   ar
    75   163   157   am
    76   151   148    1
    77   151   152    1
    78     7     6    2
    79   148   149    1
    80    38    35    1
    81   205   204    2
    82   204   203    1
    83   215   217   ar
    84   215   216   ar
    85    35    34    1
    86    35    36    1
    87    43    41   ar
    88     6     5    1
    89   109   111   ar
    90   145   146    1
    91   206   203    1
    92   157   158    2
    93   157   156    1
    94   217   219   ar
    95    48    49    2
    96    48    47    1
    97   203   202    1
    98   102   100    1
    99   152   154   ar
   100   152   153   ar
   101   216   218   ar
   102   193   192   ar
   103   193   191   ar
   104   192   190   ar
   105    36    37    2
   106   101   100    1
   107   100    99    2
   108   155   156    1
   109     5     2    1
   110   156   159    1
   111    47    46    1
   112   219   218   ar
   113   191   189   ar
   114   190   187   ar
   115   202   196   am
   116    99    98    1
   117     2     1    1
   118     2     3    1
   119   197   196    2
   120   159   160    1
   121   196   195    1
   122   189   187   ar
   123   189   188   ar
   124    98    97    1
   125   187   185   ar
   126     4     3    2
   127     3     9   am
   128    21    22   ar
   129    21    19   ar
   130    22    20   ar
   131   188   186   ar
   132   160   161    2
   133   160   162   am
   134   185   184    1
   135   185   186   ar
   136   200   199   ar
   137   195   198    1
   138   195   194    1
   139    97    96    1
   140    19    16   ar
   141   184   181    1
   142     9    10    1
   143    20    18   ar
   144   199   198    1
   145   199   201   ar
   146   194   182   am
   147    96    93    1
   148    26    25    2
   149    16    18   ar
   150    16    14   ar
   151   182   183    2
   152   182   181    1
   153    18    17   ar
   154   228   226   ar
   155    10    11    1
   156    10    13    1
   157   181   180    1
   158    23    11   am
   159    23    24    1
   160   227   226   ar
   161    25    24    1
   162   226   225    1
   163    11    12    2
   164    14    13    1
   165    14    15   ar
   166    93    92    1
   167    93    94    1
   168    17    15   ar
   169    27    24    1
   170    27    28    1
   171    29    28    1
   172    29    30    1
   173    94    95    2
   174    90    88    1
   175    87    86    2
   176    88    89    1
   177    88    85    1
   178    30    31    2
   179   225   224    1
   180    89    91    1
   181    86    85    1
   182   224   221    1
   183    85    84    1
   184   220   221    1
   185    31    33    1
   186    31    32    1
   187    84    78   am
   188   221   222    1
   189    82    81    2
   190    72    71    2
   191    68    67    1
   192    65    67   ar
   193    65    63   ar
   194    78    77    1
   195    78    79    2
   196   222   223    2
   197    81    83   am
   198    81    80    1
   199    67    66   ar
   200    77    80    1
   201    77    76    1
   202    71    76   am
   203    71    70    1
   204    63    62   ar
   205    73    75    1
   206    73    70    1
   207    73    74    1
   208    69    70    1
   209    66    64   ar
   210    62    64   ar
   211    62    61    1
   212    61    58    1
   213    56    54    1
   214    60    59    2
   215    58    59    1
   216    58    57    1
   217    53    52    2
   218    52    57   am
   219    52    51    1
   220    54    51    1
   221    54    55    1
   222    51    50    1
