@<TRIPOS>MOLECULE
tmp/5w11B00.pdb
 83 80 0 0 0
SMALL
GASTEIGER

@<TRIPOS>ATOM
      1  N         23.9650  -11.5100   -1.0860 N.3   269  GLY269     -0.1210
      2  CA        25.3280  -11.8960   -0.7590 C.3   269  GLY269      0.1956
      3  C         25.7410  -11.8310    0.6990 C.2   269  GLY269      0.2612
      4  O         26.9030  -12.1160    0.9980 O.2   269  GLY269     -0.2717
      5  N         24.8750  -11.4500    1.6140 N.am  270  ASN270     -0.1960
      6  CA        25.2460  -11.3830    3.0300 C.3   270  ASN270      0.1819
      7  C         24.4310  -12.4170    3.8040 C.2   270  ASN270      0.2621
      8  O         23.2600  -12.1890    4.1260 O.2   270  ASN270     -0.2715
      9  CB        25.0450   -9.9830    3.5890 C.3   270  ASN270      0.1195
     10  CG        25.7160   -9.8010    4.9370 C.2   270  ASN270      0.2630
     11  OD1       25.8180  -10.7460    5.7310 O.2   270  ASN270     -0.2716
     12  ND2       26.1720   -8.5800    5.2100 N.am  270  ASN270     -0.0877
     13  N         25.0640  -13.5380    4.1230 N.am  271  LYS271     -0.1963
     14  CA        24.3880  -14.6690    4.7470 C.3   271  LYS271      0.1728
     15  C         24.3910  -14.6010    6.2690 C.2   271  LYS271      0.2617
     16  O         23.8230  -15.4930    6.9060 O.2   271  LYS271     -0.2715
     17  CB        25.0290  -15.9880    4.2890 C.3   271  LYS271      0.0311
     18  CG        25.0300  -16.1990    2.7970 C.3   271  LYS271      0.0038
     19  CD        25.3370  -17.6520    2.4540 C.3   271  LYS271      0.0206
     20  CE        25.4160  -17.8470    0.9340 C.3   271  LYS271      0.1093
     21  NZ        25.5330  -19.2700    0.5330 N.3   271  LYS271     -0.1314
     22  N         25.0260  -13.5850    6.8660 N.am  272  THR272     -0.1937
     23  CA        25.0170  -13.4020    8.3180 C.3   272  THR272      0.2028
     24  C         24.2710  -12.1470    8.7490 C.2   272  THR272      0.2642
     25  O         24.3490  -11.7620    9.9180 O.2   272  THR272     -0.2714
     26  CB        26.4430  -13.3620    8.8980 C.3   272  THR272      0.1808
     27  OG1       27.1660  -12.2190    8.4020 O.3   272  THR272     -0.2208
     28  CG2       27.1970  -14.6350    8.5740 C.3   272  THR272      0.0379
     29  N         23.5620  -11.4900    7.8380 N.am  273  PHE273     -0.1973
     30  CA        22.8850  -10.2640    8.2280 C.3   273  PHE273      0.1639
     31  C         21.5690  -10.5490    8.9470 C.2   273  PHE273      0.2290
     32  O         21.2740   -9.9290    9.9770 O.2   273  PHE273     -0.2864
     33  CB        22.6660   -9.3850    6.9980 C.3   273  PHE273      0.0560
     34  CG        22.0100   -8.0680    7.3020 C.ar  273  PHE273     -0.0200
     35  CD1       22.6970   -7.0840    7.9960 C.ar  273  PHE273     -0.0042
     36  CD2       20.7110   -7.8070    6.8810 C.ar  273  PHE273     -0.0042
     37  CE1       22.0990   -5.8560    8.2700 C.ar  273  PHE273     -0.0003
     38  CE2       20.1040   -6.5810    7.1390 C.ar  273  PHE273     -0.0003
     39  CZ        20.8100   -5.5990    7.8390 C.ar  273  PHE273     -0.0000
     40  N         23.1060  -10.3960   12.8060 N.3   279  THR279     -0.1218
     41  CA        23.0610   -8.9540   13.0160 C.3   279  THR279      0.1862
     42  C         21.6380   -8.4680   13.2930 C.2   279  THR279      0.2287
     43  O         21.3740   -7.7790   14.2860 O.2   279  THR279     -0.2866
     44  CB        23.6470   -8.2680   11.7850 C.3   279  THR279      0.1770
     45  OG1       24.9560   -8.8010   11.5390 O.3   279  THR279     -0.2211
     46  CG2       23.7080   -6.7480   11.9710 C.3   279  THR279      0.0375
     47  N         20.2580   -0.1790   12.5030 N.3   314  ILE314     -0.1231
     48  CA        21.0750   -1.0150   11.6320 C.3   314  ILE314      0.1678
     49  C         20.7180   -0.6750   10.1860 C.2   314  ILE314      0.2434
     50  O         19.6390   -1.0550    9.7140 O.2   314  ILE314     -0.2733
     51  CB        20.8600   -2.5090   11.9150 C.3   314  ILE314      0.0265
     52  CG1       21.1690   -2.8170   13.3790 C.3   314  ILE314      0.0019
     53  CG2       21.7330   -3.3880   11.0000 C.3   314  ILE314      0.0020
     54  CD1       20.6350   -4.1530   13.8130 C.3   314  ILE314      0.0001
     55  N         21.5840    0.0070    9.4440 N.am  315  PRO315     -0.2729
     56  CA        21.3300    0.1920    8.0140 C.3   315  PRO315      0.1401
     57  C         21.1760   -1.1510    7.3200 C.2   315  PRO315      0.2269
     58  O         21.7440   -2.1550    7.7560 O.2   315  PRO315     -0.2865
     59  CB        22.5890    0.9120    7.5210 C.3   315  PRO315      0.0296
     60  CG        23.2030    1.5260    8.7440 C.3   315  PRO315      0.0237
     61  CD        22.8580    0.6000    9.8760 C.3   315  PRO315      0.0939
     62  N         21.8220   -4.1250    4.8700 N.3   317  SER317     -0.1202
     63  CA        23.1220   -4.6690    4.4950 C.3   317  SER317      0.2020
     64  C         23.4700   -4.3510    3.0510 C.2   317  SER317      0.2618
     65  O         22.6040   -4.3590    2.1720 O.2   317  SER317     -0.2717
     66  CB        23.1420   -6.1840    4.6760 C.3   317  SER317      0.2103
     67  OG        22.2950   -6.7840    3.7180 O.3   317  SER317     -0.2182
     68  N         24.7530   -4.0770    2.8120 N.am  318  GLU318     -0.1979
     69  CA        25.2540   -3.8680    1.4590 C.3   318  GLU318      0.1602
     70  C         25.0730   -5.1230    0.6180 C.2   318  GLU318      0.2287
     71  O         25.3400   -6.2410    1.0710 O.2   318  GLU318     -0.2864
     72  CB        26.7420   -3.5020    1.4840 C.3   318  GLU318      0.0415
     73  CG        27.0740   -2.0170    1.2860 C.3   318  GLU318      0.1163
     74  CD        26.6430   -1.4630   -0.0650 C.2   318  GLU318      0.3649
     75  OE1       25.9570   -0.4170   -0.0600 O.co2 318  GLU318     -0.2457
     76  OE2       26.9920   -2.0530   -1.1180 O.co2 318  GLU318     -0.2457
     77  N         26.6000   -7.4220   -2.0040 N.3   320  THR320     -0.1218
     78  CA        27.9740   -7.7260   -2.3820 C.3   320  THR320      0.1862
     79  C         28.0750   -8.4500   -3.7160 C.2   320  THR320      0.2287
     80  O         29.1870   -8.7690   -4.1450 O.2   320  THR320     -0.2866
     81  CB        28.6500   -8.5690   -1.3020 C.3   320  THR320      0.1770
     82  OG1       28.0220   -9.8500   -1.2610 O.3   320  THR320     -0.2211
     83  CG2       28.5260   -7.9020    0.0640 C.3   320  THR320      0.0375
@<TRIPOS>BOND
     1    80    79    2
     2    79    78    1
     3    78    77    1
     4    78    81    1
     5    81    82    1
     6    81    83    1
     7    76    74   ar
     8     1     2    1
     9     2     3    1
    10    74    75   ar
    11    74    73    1
    12    21    20    1
    13    70    71    2
    14    70    69    1
    15     3     4    2
    16     3     5   am
    17    20    19    1
    18    73    72    1
    19    69    72    1
    20    69    68    1
    21     5     6    1
    22    65    64    2
    23    19    18    1
    24    18    17    1
    25    68    64   am
    26     6     9    1
    27     6     7    1
    28    64    63    1
    29     9    10    1
    30    67    66    1
    31     7    13   am
    32     7     8    2
    33    13    14    1
    34    17    14    1
    35    63    66    1
    36    63    62    1
    37    14    15    1
    38    10    12   am
    39    10    11    2
    40    15    22   am
    41    15    16    2
    42    22    23    1
    43    36    38   ar
    44    36    34   ar
    45    33    34    1
    46    33    30    1
    47    38    39   ar
    48    34    35   ar
    49    57    58    2
    50    57    56    1
    51    59    56    1
    52    59    60    1
    53    29    30    1
    54    29    24   am
    55    39    37   ar
    56    35    37   ar
    57    56    55    1
    58    30    31    1
    59    23    24    1
    60    23    26    1
    61    27    26    1
    62    28    26    1
    63    60    61    1
    64    24    25    2
    65    31    32    2
    66    55    61    1
    67    55    49   am
    68    50    49    2
    69    49    48    1
    70    53    51    1
    71    45    44    1
    72    48    51    1
    73    48    47    1
    74    44    46    1
    75    44    41    1
    76    51    52    1
    77    40    41    1
    78    41    42    1
    79    42    43    2
    80    52    54    1
