@<TRIPOS>MOLECULE
tmp/5w12D00.pdb
 143 133 0 0 0
SMALL
GASTEIGER

@<TRIPOS>ATOM
      1  N        -15.9570  -17.0140  -67.6140 N.3    62  SER62      -0.1217
      2  CA       -16.1690  -16.5500  -66.2310 C.3    62  SER62       0.1889
      3  C        -15.0020  -16.7860  -65.2950 C.2    62  SER62       0.2288
      4  O        -14.9720  -16.1490  -64.2360 O.2    62  SER62      -0.2866
      5  CB       -17.4660  -17.1240  -65.6010 C.3    62  SER62       0.2089
      6  OG       -18.6030  -16.4580  -66.1470 O.3    62  SER62      -0.2183
      7  N        -13.2440  -13.6980  -63.9700 N.3    65  LYS65      -0.1245
      8  CA       -13.6950  -13.0680  -62.7270 C.3    65  LYS65       0.1561
      9  C        -12.6510  -13.2500  -61.6200 C.2    65  LYS65       0.2260
     10  O        -12.4980  -12.3680  -60.7700 O.2    65  LYS65      -0.2867
     11  CB       -15.0860  -13.5910  -62.3390 C.3    65  LYS65       0.0271
     12  CG       -16.2310  -13.0370  -63.1640 C.3    65  LYS65       0.0035
     13  CD       -17.5620  -13.7020  -62.8550 C.3    65  LYS65       0.0206
     14  CE       -18.6960  -13.1430  -63.7100 C.3    65  LYS65       0.1093
     15  NZ       -18.7670  -13.8470  -65.0150 N.3    65  LYS65      -0.1314
     16  N        -27.7630  -11.6500  -64.4320 N.3   117  LEU117     -0.1231
     17  CA       -26.6010  -12.2780  -65.0910 C.3   117  LEU117      0.1693
     18  C        -25.9680  -11.4210  -66.2120 C.2   117  LEU117      0.2591
     19  O        -24.7460  -11.2500  -66.2180 O.2   117  LEU117     -0.2718
     20  CB       -26.9920  -13.6600  -65.6650 C.3   117  LEU117      0.0284
     21  CG       -25.8290  -14.4670  -66.2560 C.3   117  LEU117      0.0019
     22  CD1      -24.8250  -14.7340  -65.1520 C.3   117  LEU117      0.0001
     23  CD2      -26.3320  -15.7420  -66.8760 C.3   117  LEU117      0.0001
     24  N        -26.7840  -10.9690  -67.1640 N.am  118  GLN118     -0.1979
     25  CA       -26.3370  -10.0540  -68.2490 C.3   118  GLN118      0.1601
     26  C        -26.9610   -8.6530  -68.1340 C.2   118  GLN118      0.2287
     27  O        -27.9500   -8.4470  -67.4180 O.2   118  GLN118     -0.2864
     28  CB       -26.6660  -10.5980  -69.6470 C.3   118  GLN118      0.0394
     29  CG       -26.2400  -12.0410  -69.9520 C.3   118  GLN118      0.0908
     30  CD       -24.7470  -12.2920  -69.8200 C.2   118  GLN118      0.2608
     31  OE1      -23.9410  -11.3670  -69.6730 O.2   118  GLN118     -0.2717
     32  NE2      -24.3710  -13.5650  -69.8630 N.am  118  GLN118     -0.0878
     33  N        -25.8810  -14.2180  -59.2690 N.3   148  TYR148     -0.1241
     34  CA       -24.6370  -14.2840  -60.0680 C.3   148  TYR148      0.1605
     35  C        -24.7730  -13.2930  -61.2080 C.2   148  TYR148      0.2264
     36  O        -25.7850  -13.3500  -61.9370 O.2   148  TYR148     -0.2867
     37  CB       -24.4350  -15.6890  -60.5960 C.3   148  TYR148      0.0534
     38  CG       -23.1430  -15.9090  -61.3500 C.ar  148  TYR148     -0.0201
     39  CD1      -21.8990  -15.7200  -60.7380 C.ar  148  TYR148     -0.0009
     40  CD2      -23.1650  -16.3250  -62.6660 C.ar  148  TYR148     -0.0009
     41  CE1      -20.7240  -15.9160  -61.4280 C.ar  148  TYR148      0.0417
     42  CE2      -21.9950  -16.5450  -63.3650 C.ar  148  TYR148      0.0417
     43  CZ       -20.7940  -16.3350  -62.7600 C.ar  148  TYR148      0.1957
     44  OH       -19.6650  -16.5430  -63.4800 O.3   148  TYR148     -0.2866
     45  N        -22.7610  -10.5960  -64.2120 N.3   150  ASN150     -0.1240
     46  CA       -21.6980   -9.9210  -64.9510 C.3   150  ASN150      0.1653
     47  C        -21.6550   -8.4170  -64.7310 C.2   150  ASN150      0.2266
     48  O        -20.5670   -7.9090  -64.3840 O.2   150  ASN150     -0.2867
     49  CB       -21.7760  -10.2380  -66.4640 C.3   150  ASN150      0.1155
     50  CG       -21.3880  -11.6630  -66.7660 C.2   150  ASN150      0.2627
     51  OD1      -20.5510  -12.2110  -66.0880 O.2   150  ASN150     -0.2716
     52  ND2      -22.0570  -12.2900  -67.7210 N.am  150  ASN150     -0.0877
     53  N        -15.3040  -14.7620  -78.9690 N.3   210  VAL210     -0.1245
     54  CA       -16.1740  -14.0050  -78.0440 C.3   210  VAL210      0.1561
     55  C        -16.4730  -12.6410  -78.6640 C.2   210  VAL210      0.2260
     56  O        -15.5990  -12.0650  -79.2590 O.2   210  VAL210     -0.2867
     57  CB       -15.5130  -13.8470  -76.6540 C.3   210  VAL210      0.0252
     58  CG1      -14.2870  -12.9300  -76.6950 C.3   210  VAL210      0.0019
     59  CG2      -16.5190  -13.3710  -75.6120 C.3   210  VAL210      0.0019
     60  N        -15.8010  -11.5660  -68.2230 N.3   220  TYR220     -0.1241
     61  CA       -15.5560  -12.8010  -68.9780 C.3   220  TYR220      0.1605
     62  C        -14.5490  -12.6820  -70.1470 C.2   220  TYR220      0.2264
     63  O        -14.5510  -13.5260  -71.0370 O.2   220  TYR220     -0.2867
     64  CB       -16.9030  -13.3380  -69.4990 C.3   220  TYR220      0.0534
     65  CG       -17.6810  -12.3640  -70.3770 C.ar  220  TYR220     -0.0201
     66  CD1      -17.3020  -12.1400  -71.7390 C.ar  220  TYR220     -0.0009
     67  CD2      -18.8040  -11.6670  -69.8820 C.ar  220  TYR220     -0.0009
     68  CE1      -18.0340  -11.2590  -72.5510 C.ar  220  TYR220      0.0417
     69  CE2      -19.5180  -10.7760  -70.6950 C.ar  220  TYR220      0.0417
     70  CZ       -19.1300  -10.5740  -72.0160 C.ar  220  TYR220      0.1957
     71  OH       -19.8270   -9.7010  -72.8170 O.3   220  TYR220     -0.2866
     72  N        -23.0550  -25.3920  -59.0440 N.3   285  ASN285     -0.1240
     73  CA       -23.3480  -25.0650  -60.4380 C.3   285  ASN285      0.1653
     74  C        -24.7880  -25.4070  -60.9010 C.2   285  ASN285      0.2266
     75  O        -25.0750  -25.4570  -62.1020 O.2   285  ASN285     -0.2867
     76  CB       -22.2760  -25.6980  -61.3480 C.3   285  ASN285      0.1155
     77  CG       -21.0470  -24.7820  -61.5490 C.2   285  ASN285      0.2627
     78  OD1      -20.7450  -24.4020  -62.6800 O.2   285  ASN285     -0.2716
     79  ND2      -20.3530  -24.4160  -60.4590 N.am  285  ASN285     -0.0877
     80  N        -26.9040  -20.5570  -59.9180 N.3   290  VAL290     -0.1231
     81  CA       -26.2840  -19.8400  -61.0410 C.3   290  VAL290      0.1692
     82  C        -27.2090  -18.7410  -61.5680 C.2   290  VAL290      0.2591
     83  O        -26.7510  -17.6120  -61.8380 O.2   290  VAL290     -0.2718
     84  CB       -25.8460  -20.8390  -62.1730 C.3   290  VAL290      0.0266
     85  CG1      -25.4210  -20.1020  -63.4290 C.3   290  VAL290      0.0020
     86  CG2      -24.6920  -21.7400  -61.6870 C.3   290  VAL290      0.0020
     87  N        -28.4950  -19.0760  -61.7060 N.am  291  MET291     -0.1979
     88  CA       -29.4880  -18.2430  -62.4030 C.3   291  MET291      0.1605
     89  C        -30.4570  -17.4420  -61.5210 C.2   291  MET291      0.2287
     90  O        -31.0220  -16.4540  -61.9910 O.2   291  MET291     -0.2864
     91  CB       -30.3190  -19.1000  -63.3790 C.3   291  MET291      0.0413
     92  CG       -29.5350  -19.8910  -64.4170 C.3   291  MET291      0.0598
     93  SD       -28.4480  -18.8900  -65.4510 S.3   291  MET291     -0.1393
     94  CE       -29.5080  -17.4910  -65.8700 C.3   291  MET291      0.0692
     95  N        -16.0050  -22.4450  -62.5820 N.3   311  THR311     -0.1203
     96  CA       -16.2820  -22.7850  -63.9610 C.3   311  THR311      0.1994
     97  C        -16.3710  -21.5000  -64.7910 C.2   311  THR311      0.2618
     98  O        -16.6010  -20.3660  -64.2620 O.2   311  THR311     -0.2717
     99  CB       -17.5980  -23.5320  -64.1670 C.3   311  THR311      0.1784
    100  OG1      -18.6950  -22.6780  -63.8030 O.3   311  THR311     -0.2211
    101  CG2      -17.6100  -24.8440  -63.4090 C.3   311  THR311      0.0376
    102  N        -16.1970  -21.6940  -66.0900 N.am  312  GLY312     -0.1942
    103  CA       -16.3120  -20.5730  -67.0460 C.3   312  GLY312      0.2014
    104  C        -16.6210  -21.0320  -68.4580 C.2   312  GLY312      0.2640
    105  O        -16.2010  -22.1220  -68.8910 O.2   312  GLY312     -0.2714
    106  N        -17.3460  -20.1870  -69.1840 N.am  313  SER313     -0.1935
    107  CA       -17.7830  -20.4920  -70.5200 C.3   313  SER313      0.2055
    108  C        -17.8900  -19.1780  -71.3020 C.2   313  SER313      0.2644
    109  O        -18.1090  -18.1020  -70.7160 O.2   313  SER313     -0.2714
    110  CB       -19.1490  -21.1560  -70.4290 C.3   313  SER313      0.2130
    111  OG       -19.0650  -22.4850  -69.9560 O.3   313  SER313     -0.2179
    112  N        -17.6320  -19.2760  -72.5990 N.am  314  THR314     -0.1936
    113  CA       -18.0260  -18.2710  -73.6060 C.3   314  THR314      0.2028
    114  C        -18.8250  -19.1360  -74.5410 C.2   314  THR314      0.2642
    115  O        -18.9800  -20.3640  -74.2900 O.2   314  THR314     -0.2714
    116  CB       -16.8080  -17.6300  -74.3200 C.3   314  THR314      0.1808
    117  OG1      -16.0290  -18.6460  -74.9460 O.3   314  THR314     -0.2208
    118  CG2      -15.9530  -16.8890  -73.3610 C.3   314  THR314      0.0379
    119  N        -19.3340  -18.5240  -75.6170 N.am  315  SER315     -0.1949
    120  CA       -20.1080  -19.2390  -76.6210 C.3   315  SER315      0.1924
    121  C        -19.3970  -20.4930  -77.0940 C.2   315  SER315      0.2314
    122  O        -20.0100  -21.5440  -77.2550 O.2   315  SER315     -0.2863
    123  CB       -20.4130  -18.3330  -77.8380 C.3   315  SER315      0.2116
    124  OG       -19.2450  -17.7990  -78.4430 O.3   315  SER315     -0.2180
    125  N        -18.0100  -25.7000  -75.7950 N.3   338  ARG338     -0.1245
    126  CA       -18.6260  -25.8590  -74.4810 C.3   338  ARG338      0.1563
    127  C        -18.8670  -27.3540  -74.2100 C.2   338  ARG338      0.2260
    128  O        -19.1360  -28.0850  -75.1370 O.2   338  ARG338     -0.2867
    129  CB       -19.9770  -25.1270  -74.4000 C.3   338  ARG338      0.0307
    130  CG       -19.8100  -23.6570  -74.1380 C.3   338  ARG338      0.0489
    131  CD       -20.7840  -23.2030  -73.1030 C.3   338  ARG338      0.2205
    132  NE       -21.8430  -22.4070  -73.6430 N.pl3 338  ARG338     -0.0865
    133  CZ       -22.9570  -22.1100  -72.9740 C.cat 338  ARG338      0.5346
    134  NH1      -23.1830  -22.5830  -71.7400 N.pl3 338  ARG338      0.1354
    135  NH2      -23.8690  -21.3410  -73.5620 N.pl3 338  ARG338      0.1354
    136  N        -21.0340  -28.3540  -67.3110 N.3   341  ASN341     -0.1240
    137  CA       -20.2960  -28.1230  -66.1010 C.3   341  ASN341      0.1653
    138  C        -20.1700  -29.3900  -65.2380 C.2   341  ASN341      0.2266
    139  O        -19.1350  -29.5960  -64.6080 O.2   341  ASN341     -0.2867
    140  CB       -20.9320  -26.9930  -65.2750 C.3   341  ASN341      0.1155
    141  CG       -20.7170  -25.6330  -65.8820 C.2   341  ASN341      0.2627
    142  OD1      -19.7880  -25.4200  -66.6560 O.2   341  ASN341     -0.2716
    143  ND2      -21.5800  -24.6910  -65.5250 N.am  341  ASN341     -0.0877
@<TRIPOS>BOND
     1    56    55    2
     2    53    54    1
     3    55    54    1
     4   124   123    1
     5    54    57    1
     6   123   120    1
     7   122   121    2
     8   121   120    1
     9    58    57    1
    10    57    59    1
    11   120   119    1
    12   125   126    1
    13   119   114   am
    14   128   127    2
    15   117   116    1
    16   114   115    2
    17   114   113    1
    18   126   129    1
    19   126   127    1
    20   129   130    1
    21   116   113    1
    22   116   118    1
    23   130   131    1
    24   132   131    1
    25   132   133    2
    26   113   112    1
    27   135   133    1
    28   133   134    1
    29    71    70    1
    30   112   108   am
    31    68    70   ar
    32    68    66   ar
    33    70    69   ar
    34    66    65   ar
    35   108   109    2
    36   108   107    1
    37    63    62    2
    38    69    67   ar
    39   107   110    1
    40   107   106    1
    41   110   111    1
    42    65    67   ar
    43    65    64    1
    44    62    61    1
    45    29    30    1
    46    29    28    1
    47    32    30   am
    48    30    31    2
    49    28    25    1
    50    64    61    1
    51   106   104   am
    52    61    60    1
    53   105   104    2
    54   104   103    1
    55    25    26    1
    56    25    24    1
    57    26    27    2
    58    52    50   am
    59     1     2    1
    60   136   137    1
    61    24    18   am
    62   103   102    1
    63    23    21    1
    64    50    49    1
    65    50    51    2
    66   142   141    2
    67    49    46    1
    68    21    20    1
    69    21    22    1
    70     2     5    1
    71     2     3    1
    72    19    18    2
    73    18    17    1
    74     6     5    1
    75   137   140    1
    76   137   138    1
    77   102    97   am
    78   141   143   am
    79   141   140    1
    80    94    93    1
    81    20    17    1
    82    93    92    1
    83     3     4    2
    84   138   139    2
    85    17    16    1
    86    15    14    1
    87    46    47    1
    88    46    45    1
    89    97    98    2
    90    97    96    1
    91    47    48    2
    92    92    91    1
    93    99    96    1
    94    99   100    1
    95    99   101    1
    96     7     8    1
    97    96    95    1
    98    14    13    1
    99    44    43    1
   100    85    84    1
   101    91    88    1
   102    42    43   ar
   103    42    40   ar
   104    12    13    1
   105    12    11    1
   106    43    41   ar
   107     8    11    1
   108     8     9    1
   109    78    77    2
   110    40    38   ar
   111    88    87    1
   112    88    89    1
   113    84    86    1
   114    84    81    1
   115    75    74    2
   116    90    89    2
   117    36    35    2
   118    83    82    2
   119    87    82   am
   120     9    10    2
   121    82    81    1
   122    77    76    1
   123    77    79   am
   124    41    39   ar
   125    38    39   ar
   126    38    37    1
   127    76    73    1
   128    35    34    1
   129    81    80    1
   130    74    73    1
   131    37    34    1
   132    73    72    1
   133    34    33    1
