@<TRIPOS>MOLECULE
tmp/5w12B00.pdb
 139 128 0 0 0
SMALL
GASTEIGER

@<TRIPOS>ATOM
      1  N         -9.0620  -10.2420  -10.8170 N.3    63  SER63      -0.1217
      2  CA        -9.3010  -11.6870  -10.7800 C.3    63  SER63       0.1889
      3  C        -10.7540  -12.0760  -10.5200 C.2    63  SER63       0.2288
      4  O        -11.0780  -13.2240  -10.7490 O.2    63  SER63      -0.2866
      5  CB        -8.4170  -12.3700   -9.6780 C.3    63  SER63       0.2089
      6  OG        -7.0780  -12.3810  -10.1400 O.3    63  SER63      -0.2183
      7  N        -12.3920  -13.9980  -13.2800 N.3    66  LYS66      -0.1245
      8  CA       -12.3830  -15.4600  -13.2700 C.3    66  LYS66       0.1561
      9  C        -13.7450  -16.0550  -13.0380 C.2    66  LYS66       0.2260
     10  O        -14.0090  -17.1740  -13.5320 O.2    66  LYS66      -0.2867
     11  CB       -11.3290  -16.0390  -12.3050 C.3    66  LYS66       0.0271
     12  CG        -9.8990  -15.5600  -12.5910 C.3    66  LYS66       0.0035
     13  CD        -8.8910  -16.1590  -11.5960 C.3    66  LYS66       0.0206
     14  CE        -7.4470  -15.8540  -12.0400 C.3    66  LYS66       0.1093
     15  NZ        -6.9960  -14.4330  -11.9910 N.3    66  LYS66      -0.1314
     16  N          1.8570  -18.0830  -11.4990 N.3   118  LEU118     -0.1231
     17  CA         0.8150  -17.0280  -11.4260 C.3   118  LEU118      0.1693
     18  C          0.7110  -16.2340  -12.7590 C.2   118  LEU118      0.2591
     19  O         -0.3910  -15.9110  -13.1770 O.2   118  LEU118     -0.2718
     20  CB         1.0530  -16.0830  -10.2440 C.3   118  LEU118      0.0284
     21  CG         0.0900  -14.8490  -10.1600 C.3   118  LEU118      0.0019
     22  CD1       -1.3040  -15.3850   -9.9610 C.3   118  LEU118      0.0001
     23  CD2        0.4100  -13.8790   -9.0230 C.3   118  LEU118      0.0001
     24  N          1.8450  -15.8720  -13.3630 N.am  119  GLN119     -0.1979
     25  CA         1.9250  -15.0490  -14.5920 C.3   119  GLN119      0.1601
     26  C          2.7060  -15.7910  -15.6940 C.2   119  GLN119      0.2287
     27  O          3.5630  -16.6320  -15.4450 O.2   119  GLN119     -0.2864
     28  CB         2.5230  -13.6520  -14.3270 C.3   119  GLN119      0.0394
     29  CG         1.8300  -12.8690  -13.1810 C.3   119  GLN119      0.0908
     30  CD         0.4210  -12.3170  -13.4640 C.2   119  GLN119      0.2608
     31  OE1       -0.1380  -12.5440  -14.5060 O.2   119  GLN119     -0.2717
     32  NE2       -0.1580  -11.5840  -12.5110 N.am  119  GLN119     -0.0878
     33  N         -2.2360  -21.1290   -7.9340 N.3   149  TYR149     -0.1241
     34  CA        -3.1280  -20.1290   -8.5230 C.3   149  TYR149      0.1605
     35  C         -2.4350  -19.4910   -9.7150 C.2   149  TYR149      0.2264
     36  O         -1.2390  -19.0740   -9.6530 O.2   149  TYR149     -0.2867
     37  CB        -3.4910  -19.1020   -7.4520 C.3   149  TYR149      0.0534
     38  CG        -4.4480  -18.0120   -7.8260 C.ar  149  TYR149     -0.0201
     39  CD1       -5.7530  -18.2920   -8.1750 C.ar  149  TYR149     -0.0009
     40  CD2       -4.0350  -16.7110   -7.8730 C.ar  149  TYR149     -0.0009
     41  CE1       -6.6590  -17.2670   -8.4710 C.ar  149  TYR149      0.0417
     42  CE2       -4.9560  -15.6760   -8.1410 C.ar  149  TYR149      0.0417
     43  CZ        -6.2500  -16.0020   -8.4520 C.ar  149  TYR149      0.1957
     44  OH        -7.1670  -15.0440   -8.7600 O.3   149  TYR149     -0.2866
     45  N         -2.8980  -17.4100  -13.7220 N.3   151  ASN151     -0.1240
     46  CA        -3.5660  -16.7540  -14.8650 C.3   151  ASN151      0.1653
     47  C         -3.4290  -17.5530  -16.1380 C.2   151  ASN151      0.2266
     48  O         -4.4090  -17.7590  -16.8100 O.2   151  ASN151     -0.2867
     49  CB        -3.1000  -15.3210  -15.0550 C.3   151  ASN151      0.1155
     50  CG        -3.5620  -14.4280  -13.9500 C.2   151  ASN151      0.2627
     51  OD1       -4.6040  -14.6830  -13.3910 O.2   151  ASN151     -0.2716
     52  ND2       -2.8150  -13.3730  -13.6340 N.am  151  ASN151     -0.0877
     53  N         -5.2280   -0.8370  -16.4460 N.3   211  VAL211     -0.1245
     54  CA        -4.6350   -2.1460  -16.6910 C.3   211  VAL211      0.1561
     55  C         -3.9070   -2.1810  -18.0460 C.2   211  VAL211      0.2260
     56  O         -4.3170   -1.5900  -19.0030 O.2   211  VAL211     -0.2867
     57  CB        -5.6850   -3.2980  -16.6190 C.3   211  VAL211      0.0252
     58  CG1       -6.7480   -3.1980  -17.7220 C.3   211  VAL211      0.0019
     59  CG2       -5.0130   -4.6710  -16.7100 C.3   211  VAL211      0.0019
     60  N         -8.2060  -11.7200  -15.9580 N.3   221  TYR221     -0.1241
     61  CA        -8.3540  -10.5310  -15.1170 C.3   221  TYR221      0.1605
     62  C         -8.8700   -9.3070  -15.8340 C.2   221  TYR221      0.2264
     63  O         -8.7480   -8.1830  -15.3280 O.2   221  TYR221     -0.2867
     64  CB        -7.0120  -10.1630  -14.4020 C.3   221  TYR221      0.0534
     65  CG        -5.8700   -9.9450  -15.3530 C.ar  221  TYR221     -0.0201
     66  CD1       -5.7150   -8.7400  -16.0600 C.ar  221  TYR221     -0.0009
     67  CD2       -4.9330  -10.9630  -15.5700 C.ar  221  TYR221     -0.0009
     68  CE1       -4.6740   -8.5720  -16.9540 C.ar  221  TYR221      0.0417
     69  CE2       -3.9030  -10.7830  -16.4720 C.ar  221  TYR221      0.0417
     70  CZ        -3.7690   -9.5970  -17.1360 C.ar  221  TYR221      0.1957
     71  OH        -2.7510   -9.4900  -18.0530 O.3   221  TYR221     -0.2866
     72  N         -6.9240  -16.3240    1.6430 N.3   286  ASN286     -0.1240
     73  CA        -6.2220  -15.3050    0.8570 C.3   286  ASN286      0.1653
     74  C         -4.8100  -15.0110    1.3920 C.2   286  ASN286      0.2266
     75  O         -4.1930  -13.9880    1.0560 O.2   286  ASN286     -0.2867
     76  CB        -7.1430  -14.0430    0.7760 C.3   286  ASN286      0.1155
     77  CG        -8.0360  -14.0480   -0.4630 C.2   286  ASN286      0.2627
     78  OD1       -7.8090  -13.2090   -1.3280 O.2   286  ASN286     -0.2716
     79  ND2       -9.0230  -15.0210   -0.5920 N.am  286  ASN286     -0.0877
     80  N         -2.2330  -18.1610   -1.9980 N.3   291  VAL291     -0.1231
     81  CA        -2.2640  -17.3760   -3.2480 C.3   291  VAL291      0.1692
     82  C         -1.0350  -17.5510   -4.1200 C.2   291  VAL291      0.2591
     83  O         -1.1500  -17.6280   -5.3450 O.2   291  VAL291     -0.2718
     84  CB        -2.5370  -15.8460   -3.0040 C.3   291  VAL291      0.0266
     85  CG1       -2.5890  -15.0630   -4.3150 C.3   291  VAL291      0.0020
     86  CG2       -3.8620  -15.6120   -2.2540 C.3   291  VAL291      0.0020
     87  N          0.1320  -17.5550   -3.5020 N.am  292  MET292     -0.1979
     88  CA         1.3780  -17.4340   -4.2170 C.3   292  MET292      0.1605
     89  C          2.1720  -18.7250   -4.3270 C.2   292  MET292      0.2287
     90  O          3.0380  -18.7950   -5.1500 O.2   292  MET292     -0.2864
     91  CB         2.2310  -16.2830   -3.6250 C.3   292  MET292      0.0413
     92  CG         1.5180  -14.9340   -3.6250 C.3   292  MET292      0.0598
     93  SD         1.0950  -14.2470   -5.2640 S.3   292  MET292     -0.1393
     94  CE         2.7220  -13.6690   -5.7930 C.3   292  MET292      0.0692
     95  N        -11.6270  -12.5480   -4.2480 N.3   312  THR312     -0.1274
     96  CA       -10.9640  -11.2320   -4.2890 C.3   312  THR312      0.1548
     97  C        -10.4220  -11.0390   -5.6820 C.3   312  THR312      0.2036
     98  O        -10.1340  -12.0430   -6.4580 O.3   312  THR312     -0.2187
     99  CB        -9.7910  -11.0830   -3.3440 C.3   312  THR312      0.1721
    100  OG1       -8.8170  -12.0650   -3.6700 O.3   312  THR312     -0.2215
    101  CG2      -10.1560  -11.3550   -1.9820 C.3   312  THR312      0.0371
    102  N         -7.7320   -8.0750   -7.8270 N.3   314  SER314     -0.1202
    103  CA        -7.0260   -6.8260   -8.0040 C.3   314  SER314      0.2020
    104  C         -6.4010   -6.7120   -9.4350 C.2   314  SER314      0.2619
    105  O         -6.0740   -7.7280  -10.1060 O.2   314  SER314     -0.2717
    106  CB        -5.8820   -6.7740   -7.0070 C.3   314  SER314      0.2103
    107  OG        -6.2690   -7.0180   -5.6730 O.3   314  SER314     -0.2182
    108  N         -6.2660   -5.4770   -9.8830 N.am  315  THR315     -0.1938
    109  CA        -5.3520   -5.0550  -10.9440 C.3   315  THR315      0.2028
    110  C         -4.3940   -4.0870  -10.2570 C.2   315  THR315      0.2642
    111  O         -4.5020   -3.8510   -9.0200 O.2   315  THR315     -0.2714
    112  CB        -6.0360   -4.3300  -12.1300 C.3   315  THR315      0.1808
    113  OG1       -6.7950   -3.2100  -11.6450 O.3   315  THR315     -0.2208
    114  CG2       -6.9030   -5.2620  -12.8440 C.3   315  THR315      0.0379
    115  N         -3.4170   -3.5750  -11.0200 N.am  316  SER316     -0.1949
    116  CA        -2.4510   -2.5900  -10.4800 C.3   316  SER316      0.1924
    117  C         -3.1410   -1.4690   -9.6720 C.2   316  SER316      0.2314
    118  O         -2.7040   -1.1250   -8.5810 O.2   316  SER316     -0.2863
    119  CB        -1.5980   -1.9930  -11.6090 C.3   316  SER316      0.2116
    120  OG        -2.4140   -1.4330  -12.6380 O.3   316  SER316     -0.2180
    121  N         -5.9220   -0.4570   -4.7400 N.3   339  ARG339     -0.1245
    122  CA        -5.8160   -1.6800   -3.9470 C.3   339  ARG339      0.1563
    123  C         -5.7410   -1.3740   -2.5080 C.2   339  ARG339      0.2260
    124  O         -5.0530   -0.3960   -2.1160 O.2   339  ARG339     -0.2867
    125  CB        -4.5390   -2.3920   -4.2500 C.3   339  ARG339      0.0307
    126  CG        -4.4570   -2.8520   -5.6440 C.3   339  ARG339      0.0489
    127  CD        -4.0520   -4.2900   -5.7570 C.3   339  ARG339      0.2205
    128  NE        -2.6560   -4.4310   -6.0040 N.pl3 339  ARG339     -0.0865
    129  CZ        -1.8310   -5.3520   -5.5150 C.cat 339  ARG339      0.5346
    130  NH1       -2.1880   -6.2800   -4.6080 N.pl3 339  ARG339      0.1354
    131  NH2       -0.5940   -5.3010   -5.9550 N.pl3 339  ARG339      0.1354
    132  N         -6.1880   -7.4840    1.0090 N.3   342  ASN342     -0.1240
    133  CA        -7.3470   -8.4390    0.9280 C.3   342  ASN342      0.1653
    134  C         -7.9600   -8.6460    2.3270 C.2   342  ASN342      0.2266
    135  O         -9.1730   -8.7420    2.4950 O.2   342  ASN342     -0.2867
    136  CB        -6.8990   -9.7760    0.3750 C.3   342  ASN342      0.1155
    137  CG        -6.6330   -9.7110   -1.1050 C.2   342  ASN342      0.2627
    138  OD1       -7.2840   -8.9490   -1.7910 O.2   342  ASN342     -0.2716
    139  ND2       -5.7190  -10.5270   -1.5950 N.am  342  ASN342     -0.0877
@<TRIPOS>BOND
     1    56    55    2
     2    71    70    1
     3    55    54    1
     4    58    57    1
     5    70    68   ar
     6    70    69   ar
     7    68    66   ar
     8    48    47    2
     9    59    57    1
    10    54    57    1
    11    54    53    1
    12    69    67   ar
    13    47    46    1
    14    66    65   ar
    15    60    61    1
    16    62    63    2
    17    62    61    1
    18    26    27    2
    19    26    25    1
    20    67    65   ar
    21    65    64    1
    22    61    64    1
    23    49    46    1
    24    49    50    1
    25    46    45    1
    26    25    28    1
    27    25    24    1
    28    31    30    2
    29    28    29    1
    30    50    52   am
    31    50    51    2
    32    10     9    2
    33    30    29    1
    34    30    32   am
    35    24    18   am
    36     7     8    1
    37     8     9    1
    38     8    11    1
    39    19    18    2
    40   114   112    1
    41    18    17    1
    42   120   119    1
    43    12    11    1
    44    12    13    1
    45   112   113    1
    46   112   109    1
    47    14    15    1
    48    14    13    1
    49   119   116    1
    50    16    17    1
    51    17    20    1
    52   115   116    1
    53   115   110   am
    54   109   110    1
    55   109   108    1
    56     1     2    1
    57     2     3    1
    58     2     5    1
    59     4     3    2
    60   116   117    1
    61   110   111    2
    62    20    21    1
    63    21    22    1
    64    21    23    1
    65     6     5    1
    66   105   104    2
    67   108   104   am
    68    35    36    2
    69    35    34    1
    70   117   118    2
    71   104   103    1
    72    44    43    1
    73    34    33    1
    74    34    37    1
    75    41    43   ar
    76    41    39   ar
    77    43    42   ar
    78    39    38   ar
    79    42    40   ar
    80   103   102    1
    81   103   106    1
    82    40    38   ar
    83    38    37    1
    84   106   107    1
    85    98    97    1
    86   128   127    1
    87   128   129    2
    88   131   129    1
    89    94    93    1
    90   127   126    1
    91    97    96    1
    92   126   125    1
    93   129   130    1
    94    83    82    2
    95    93    92    1
    96    90    89    2
    97   121   122    1
    98    89    88    1
    99    85    84    1
   100    96    95    1
   101    96    99    1
   102   125   122    1
   103    88    91    1
   104    88    87    1
   105    82    87   am
   106    82    81    1
   107   122   123    1
   108   100    99    1
   109    92    91    1
   110    99   101    1
   111    81    84    1
   112    81    80    1
   113    84    86    1
   114   123   124    2
   115   138   137    2
   116   139   137   am
   117    78    77    2
   118   137   136    1
   119    79    77   am
   120    77    76    1
   121   136   133    1
   122    76    73    1
   123    73    74    1
   124    73    72    1
   125   133   132    1
   126   133   134    1
   127    75    74    2
   128   134   135    2
