@<TRIPOS>MOLECULE
tmp/5w13B00.pdb
 128 120 0 0 0
SMALL
GASTEIGER

@<TRIPOS>ATOM
      1  N        -53.2960  -11.3470  -10.8080 N.3    64  SER64      -0.1217
      2  CA       -53.5790  -12.7720  -10.8540 C.3    64  SER64       0.1889
      3  C        -55.0540  -13.1400  -10.5800 C.2    64  SER64       0.2288
      4  O        -55.4070  -14.3020  -10.7760 O.2    64  SER64      -0.2866
      5  CB       -52.6940  -13.5940   -9.8620 C.3    64  SER64       0.2089
      6  OG       -51.3430  -13.3640  -10.0780 O.3    64  SER64      -0.2183
      7  N        -56.6550  -14.9560  -13.3790 N.3    67  LYS67      -0.1245
      8  CA       -56.6560  -16.4130  -13.4250 C.3    67  LYS67       0.1561
      9  C        -57.9780  -17.0140  -13.2130 C.2    67  LYS67       0.2260
     10  O        -58.1780  -18.1650  -13.6430 O.2    67  LYS67      -0.2867
     11  CB       -55.6770  -17.0470  -12.4050 C.3    67  LYS67       0.0271
     12  CG       -54.2150  -16.7750  -12.7920 C.3    67  LYS67       0.0035
     13  CD       -53.2040  -17.3130  -11.7820 C.3    67  LYS67       0.0206
     14  CE       -51.7850  -16.9090  -12.1640 C.3    67  LYS67       0.1093
     15  NZ       -51.2750  -15.5400  -11.9080 N.3    67  LYS67      -0.1314
     16  N        -42.1520  -19.1440  -11.7860 N.3   119  LEU119     -0.1231
     17  CA       -43.1930  -18.0880  -11.6120 C.3   119  LEU119      0.1693
     18  C        -43.4400  -17.2580  -12.8810 C.2   119  LEU119      0.2591
     19  O        -44.5830  -17.0020  -13.2420 O.2   119  LEU119     -0.2718
     20  CB       -42.8640  -17.1540  -10.4330 C.3   119  LEU119      0.0284
     21  CG       -43.9100  -16.0450  -10.1410 C.3   119  LEU119      0.0019
     22  CD1      -45.2590  -16.7010   -9.8070 C.3   119  LEU119      0.0001
     23  CD2      -43.4530  -15.0410   -9.0610 C.3   119  LEU119      0.0001
     24  N        -42.3650  -16.7790  -13.5010 N.am  120  GLN120     -0.1979
     25  CA       -42.4230  -15.9480  -14.7360 C.3   120  GLN120      0.1601
     26  C        -41.6240  -16.6130  -15.8620 C.2   120  GLN120      0.2287
     27  O        -40.7520  -17.4150  -15.6140 O.2   120  GLN120     -0.2864
     28  CB       -41.8500  -14.5480  -14.5030 C.3   120  GLN120      0.0394
     29  CG       -42.3850  -13.8380  -13.2580 C.3   120  GLN120      0.0908
     30  CD       -43.8040  -13.3220  -13.3580 C.2   120  GLN120      0.2608
     31  OE1      -44.5020  -13.5300  -14.3510 O.2   120  GLN120     -0.2717
     32  NE2      -44.2640  -12.6750  -12.2900 N.am  120  GLN120     -0.0878
     33  N        -46.3020  -22.2420   -8.0040 N.3   150  TYR150     -0.1241
     34  CA       -47.1650  -21.1320   -8.5720 C.3   150  TYR150      0.1605
     35  C        -46.4810  -20.5010   -9.7800 C.2   150  TYR150      0.2264
     36  O        -45.3320  -20.0770   -9.6890 O.2   150  TYR150     -0.2867
     37  CB       -47.5020  -20.1130   -7.4960 C.3   150  TYR150      0.0534
     38  CG       -48.6010  -19.1110   -7.8540 C.ar  150  TYR150     -0.0201
     39  CD1      -49.8740  -19.4940   -8.2570 C.ar  150  TYR150     -0.0009
     40  CD2      -48.3370  -17.7760   -7.8050 C.ar  150  TYR150     -0.0009
     41  CE1      -50.8450  -18.5230   -8.5450 C.ar  150  TYR150      0.0417
     42  CE2      -49.2860  -16.8260   -8.0840 C.ar  150  TYR150      0.0417
     43  CZ       -50.5220  -17.2030   -8.5150 C.ar  150  TYR150      0.1957
     44  OH       -51.4040  -16.2150   -8.7730 O.3   150  TYR150     -0.2866
     45  N        -47.0750  -18.4520  -13.8120 N.3   152  ASN152     -0.1240
     46  CA       -47.7500  -17.7610  -14.9260 C.3   152  ASN152      0.1653
     47  C        -47.6170  -18.4950  -16.2280 C.2   152  ASN152      0.2266
     48  O        -48.6320  -18.6920  -16.9290 O.2   152  ASN152     -0.2867
     49  CB       -47.2980  -16.2700  -15.0070 C.3   152  ASN152      0.1155
     50  CG       -47.8130  -15.4630  -13.8680 C.2   152  ASN152      0.2627
     51  OD1      -48.8140  -15.8450  -13.3240 O.2   152  ASN152     -0.2716
     52  ND2      -47.1140  -14.3680  -13.4480 N.am  152  ASN152     -0.0877
     53  N        -52.2800  -12.6030  -15.8750 N.3   222  TYR222     -0.1241
     54  CA       -52.4600  -11.4240  -15.0680 C.3   222  TYR222      0.1605
     55  C        -52.9960  -10.2150  -15.7980 C.2   222  TYR222      0.2264
     56  O        -52.8650   -9.1090  -15.2980 O.2   222  TYR222     -0.2867
     57  CB       -51.1200  -11.0810  -14.3060 C.3   222  TYR222      0.0534
     58  CG       -49.9610  -10.8770  -15.2720 C.ar  222  TYR222     -0.0201
     59  CD1      -49.7920   -9.6670  -15.9600 C.ar  222  TYR222     -0.0009
     60  CD2      -49.0690  -11.9240  -15.5650 C.ar  222  TYR222     -0.0009
     61  CE1      -48.7650   -9.5190  -16.9260 C.ar  222  TYR222      0.0417
     62  CE2      -48.0980  -11.7750  -16.5410 C.ar  222  TYR222      0.0417
     63  CZ       -47.9110  -10.5730  -17.1900 C.ar  222  TYR222      0.1957
     64  OH       -46.9180  -10.4530  -18.1590 O.3   222  TYR222     -0.2866
     65  N        -46.4420  -19.2900   -2.0810 N.3   292  VAL292     -0.1231
     66  CA       -46.4370  -18.5090   -3.3010 C.3   292  VAL292      0.1692
     67  C        -45.1510  -18.7200   -4.1000 C.2   292  VAL292      0.2591
     68  O        -45.2050  -18.8750   -5.3240 O.2   292  VAL292     -0.2718
     69  CB       -46.6690  -16.9980   -3.0050 C.3   292  VAL292      0.0266
     70  CG1      -46.6030  -16.1280   -4.2620 C.3   292  VAL292      0.0020
     71  CG2      -47.9960  -16.7760   -2.2730 C.3   292  VAL292      0.0020
     72  N        -43.9840  -18.7370   -3.4200 N.am  293  MET293     -0.1979
     73  CA       -42.7050  -18.5800   -4.1180 C.3   293  MET293      0.1605
     74  C        -41.8960  -19.8660   -4.2760 C.2   293  MET293      0.2287
     75  O        -41.0260  -19.9320   -5.1140 O.2   293  MET293     -0.2864
     76  CB       -41.8220  -17.4840   -3.4420 C.3   293  MET293      0.0413
     77  CG       -42.4200  -16.0980   -3.3900 C.3   293  MET293      0.0598
     78  SD       -42.8190  -15.3660   -5.0220 S.3   293  MET293     -0.1393
     79  CE       -41.2090  -15.3030   -5.7590 C.3   293  MET293      0.0692
     80  N        -55.9630  -13.4590   -4.1430 N.3   313  THR313     -0.1203
     81  CA       -55.2710  -12.1690   -4.2580 C.3   313  THR313      0.1994
     82  C        -54.7410  -11.9600   -5.6920 C.2   313  THR313      0.2618
     83  O        -54.3760  -12.9080   -6.4140 O.2   313  THR313     -0.2717
     84  CB       -54.0410  -12.0790   -3.3550 C.3   313  THR313      0.1784
     85  OG1      -53.0830  -12.9820   -3.8660 O.3   313  THR313     -0.2211
     86  CG2      -54.3220  -12.4580   -2.0100 C.3   313  THR313      0.0376
     87  N        -54.6390  -10.6930   -6.0580 N.am  314  GLY314     -0.1942
     88  CA       -54.0200  -10.3060   -7.3550 C.3   314  GLY314      0.2014
     89  C        -53.1630   -9.0700   -7.2070 C.2   314  GLY314      0.2640
     90  O        -53.5410   -8.1360   -6.5230 O.2   314  GLY314     -0.2714
     91  N        -52.0660   -9.0140   -7.9230 N.am  315  SER315     -0.1935
     92  CA       -51.3330   -7.7860   -8.0170 C.3   315  SER315      0.2055
     93  C        -50.6710   -7.6900   -9.4050 C.2   315  SER315      0.2644
     94  O        -50.3190   -8.7210  -10.0230 O.2   315  SER315     -0.2714
     95  CB       -50.1770   -7.8270   -7.0020 C.3   315  SER315      0.2130
     96  OG       -50.5690   -7.9850   -5.6690 O.3   315  SER315     -0.2179
     97  N        -50.5240   -6.4430   -9.8670 N.am  316  THR316     -0.1936
     98  CA       -49.6190   -6.0130  -10.9250 C.3   316  THR316      0.2028
     99  C        -48.5950   -5.1160  -10.2360 C.2   316  THR316      0.2642
    100  O        -48.6340   -4.9790   -8.9990 O.2   316  THR316     -0.2714
    101  CB       -50.2620   -5.2870  -12.1450 C.3   316  THR316      0.1808
    102  OG1      -50.9450   -4.1020  -11.7410 O.3   316  THR316     -0.2208
    103  CG2      -51.1720   -6.2050  -12.8930 C.3   316  THR316      0.0379
    104  N        -47.6390   -4.5520  -10.9700 N.am  317  SER317     -0.1949
    105  CA       -46.6590   -3.6220  -10.3030 C.3   317  SER317      0.1924
    106  C        -47.3730   -2.4690   -9.6780 C.2   317  SER317      0.2314
    107  O        -46.9350   -1.9990   -8.6550 O.2   317  SER317     -0.2863
    108  CB       -45.5950   -3.0820  -11.2790 C.3   317  SER317      0.2116
    109  OG       -44.8650   -4.1230  -11.8930 O.3   317  SER317     -0.2180
    110  N        -50.0950   -1.4630   -4.7640 N.3   340  ARG340     -0.1245
    111  CA       -49.9570   -2.6950   -4.0120 C.3   340  ARG340      0.1563
    112  C        -49.8990   -2.4100   -2.5590 C.2   340  ARG340      0.2260
    113  O        -49.1900   -1.4500   -2.1670 O.2   340  ARG340     -0.2867
    114  CB       -48.6790   -3.3470   -4.3690 C.3   340  ARG340      0.0307
    115  CG       -48.6350   -4.0070   -5.7220 C.3   340  ARG340      0.0489
    116  CD       -47.9300   -5.3550   -5.5680 C.3   340  ARG340      0.2205
    117  NE       -46.5600   -5.4140   -6.0260 N.pl3 340  ARG340     -0.0865
    118  CZ       -45.7330   -6.4310   -5.7940 C.cat 340  ARG340      0.5346
    119  NH1      -46.1080   -7.4830   -5.0590 N.pl3 340  ARG340      0.1354
    120  NH2      -44.5030   -6.3910   -6.2970 N.pl3 340  ARG340      0.1354
    121  N        -50.3820   -8.4050    1.0610 N.3   343  ASN343     -0.1240
    122  CA       -51.4620   -9.3920    0.9830 C.3   343  ASN343      0.1653
    123  C        -52.1240   -9.6730    2.3370 C.2   343  ASN343      0.2266
    124  O        -53.3350   -9.7980    2.4190 O.2   343  ASN343     -0.2867
    125  CB       -50.9950  -10.6790    0.2680 C.3   343  ASN343      0.1155
    126  CG       -50.8780  -10.5080   -1.2090 C.2   343  ASN343      0.2627
    127  OD1      -51.7270   -9.8990   -1.8520 O.2   343  ASN343     -0.2716
    128  ND2      -49.8020  -10.9980   -1.7580 N.am  343  ASN343     -0.0877
@<TRIPOS>BOND
     1    64    63    1
     2    63    61   ar
     3    63    62   ar
     4    48    47    2
     5    61    59   ar
     6    62    60   ar
     7    47    46    1
     8    59    58   ar
     9    53    54    1
    10    26    27    2
    11    26    25    1
    12    55    56    2
    13    55    54    1
    14    60    58   ar
    15    58    57    1
    16    54    57    1
    17    49    46    1
    18    49    50    1
    19    46    45    1
    20    25    28    1
    21    25    24    1
    22    28    29    1
    23    31    30    2
    24    50    52   am
    25    50    51    2
    26    10     9    2
    27    24    18   am
    28     8     7    1
    29     8     9    1
    30     8    11    1
    31    30    29    1
    32    30    32   am
    33    19    18    2
    34   103   101    1
    35    18    17    1
    36    12    11    1
    37    12    13    1
    38    14    15    1
    39    14    13    1
    40   101   102    1
    41   101    98    1
    42   109   108    1
    43    16    17    1
    44    17    20    1
    45   108   105    1
    46   104   105    1
    47   104    99   am
    48    98    99    1
    49    98    97    1
    50     2     1    1
    51     2     3    1
    52     2     5    1
    53     4     3    2
    54    20    21    1
    55   105   106    1
    56    99   100    2
    57    21    22    1
    58    21    23    1
    59     6     5    1
    60    94    93    2
    61    97    93   am
    62    35    36    2
    63    35    34    1
    64   106   107    2
    65    93    92    1
    66    44    43    1
    67    34    33    1
    68    34    37    1
    69    41    43   ar
    70    41    39   ar
    71    43    42   ar
    72    39    38   ar
    73    42    40   ar
    74    92    91    1
    75    92    95    1
    76    91    89   am
    77    38    40   ar
    78    38    37    1
    79    88    89    1
    80    88    87    1
    81    89    90    2
    82    95    96    1
    83    83    82    2
    84   120   118    1
    85    87    82   am
    86   117   118    2
    87   117   116    1
    88   118   119    1
    89    79    78    1
    90   115   116    1
    91   115   114    1
    92    82    81    1
    93    68    67    2
    94    75    74    2
    95    78    77    1
    96   110   111    1
    97   114   111    1
    98    74    73    1
    99    70    69    1
   100    81    80    1
   101    81    84    1
   102    73    76    1
   103    73    72    1
   104    67    72   am
   105    67    66    1
   106   111   112    1
   107    85    84    1
   108    76    77    1
   109    84    86    1
   110    66    69    1
   111    66    65    1
   112    69    71    1
   113   112   113    2
   114   127   126    2
   115   128   126   am
   116   126   125    1
   117   125   122    1
   118   122   121    1
   119   122   123    1
   120   123   124    2
