@<TRIPOS>MOLECULE
tmp/5w13A00.pdb
 126 117 0 0 0
SMALL
GASTEIGER

@<TRIPOS>ATOM
      1  N         -8.9390  -10.4990  -10.5970 N.3    60  SER60      -0.1217
      2  CA        -9.3500  -11.9380  -10.6240 C.3    60  SER60       0.1889
      3  C        -10.8610  -12.1550  -10.5450 C.2    60  SER60       0.2288
      4  O        -11.3540  -13.1660  -10.9450 O.2    60  SER60      -0.2866
      5  CB        -8.6460  -12.7810   -9.5540 C.3    60  SER60       0.2089
      6  OG        -7.2280  -12.7080   -9.7100 O.3    60  SER60      -0.2183
      7  N        -12.2740  -13.7540  -13.6330 N.3    63  LYS63      -0.1245
      8  CA       -12.4160  -15.2240  -13.6850 C.3    63  LYS63       0.1561
      9  C        -13.8390  -15.7350  -13.6190 C.2    63  LYS63       0.2260
     10  O        -14.0870  -16.7880  -14.1580 O.2    63  LYS63      -0.2867
     11  CB       -11.6140  -15.9350  -12.5820 C.3    63  LYS63       0.0271
     12  CG       -10.0770  -15.8010  -12.7410 C.3    63  LYS63       0.0035
     13  CD        -9.3360  -16.3280  -11.4760 C.3    63  LYS63       0.0206
     14  CE        -7.8250  -16.2720  -11.7270 C.3    63  LYS63       0.1093
     15  NZ        -7.1620  -14.9250  -11.7230 N.3    63  LYS63      -0.1314
     16  N          1.0470  -19.7120  -10.1820 N.3   115  LEU115     -0.1231
     17  CA         0.2460  -18.4610  -10.1050 C.3   115  LEU115      0.1693
     18  C          0.3120  -17.5870  -11.3090 C.2   115  LEU115      0.2591
     19  O         -0.7090  -17.1000  -11.8060 O.2   115  LEU115     -0.2718
     20  CB         0.6820  -17.6370   -8.9120 C.3   115  LEU115      0.0284
     21  CG        -0.2080  -16.4010   -8.6930 C.3   115  LEU115      0.0019
     22  CD1       -1.5260  -16.8000   -8.0720 C.3   115  LEU115      0.0001
     23  CD2        0.4830  -15.3750   -7.8220 C.3   115  LEU115      0.0001
     24  N          1.5420  -17.3400  -11.7830 N.am  116  GLN116     -0.1979
     25  CA         1.7540  -16.4990  -12.9560 C.3   116  GLN116      0.1601
     26  C          2.6240  -17.1590  -13.9900 C.2   116  GLN116      0.2287
     27  O          3.4960  -17.9500  -13.6330 O.2   116  GLN116     -0.2864
     28  CB         2.4800  -15.1890  -12.5600 C.3   116  GLN116      0.0394
     29  CG         1.8220  -14.2960  -11.5350 C.3   116  GLN116      0.0908
     30  CD         0.5280  -13.6770  -11.9980 C.2   116  GLN116      0.2608
     31  OE1        0.1280  -13.7750  -13.1690 O.2   116  GLN116     -0.2717
     32  NE2       -0.1710  -13.0640  -11.0360 N.am  116  GLN116     -0.0878
     33  N         -3.5980  -22.4160   -7.1420 N.3   146  TYR146     -0.1241
     34  CA        -4.2550  -21.1920   -7.7840 C.3   146  TYR146      0.1605
     35  C         -3.3990  -20.5490   -8.9120 C.2   146  TYR146      0.2264
     36  O         -2.2510  -20.1660   -8.6620 O.2   146  TYR146     -0.2867
     37  CB        -4.6280  -20.1970   -6.6690 C.3   146  TYR146      0.0534
     38  CG        -5.4240  -19.0230   -7.1310 C.ar  146  TYR146     -0.0201
     39  CD1       -6.5970  -19.1960   -7.8470 C.ar  146  TYR146     -0.0009
     40  CD2       -4.9610  -17.7070   -6.9060 C.ar  146  TYR146     -0.0009
     41  CE1       -7.3340  -18.0780   -8.2900 C.ar  146  TYR146      0.0417
     42  CE2       -5.6970  -16.5970   -7.3460 C.ar  146  TYR146      0.0417
     43  CZ        -6.8910  -16.7840   -8.0370 C.ar  146  TYR146      0.1957
     44  OH        -7.6030  -15.6730   -8.5210 O.3   146  TYR146     -0.2866
     45  N         -3.1570  -18.2810  -12.8890 N.3   148  ASN148     -0.1240
     46  CA        -3.5700  -17.5130  -14.0650 C.3   148  ASN148      0.1653
     47  C         -3.4220  -18.2260  -15.3840 C.2   148  ASN148      0.2266
     48  O         -4.3390  -18.1480  -16.2490 O.2   148  ASN148     -0.2867
     49  CB        -2.9360  -16.0730  -14.0880 C.3   148  ASN148      0.1155
     50  CG        -3.5800  -15.1500  -13.0510 C.2   148  ASN148      0.2627
     51  OD1       -4.7250  -15.3770  -12.6880 O.2   148  ASN148     -0.2716
     52  ND2       -2.8240  -14.1920  -12.4800 N.am  148  ASN148     -0.0877
     53  N         -7.6530  -11.8880  -15.5540 N.3   218  TYR218     -0.1241
     54  CA        -7.7770  -10.6900  -14.7810 C.3   218  TYR218      0.1605
     55  C         -8.1540   -9.4520  -15.5630 C.2   218  TYR218      0.2264
     56  O         -7.9540   -8.3590  -15.0570 O.2   218  TYR218     -0.2867
     57  CB        -6.4670  -10.4260  -14.0190 C.3   218  TYR218      0.0534
     58  CG        -5.1940  -10.2890  -14.9010 C.ar  218  TYR218     -0.0201
     59  CD1       -4.8480   -9.0770  -15.4900 C.ar  218  TYR218     -0.0009
     60  CD2       -4.2960  -11.3630  -15.0600 C.ar  218  TYR218     -0.0009
     61  CE1       -3.7080   -8.9730  -16.2640 C.ar  218  TYR218      0.0417
     62  CE2       -3.1290  -11.2590  -15.8300 C.ar  218  TYR218      0.0417
     63  CZ        -2.8480  -10.0590  -16.4370 C.ar  218  TYR218      0.1957
     64  OH        -1.7190   -9.9110  -17.2180 O.3   218  TYR218     -0.2866
     65  N         -3.8960  -19.5590   -1.2640 N.3   288  VAL288     -0.1231
     66  CA        -3.6610  -18.7590   -2.4830 C.3   288  VAL288      0.1692
     67  C         -2.3080  -19.0540   -3.0960 C.2   288  VAL288      0.2591
     68  O         -2.2030  -19.1550   -4.3230 O.2   288  VAL288     -0.2718
     69  CB        -3.8580  -17.2140   -2.2040 C.3   288  VAL288      0.0266
     70  CG1       -3.5390  -16.3650   -3.4270 C.3   288  VAL288      0.0020
     71  CG2       -5.2820  -16.8840   -1.7930 C.3   288  VAL288      0.0020
     72  N         -1.2590  -19.1880   -2.2380 N.am  289  MET289     -0.1979
     73  CA         0.1500  -19.2570   -2.6960 C.3   289  MET289      0.1605
     74  C          0.8100  -20.6860   -2.8030 C.2   289  MET289      0.2287
     75  O          1.6750  -20.9070   -3.6530 O.2   289  MET289     -0.2864
     76  CB         1.0070  -18.3010   -1.8120 C.3   289  MET289      0.0413
     77  CG         0.4680  -16.8550   -1.7440 C.3   289  MET289      0.0598
     78  SD         0.4110  -16.0650   -3.3750 S.3   289  MET289     -0.1393
     79  CE         2.1500  -15.6430   -3.4640 C.3   289  MET289      0.0692
     80  N        -10.6640   -9.9250   -6.0310 N.3   310  GLY310     -0.1210
     81  CA        -9.8920   -9.6300   -7.1940 C.3   310  GLY310      0.1956
     82  C         -8.9560   -8.4250   -6.9690 C.2   310  GLY310      0.2613
     83  O         -9.2320   -7.5430   -6.1510 O.2   310  GLY310     -0.2717
     84  N         -7.7980   -8.4870   -7.5880 N.am  311  SER311     -0.1938
     85  CA        -6.8610   -7.3910   -7.5690 C.3   311  SER311      0.2055
     86  C         -6.1360   -7.2660   -8.9010 C.2   311  SER311      0.2643
     87  O         -5.7880   -8.2720   -9.5600 O.2   311  SER311     -0.2714
     88  CB        -5.8100   -7.6000   -6.4610 C.3   311  SER311      0.2130
     89  OG        -6.3410   -7.5110   -5.1410 O.3   311  SER311     -0.2179
     90  N         -5.8360   -6.0210   -9.2580 N.am  312  THR312     -0.1950
     91  CA        -4.7060   -5.6830  -10.1670 C.3   312  THR312      0.1897
     92  C         -3.7480   -4.8020   -9.3030 C.2   312  THR312      0.2313
     93  O         -3.9430   -4.6640   -8.0920 O.2   312  THR312     -0.2863
     94  CB        -5.1140   -4.8570  -11.3780 C.3   312  THR312      0.1794
     95  OG1       -5.6350   -3.5940  -10.9220 O.3   312  THR312     -0.2208
     96  CG2       -6.1170   -5.5560  -12.2730 C.3   312  THR312      0.0378
     97  N         -5.5710   -1.0580   -3.8770 N.3   336  ARG336     -0.1245
     98  CA        -5.6650   -2.3420   -3.1790 C.3   336  ARG336      0.1563
     99  C         -5.7690   -2.1140   -1.7290 C.2   336  ARG336      0.2260
    100  O         -5.0750   -1.2440   -1.2320 O.2   336  ARG336     -0.2867
    101  CB        -4.4140   -3.1680   -3.4020 C.3   336  ARG336      0.0307
    102  CG        -4.1580   -3.5230   -4.8470 C.3   336  ARG336      0.0489
    103  CD        -2.7910   -4.1710   -5.0130 C.3   336  ARG336      0.2205
    104  NE        -2.7320   -5.4900   -4.3510 N.pl3 336  ARG336     -0.0865
    105  CZ        -1.8440   -6.4440   -4.6340 C.cat 336  ARG336      0.5346
    106  NH1       -1.8820   -7.5840   -3.9670 N.pl3 336  ARG336      0.1354
    107  NH2       -0.9300   -6.2880   -5.5960 N.pl3 336  ARG336      0.1354
    108  N         -7.1450   -8.1700    1.5200 N.3   339  ASN339     -0.1240
    109  CA        -8.3140   -9.0400    1.2930 C.3   339  ASN339      0.1653
    110  C         -9.1030   -9.2680    2.5600 C.2   339  ASN339      0.2266
    111  O        -10.3320   -9.1120    2.5840 O.2   339  ASN339     -0.2867
    112  CB        -7.8740  -10.3530    0.6940 C.3   339  ASN339      0.1155
    113  CG        -7.4380  -10.2350   -0.7580 C.2   339  ASN339      0.2627
    114  OD1       -8.1280   -9.6450   -1.6200 O.2   339  ASN339     -0.2716
    115  ND2       -6.3450  -10.8660   -1.0590 N.am  339  ASN339     -0.0877
    116  N        -11.5920   -6.4920    3.2170 N.3   342  ARG342     -0.1245
    117  CA       -12.7360   -6.5550    2.2690 C.3   342  ARG342      0.1563
    118  C        -13.7020   -7.6040    2.7790 C.2   342  ARG342      0.2260
    119  O        -14.8680   -7.3230    2.8840 O.2   342  ARG342     -0.2867
    120  CB       -12.3120   -6.9190    0.8660 C.3   342  ARG342      0.0307
    121  CG       -11.0970   -6.1740    0.2740 C.3   342  ARG342      0.0489
    122  CD       -10.6280   -6.8350   -0.9850 C.3   342  ARG342      0.2205
    123  NE        -9.3040   -6.3830   -1.3750 N.pl3 342  ARG342     -0.0865
    124  CZ        -8.7140   -6.6360   -2.5370 C.cat 342  ARG342      0.5346
    125  NH1       -9.3170   -7.2930   -3.5060 N.pl3 342  ARG342      0.1354
    126  NH2       -7.5060   -6.1760   -2.7660 N.pl3 342  ARG342      0.1354
@<TRIPOS>BOND
     1    64    63    1
     2    63    61   ar
     3    63    62   ar
     4    61    59   ar
     5    48    47    2
     6    62    60   ar
     7    55    56    2
     8    55    54    1
     9    53    54    1
    10    59    58   ar
    11    47    46    1
    12    60    58   ar
    13    58    57    1
    14    54    57    1
    15    10     9    2
    16    49    46    1
    17    49    50    1
    18    46    45    1
    19    26    27    2
    20    26    25    1
    21     8     7    1
    22     8     9    1
    23     8    11    1
    24    31    30    2
    25    50    51    2
    26    50    52   am
    27    25    28    1
    28    25    24    1
    29    12    11    1
    30    12    13    1
    31    28    29    1
    32    96    94    1
    33    30    29    1
    34    30    32   am
    35    19    18    2
    36    24    18   am
    37    14    15    1
    38    14    13    1
    39    94    95    1
    40    94    91    1
    41    18    17    1
    42     4     3    2
    43     2     1    1
    44     2     3    1
    45     2     5    1
    46    16    17    1
    47    91    92    1
    48    91    90    1
    49    17    20    1
    50     6     5    1
    51    87    86    2
    52    92    93    2
    53    90    86   am
    54    35    36    2
    55    35    34    1
    56    20    21    1
    57    86    85    1
    58    21    22    1
    59    21    23    1
    60    44    43    1
    61    41    43   ar
    62    41    39   ar
    63    43    42   ar
    64    39    38   ar
    65    34    33    1
    66    34    37    1
    67    84    85    1
    68    84    82   am
    69    85    88    1
    70    42    40   ar
    71    81    82    1
    72    81    80    1
    73    38    40   ar
    74    38    37    1
    75    82    83    2
    76    88    89    1
    77   107   105    1
    78   103   102    1
    79   103   104    1
    80   102   101    1
    81   105   104    2
    82   105   106    1
    83    68    67    2
    84    97    98    1
    85    75    74    2
    86   125   124    1
    87    79    78    1
    88    70    69    1
    89   101    98    1
    90    78    77    1
    91    98    99    1
    92    67    66    1
    93    67    72   am
    94    74    73    1
    95   126   124    1
    96    73    72    1
    97    73    76    1
    98   124   123    2
    99    66    69    1
   100    66    65    1
   101    69    71    1
   102    76    77    1
   103    99   100    2
   104   114   113    2
   105   123   122    1
   106   115   113   am
   107   122   121    1
   108   113   112    1
   109   121   120    1
   110   112   109    1
   111   120   117    1
   112   109   108    1
   113   109   110    1
   114   117   118    1
   115   117   116    1
   116   110   111    2
   117   118   119    2
