@<TRIPOS>MOLECULE
tmp/5w13D00.pdb
 139 129 0 0 0
SMALL
GASTEIGER

@<TRIPOS>ATOM
      1  N        -55.3800  -18.6740   31.8710 N.3    63  SER63      -0.1217
      2  CA       -55.5450  -18.1750   33.2310 C.3    63  SER63       0.1889
      3  C        -54.4000  -18.5510   34.1440 C.2    63  SER63       0.2288
      4  O        -54.3210  -17.9850   35.2660 O.2    63  SER63      -0.2866
      5  CB       -56.8840  -18.6240   33.8860 C.3    63  SER63       0.2089
      6  OG       -58.0330  -18.2320   33.1450 O.3    63  SER63      -0.2183
      7  N        -52.5950  -15.6830   35.6530 N.3    66  LYS66      -0.1245
      8  CA       -53.0270  -15.1110   36.9520 C.3    66  LYS66       0.1561
      9  C        -52.0400  -15.3860   38.0640 C.2    66  LYS66       0.2260
     10  O        -51.8720  -14.5360   38.9350 O.2    66  LYS66      -0.2867
     11  CB       -54.4280  -15.5430   37.3410 C.3    66  LYS66       0.0271
     12  CG       -55.5010  -15.0010   36.4110 C.3    66  LYS66       0.0035
     13  CD       -56.8260  -15.5990   36.7730 C.3    66  LYS66       0.0206
     14  CE       -57.9550  -15.1040   35.8840 C.3    66  LYS66       0.1093
     15  NZ       -57.9570  -15.4940   34.4610 N.3    66  LYS66      -0.1314
     16  N        -67.3650  -13.1560   34.6000 N.3   118  LEU118     -0.1231
     17  CA       -66.2170  -13.8560   34.0250 C.3   118  LEU118      0.1693
     18  C        -65.4180  -12.9780   33.0330 C.2   118  LEU118      0.2591
     19  O        -64.2170  -12.8030   33.2020 O.2   118  LEU118     -0.2718
     20  CB       -66.7190  -15.1160   33.3330 C.3   118  LEU118      0.0284
     21  CG       -65.6510  -16.1090   32.8660 C.3   118  LEU118      0.0019
     22  CD1      -64.9570  -16.7040   34.0940 C.3   118  LEU118      0.0001
     23  CD2      -66.3160  -17.1790   32.0040 C.3   118  LEU118      0.0001
     24  N        -66.0940  -12.4200   32.0230 N.am  119  GLN119     -0.1979
     25  CA       -65.4700  -11.4990   31.0640 C.3   119  GLN119      0.1601
     26  C        -66.0360  -10.0650   31.2000 C.2   119  GLN119      0.2287
     27  O        -67.1030   -9.8910   31.7780 O.2   119  GLN119     -0.2864
     28  CB       -65.6900  -11.9910   29.6170 C.3   119  GLN119      0.0394
     29  CG       -65.2810  -13.4290   29.2150 C.3   119  GLN119      0.0908
     30  CD       -63.8520  -13.8540   29.5480 C.2   119  GLN119      0.2608
     31  OE1      -62.9930  -13.0540   29.8910 O.2   119  GLN119     -0.2717
     32  NE2      -63.6170  -15.1660   29.4830 N.am  119  GLN119     -0.0878
     33  N        -65.6880  -15.8840   39.8060 N.3   149  TYR149     -0.1241
     34  CA       -64.3940  -15.9640   39.0330 C.3   149  TYR149      0.1605
     35  C        -64.4680  -14.9560   37.8580 C.2   149  TYR149      0.2264
     36  O        -65.3550  -15.0690   37.0160 O.2   149  TYR149     -0.2867
     37  CB       -64.1090  -17.3970   38.5760 C.3   149  TYR149      0.0534
     38  CG       -62.7350  -17.6320   37.8950 C.ar  149  TYR149     -0.0201
     39  CD1      -61.5180  -17.3700   38.5480 C.ar  149  TYR149     -0.0009
     40  CD2      -62.6750  -18.1350   36.5970 C.ar  149  TYR149     -0.0009
     41  CE1      -60.2790  -17.6090   37.9130 C.ar  149  TYR149      0.0417
     42  CE2      -61.4490  -18.3760   35.9620 C.ar  149  TYR149      0.0417
     43  CZ       -60.2600  -18.1080   36.6070 C.ar  149  TYR149      0.1957
     44  OH       -59.0620  -18.3450   35.9180 O.3   149  TYR149     -0.2866
     45  N        -62.1840  -12.2830   35.0560 N.3   151  ASN151     -0.1240
     46  CA       -61.0100  -11.6400   34.3800 C.3   151  ASN151      0.1653
     47  C        -60.8520  -10.1350   34.6370 C.2   151  ASN151      0.2266
     48  O        -59.7610   -9.6680   35.0140 O.2   151  ASN151     -0.2867
     49  CB       -61.0070  -11.9960   32.8700 C.3   151  ASN151      0.1155
     50  CG       -60.7200  -13.4750   32.6440 C.2   151  ASN151      0.2627
     51  OD1      -59.9060  -14.0590   33.3830 O.2   151  ASN151     -0.2716
     52  ND2      -61.4360  -14.1070   31.7020 N.am  151  ASN151     -0.0877
     53  N        -54.0140  -15.8780   20.5540 N.3   211  VAL211     -0.1245
     54  CA       -54.9350  -15.1800   21.5020 C.3   211  VAL211      0.1561
     55  C        -55.1350  -13.7650   20.9730 C.2   211  VAL211      0.2260
     56  O        -54.1770  -13.1540   20.4880 O.2   211  VAL211     -0.2867
     57  CB       -54.3320  -15.1530   22.9370 C.3   211  VAL211      0.0252
     58  CG1      -53.0450  -14.3410   22.9850 C.3   211  VAL211      0.0019
     59  CG2      -55.3430  -14.6680   23.9960 C.3   211  VAL211      0.0019
     60  N        -54.9470  -13.4360   31.4180 N.3   221  TYR221     -0.1241
     61  CA       -54.7490  -14.5940   30.5650 C.3   221  TYR221      0.1605
     62  C        -53.6780  -14.4570   29.4680 C.2   221  TYR221      0.2264
     63  O        -53.6680  -15.2670   28.5240 O.2   221  TYR221     -0.2867
     64  CB       -56.1050  -15.0090   29.9180 C.3   221  TYR221      0.0534
     65  CG       -56.7760  -13.9580   29.0340 C.ar  221  TYR221     -0.0201
     66  CD1      -56.4120  -13.7940   27.6980 C.ar  221  TYR221     -0.0009
     67  CD2      -57.8110  -13.1560   29.5280 C.ar  221  TYR221     -0.0009
     68  CE1      -57.0280  -12.8440   26.8890 C.ar  221  TYR221      0.0417
     69  CE2      -58.4320  -12.2130   28.7290 C.ar  221  TYR221      0.0417
     70  CZ       -58.0420  -12.0460   27.4250 C.ar  221  TYR221      0.1957
     71  OH       -58.6540  -11.1120   26.6260 O.3   221  TYR221     -0.2866
     72  N        -66.6830  -22.2320   38.8510 N.3   291  VAL291     -0.1231
     73  CA       -66.0280  -21.4300   37.8020 C.3   291  VAL291      0.1692
     74  C        -66.9810  -20.3260   37.2520 C.2   291  VAL291      0.2591
     75  O        -66.5980  -19.1520   37.1130 O.2   291  VAL291     -0.2718
     76  CB       -65.5070  -22.3610   36.6530 C.3   291  VAL291      0.0266
     77  CG1      -64.9070  -21.5520   35.4980 C.3   291  VAL291      0.0020
     78  CG2      -64.4670  -23.3450   37.1790 C.3   291  VAL291      0.0020
     79  N        -68.2270  -20.7110   36.9670 N.am  292  MET292     -0.1979
     80  CA       -69.1980  -19.8260   36.3080 C.3   292  MET292      0.1605
     81  C        -70.1430  -19.0980   37.3020 C.2   292  MET292      0.2287
     82  O        -70.3170  -17.8600   37.2070 O.2   292  MET292     -0.2864
     83  CB       -69.9800  -20.6410   35.2720 C.3   292  MET292      0.0413
     84  CG       -69.1260  -21.4490   34.2810 C.3   292  MET292      0.0598
     85  SD       -68.1100  -20.4280   33.1880 S.3   292  MET292     -0.1393
     86  CE       -69.3340  -19.7010   32.0860 C.3   292  MET292      0.0692
     87  N        -55.4920  -23.4640   32.9820 N.3   313  GLY313     -0.1210
     88  CA       -55.4240  -22.3460   32.0600 C.3   313  GLY313      0.1956
     89  C        -55.8570  -22.7030   30.6640 C.2   313  GLY313      0.2613
     90  O        -55.5130  -23.7720   30.1560 O.2   313  GLY313     -0.2717
     91  N        -56.6230  -21.8130   30.0530 N.am  314  SER314     -0.1938
     92  CA       -57.0160  -21.9430   28.6670 C.3   314  SER314      0.2055
     93  C        -57.0990  -20.6170   27.9380 C.2   314  SER314      0.2644
     94  O        -57.5380  -19.5940   28.5190 O.2   314  SER314     -0.2714
     95  CB       -58.3870  -22.5990   28.6040 C.3   314  SER314      0.2130
     96  OG       -58.3510  -23.9190   29.0480 O.3   314  SER314     -0.2179
     97  N        -56.7710  -20.6480   26.6490 N.am  315  THR315     -0.1936
     98  CA       -57.1750  -19.6360   25.6880 C.3   315  THR315      0.2028
     99  C        -58.0040  -20.3700   24.6510 C.2   315  THR315      0.2642
    100  O        -58.1740  -21.5630   24.7510 O.2   315  THR315     -0.2714
    101  CB       -55.9280  -18.9950   25.0000 C.3   315  THR315      0.1808
    102  OG1      -55.0810  -20.0200   24.4770 O.3   315  THR315     -0.2208
    103  CG2      -55.0850  -18.1880   25.9740 C.3   315  THR315      0.0379
    104  N        -58.4300  -19.7300   23.5660 N.am  316  SER316     -0.1949
    105  CA       -59.1720  -20.5010   22.5530 C.3   316  SER316      0.1924
    106  C        -58.3980  -21.6980   21.9860 C.2   316  SER316      0.2314
    107  O        -59.0190  -22.7070   21.6390 O.2   316  SER316     -0.2863
    108  CB       -59.5700  -19.6420   21.3820 C.3   316  SER316      0.2116
    109  OG       -59.9690  -18.4000   21.8870 O.3   316  SER316     -0.2180
    110  N        -57.0440  -26.9310   23.2070 N.3   339  ARG339     -0.1245
    111  CA       -57.8650  -27.1900   24.4000 C.3   339  ARG339      0.1563
    112  C        -58.3220  -28.6080   24.5210 C.2   339  ARG339      0.2260
    113  O        -58.8040  -29.1690   23.5500 O.2   339  ARG339     -0.2867
    114  CB       -59.1290  -26.3570   24.4010 C.3   339  ARG339      0.0307
    115  CG       -58.9100  -25.0510   25.0790 C.3   339  ARG339      0.0489
    116  CD       -60.0990  -24.7380   25.9830 C.3   339  ARG339      0.2205
    117  NE       -60.9570  -23.7520   25.3740 N.pl3 339  ARG339     -0.0865
    118  CZ       -62.1480  -23.4270   25.8380 C.cat 339  ARG339      0.5346
    119  NH1      -62.6440  -24.0210   26.9250 N.pl3 339  ARG339      0.1354
    120  NH2      -62.8590  -22.5150   25.1860 N.pl3 339  ARG339      0.1354
    121  N        -60.6100  -29.8350   31.2450 N.3   342  ASN342     -0.1240
    122  CA       -59.8510  -29.7480   32.5450 C.3   342  ASN342      0.1653
    123  C        -59.7520  -31.0230   33.3640 C.2   342  ASN342      0.2266
    124  O        -58.6830  -31.3340   33.9250 O.2   342  ASN342     -0.2867
    125  CB       -60.3630  -28.6060   33.4090 C.3   342  ASN342      0.1155
    126  CG       -60.1560  -27.3070   32.7410 C.2   342  ASN342      0.2627
    127  OD1      -59.1140  -27.1170   32.1410 O.2   342  ASN342     -0.2716
    128  ND2      -61.1730  -26.4490   32.7320 N.am  342  ASN342     -0.0877
    129  N        -56.8900  -33.1590   32.3330 N.3   345  ARG345     -0.1245
    130  CA       -55.5840  -32.6220   32.7120 C.3   345  ARG345      0.1563
    131  C        -55.2890  -33.0440   34.1820 C.2   345  ARG345      0.2260
    132  O        -54.2340  -33.6260   34.4920 O.2   345  ARG345     -0.2867
    133  CB       -55.5180  -31.0820   32.5170 C.3   345  ARG345      0.0307
    134  CG       -56.0790  -30.5320   31.2020 C.3   345  ARG345      0.0489
    135  CD       -56.0850  -29.0330   31.1280 C.3   345  ARG345      0.2205
    136  NE       -57.0070  -28.4900   30.1020 N.pl3 345  ARG345     -0.0865
    137  CZ       -57.1920  -27.1870   29.8580 C.cat 345  ARG345      0.5346
    138  NH1      -56.5520  -26.2640   30.5560 N.pl3 345  ARG345      0.1354
    139  NH2      -58.0590  -26.7800   28.9190 N.pl3 345  ARG345      0.1354
@<TRIPOS>BOND
     1    56    55    2
     2    53    54    1
     3    55    54    1
     4   108   109    1
     5   108   105    1
     6    54    57    1
     7   107   106    2
     8   106   105    1
     9   105   104    1
    10    57    58    1
    11    57    59    1
    12   110   111    1
    13   113   112    2
    14   104    99   am
    15   111   114    1
    16   111   112    1
    17   114   115    1
    18   102   101    1
    19    99   100    2
    20    99    98    1
    21   101    98    1
    22   101   103    1
    23   115   116    1
    24   120   118    1
    25   117   118    2
    26   117   116    1
    27    98    97    1
    28   118   119    1
    29    71    70    1
    30    97    93   am
    31    68    70   ar
    32    68    66   ar
    33    70    69   ar
    34    66    65   ar
    35    93    94    2
    36    93    92    1
    37    63    62    2
    38    95    92    1
    39    95    96    1
    40    92    91    1
    41    69    67   ar
    42   139   137    1
    43    65    67   ar
    44    65    64    1
    45    29    30    1
    46    29    28    1
    47    62    61    1
    48    32    30   am
    49    30    31    2
    50    28    25    1
    51   137   136    2
    52   137   138    1
    53    64    61    1
    54    91    89   am
    55   136   135    1
    56    90    89    2
    57    61    60    1
    58    89    88    1
    59    25    26    1
    60    25    24    1
    61   135   134    1
    62    26    27    2
    63   134   133    1
    64   121   122    1
    65    52    50   am
    66     1     2    1
    67    23    21    1
    68    24    18   am
    69    88    87    1
    70    86    85    1
    71   127   126    2
    72   129   130    1
    73   133   130    1
    74   122   123    1
    75   122   125    1
    76    50    49    1
    77    50    51    2
    78   130   131    1
    79   128   126   am
    80   126   125    1
    81    21    20    1
    82    21    22    1
    83    49    46    1
    84    18    19    2
    85    18    17    1
    86     6     5    1
    87    85    84    1
    88     2     5    1
    89     2     3    1
    90    20    17    1
    91   123   124    2
    92    17    16    1
    93     3     4    2
    94   131   132    2
    95    84    83    1
    96    46    47    1
    97    46    45    1
    98    15    14    1
    99    47    48    2
   100    83    80    1
   101    77    76    1
   102     7     8    1
   103    14    13    1
   104    44    43    1
   105    42    40   ar
   106    42    43   ar
   107    80    79    1
   108    80    81    1
   109    12    13    1
   110    12    11    1
   111    40    38   ar
   112    43    41   ar
   113    76    78    1
   114    76    73    1
   115     8    11    1
   116     8     9    1
   117    79    74   am
   118    36    35    2
   119    75    74    2
   120    82    81    2
   121    74    73    1
   122    73    72    1
   123    35    34    1
   124    38    39   ar
   125    38    37    1
   126    41    39   ar
   127     9    10    2
   128    37    34    1
   129    34    33    1
