@<TRIPOS>MOLECULE
tmp/5w14B00.pdb
 128 119 0 0 0
SMALL
GASTEIGER

@<TRIPOS>ATOM
      1  N         -8.9850  -10.3400  -10.8880 N.3    64  SER64      -0.1217
      2  CA        -9.2540  -11.7900  -10.7930 C.3    64  SER64       0.1889
      3  C        -10.6950  -12.1830  -10.5000 C.2    64  SER64       0.2288
      4  O        -11.0420  -13.3470  -10.7080 O.2    64  SER64      -0.2866
      5  CB        -8.3710  -12.4430   -9.6960 C.3    64  SER64       0.2089
      6  OG        -7.0520  -12.4130  -10.1860 O.3    64  SER64      -0.2183
      7  N        -12.3510  -14.0580  -13.3170 N.3    67  LYS67      -0.1245
      8  CA       -12.3300  -15.5300  -13.2950 C.3    67  LYS67       0.1561
      9  C        -13.6900  -16.1590  -13.1120 C.2    67  LYS67       0.2260
     10  O        -13.9230  -17.2880  -13.5790 O.2    67  LYS67      -0.2867
     11  CB       -11.3500  -16.0740  -12.2650 C.3    67  LYS67       0.0271
     12  CG        -9.8940  -15.6860  -12.5750 C.3    67  LYS67       0.0035
     13  CD        -8.8820  -16.1290  -11.4960 C.3    67  LYS67       0.0206
     14  CE        -7.4370  -15.9200  -11.9780 C.3    67  LYS67       0.1093
     15  NZ        -6.9860  -14.4980  -12.1170 N.3    67  LYS67      -0.1314
     16  N          1.8250  -18.0940  -11.5110 N.3   119  LEU119     -0.1231
     17  CA         0.8200  -17.0210  -11.4730 C.3   119  LEU119      0.1693
     18  C          0.6840  -16.2650  -12.8180 C.2   119  LEU119      0.2591
     19  O         -0.4320  -15.9860  -13.2790 O.2   119  LEU119     -0.2718
     20  CB         1.0880  -16.0430  -10.3180 C.3   119  LEU119      0.0284
     21  CG         0.1140  -14.8470  -10.2400 C.3   119  LEU119      0.0019
     22  CD1       -1.2550  -15.4050   -9.9970 C.3   119  LEU119      0.0001
     23  CD2        0.5070  -13.8970   -9.1180 C.3   119  LEU119      0.0001
     24  N          1.8010  -15.8760  -13.4080 N.am  120  GLN120     -0.1979
     25  CA         1.8370  -15.0750  -14.6520 C.3   120  GLN120      0.1601
     26  C          2.6370  -15.7770  -15.7500 C.2   120  GLN120      0.2287
     27  O          3.5240  -16.5670  -15.5010 O.2   120  GLN120     -0.2864
     28  CB         2.4170  -13.6650  -14.4300 C.3   120  GLN120      0.0394
     29  CG         1.7280  -12.8830  -13.2840 C.3   120  GLN120      0.0908
     30  CD         0.3500  -12.3360  -13.5930 C.2   120  GLN120      0.2608
     31  OE1       -0.2280  -12.5800  -14.6550 O.2   120  GLN120     -0.2717
     32  NE2       -0.2060  -11.5830  -12.6530 N.am  120  GLN120     -0.0878
     33  N         -2.1750  -21.2780   -7.9330 N.3   150  TYR150     -0.1241
     34  CA        -3.0410  -20.2190   -8.4940 C.3   150  TYR150      0.1605
     35  C         -2.3280  -19.5980   -9.6980 C.2   150  TYR150      0.2264
     36  O         -1.1590  -19.1670   -9.6420 O.2   150  TYR150     -0.2867
     37  CB        -3.4290  -19.2010   -7.4200 C.3   150  TYR150      0.0534
     38  CG        -4.3920  -18.1430   -7.7950 C.ar  150  TYR150     -0.0201
     39  CD1       -5.7080  -18.4350   -8.1760 C.ar  150  TYR150     -0.0009
     40  CD2       -3.9680  -16.8050   -7.8670 C.ar  150  TYR150     -0.0009
     41  CE1       -6.5940  -17.4040   -8.4920 C.ar  150  TYR150      0.0417
     42  CE2       -4.8600  -15.7790   -8.1230 C.ar  150  TYR150      0.0417
     43  CZ        -6.1660  -16.1060   -8.4430 C.ar  150  TYR150      0.1957
     44  OH        -6.9910  -15.1310   -8.8100 O.3   150  TYR150     -0.2866
     45  N         -2.8900  -17.5150  -13.7680 N.3   152  ASN152     -0.1240
     46  CA        -3.5790  -16.8690  -14.9230 C.3   152  ASN152      0.1653
     47  C         -3.4510  -17.6590  -16.1820 C.2   152  ASN152      0.2266
     48  O         -4.4430  -17.8830  -16.8590 O.2   152  ASN152     -0.2867
     49  CB        -3.1230  -15.4210  -15.1210 C.3   152  ASN152      0.1155
     50  CG        -3.5790  -14.5170  -13.9920 C.2   152  ASN152      0.2627
     51  OD1       -4.6260  -14.8160  -13.4150 O.2   152  ASN152     -0.2716
     52  ND2       -2.8290  -13.4280  -13.6610 N.am  152  ASN152     -0.0877
     53  N         -5.1900   -0.9520  -16.4570 N.3   212  VAL212     -0.1231
     54  CA        -4.6170   -2.2590  -16.7000 C.3   212  VAL212      0.1692
     55  C         -3.8560   -2.2570  -18.0500 C.2   212  VAL212      0.2592
     56  O         -4.2320   -1.5660  -18.9650 O.2   212  VAL212     -0.2718
     57  CB        -5.6840   -3.3640  -16.6770 C.3   212  VAL212      0.0266
     58  CG1       -6.6570   -3.2750  -17.8930 C.3   212  VAL212      0.0020
     59  CG2       -5.0420   -4.7390  -16.6660 C.3   212  VAL212      0.0020
     60  N         -2.7780   -3.0280  -18.1240 N.am  213  ASN213     -0.1974
     61  CA        -2.0130   -3.2180  -19.3340 C.3   213  ASN213      0.1688
     62  C         -2.5770   -4.4030  -20.0980 C.2   213  ASN213      0.2292
     63  O         -2.9960   -5.3990  -19.4910 O.2   213  ASN213     -0.2864
     64  CB        -0.5020   -3.4350  -19.0650 C.3   213  ASN213      0.1181
     65  CG         0.1790   -2.1590  -18.5700 C.2   213  ASN213      0.2629
     66  OD1       -0.1020   -1.0910  -19.0380 O.2   213  ASN213     -0.2716
     67  ND2        1.0130   -2.2810  -17.5960 N.am  213  ASN213     -0.0877
     68  N         -8.1800  -11.8740  -15.9990 N.3   222  TYR222     -0.1241
     69  CA        -8.3400  -10.7040  -15.1510 C.3   222  TYR222      0.1605
     70  C         -8.9060   -9.5100  -15.8390 C.2   222  TYR222      0.2264
     71  O         -8.8050   -8.4010  -15.3290 O.2   222  TYR222     -0.2867
     72  CB        -6.9880  -10.3330  -14.4720 C.3   222  TYR222      0.0534
     73  CG        -5.8670  -10.0860  -15.4570 C.ar  222  TYR222     -0.0201
     74  CD1       -5.7430   -8.8810  -16.1530 C.ar  222  TYR222     -0.0009
     75  CD2       -4.9320  -11.0820  -15.6990 C.ar  222  TYR222     -0.0009
     76  CE1       -4.6990   -8.6770  -17.0240 C.ar  222  TYR222      0.0417
     77  CE2       -3.9000  -10.8680  -16.5790 C.ar  222  TYR222      0.0417
     78  CZ        -3.7690   -9.7020  -17.2110 C.ar  222  TYR222      0.1957
     79  OH        -2.7460   -9.6240  -18.1230 O.3   222  TYR222     -0.2866
     80  N         -2.1340  -18.4640   -1.8920 N.3   292  VAL292     -0.1245
     81  CA        -2.1480  -17.6950   -3.1320 C.3   292  VAL292      0.1561
     82  C         -0.9270  -17.8720   -4.0210 C.2   292  VAL292      0.2260
     83  O         -1.0560  -17.9070   -5.2500 O.2   292  VAL292     -0.2867
     84  CB        -2.3470  -16.1760   -2.8660 C.3   292  VAL292      0.0252
     85  CG1       -2.3060  -15.3960   -4.1930 C.3   292  VAL292      0.0019
     86  CG2       -3.6680  -15.9300   -2.1210 C.3   292  VAL292      0.0019
     87  N        -10.1590   -9.8640   -6.0070 N.3   314  GLY314     -0.1210
     88  CA        -9.4530   -9.5770   -7.2340 C.3   314  GLY314      0.1956
     89  C         -8.8150   -8.2230   -7.1870 C.2   314  GLY314      0.2613
     90  O         -9.2620   -7.3340   -6.5120 O.2   314  GLY314     -0.2717
     91  N         -7.7310   -8.1120   -7.8960 N.am  315  SER315     -0.1938
     92  CA        -7.0460   -6.8460   -8.0440 C.3   315  SER315      0.2055
     93  C         -6.4220   -6.7290   -9.4430 C.2   315  SER315      0.2644
     94  O         -6.0290   -7.7330  -10.0910 O.2   315  SER315     -0.2714
     95  CB        -5.8790   -6.7890   -7.0300 C.3   315  SER315      0.2130
     96  OG        -6.2920   -7.0160   -5.7330 O.3   315  SER315     -0.2179
     97  N         -6.3160   -5.4910   -9.8890 N.am  316  THR316     -0.1936
     98  CA        -5.3640   -5.1010  -10.9070 C.3   316  THR316      0.2028
     99  C         -4.3610   -4.1880  -10.2220 C.2   316  THR316      0.2642
    100  O         -4.4450   -3.9700   -8.9870 O.2   316  THR316     -0.2714
    101  CB        -5.9880   -4.3720  -12.1100 C.3   316  THR316      0.1808
    102  OG1       -6.7330   -3.2580  -11.6260 O.3   316  THR316     -0.2208
    103  CG2       -6.8430   -5.2990  -12.8470 C.3   316  THR316      0.0379
    104  N         -3.4120   -3.6180  -10.9750 N.am  317  SER317     -0.1949
    105  CA        -2.4480   -2.6900  -10.2650 C.3   317  SER317      0.1924
    106  C         -3.1010   -1.5440   -9.5560 C.2   317  SER317      0.2314
    107  O         -2.6100   -1.0800   -8.5130 O.2   317  SER317     -0.2863
    108  CB        -1.4090   -2.1310  -11.2160 C.3   317  SER317      0.2116
    109  OG        -0.7320   -3.2080  -11.7660 O.3   317  SER317     -0.2180
    110  N         -5.9130   -0.5290   -4.7360 N.3   340  ARG340     -0.1301
    111  CA        -5.8360   -1.7840   -3.9660 C.3   340  ARG340      0.1248
    112  C         -5.6860   -1.4860   -2.5290 C.3   340  ARG340      0.2009
    113  O         -4.9510   -0.5050   -2.1370 O.3   340  ARG340     -0.2188
    114  CB        -4.6240   -2.6090   -4.3940 C.3   340  ARG340      0.0254
    115  CG        -4.7220   -3.3520   -5.6740 C.3   340  ARG340      0.0485
    116  CD        -3.4920   -4.2460   -5.9720 C.3   340  ARG340      0.2205
    117  NE        -2.2950   -3.4030   -5.9700 N.pl3 340  ARG340     -0.0865
    118  CZ        -1.4250   -3.2900   -4.9670 C.cat 340  ARG340      0.5346
    119  NH1       -1.5460   -4.0220   -3.8570 N.pl3 340  ARG340      0.1354
    120  NH2       -0.3970   -2.4470   -5.1000 N.pl3 340  ARG340      0.1354
    121  N         -6.1710   -7.5260    0.9280 N.3   343  ASN343     -0.1240
    122  CA        -7.2970   -8.4730    0.8730 C.3   343  ASN343      0.1653
    123  C         -7.9230   -8.7010    2.2460 C.2   343  ASN343      0.2266
    124  O         -9.1250   -8.8240    2.3990 O.2   343  ASN343     -0.2867
    125  CB        -6.8510   -9.8060    0.2660 C.3   343  ASN343      0.1155
    126  CG        -6.6080   -9.7040   -1.2040 C.2   343  ASN343      0.2627
    127  OD1       -7.3780   -9.0650   -1.8940 O.2   343  ASN343     -0.2716
    128  ND2       -5.5730  -10.4110   -1.7130 N.am  343  ASN343     -0.0877
@<TRIPOS>BOND
     1    62    63    2
     2    62    61    1
     3    61    64    1
     4    61    60    1
     5    64    65    1
     6    66    65    2
     7    56    55    2
     8    65    67   am
     9    60    55   am
    10    79    78    1
    11    55    54    1
    12    58    57    1
    13    78    76   ar
    14    78    77   ar
    15    76    74   ar
    16    48    47    2
    17    54    57    1
    18    54    53    1
    19    57    59    1
    20    77    75   ar
    21    47    46    1
    22    74    73   ar
    23    68    69    1
    24    70    71    2
    25    70    69    1
    26    26    27    2
    27    26    25    1
    28    75    73   ar
    29    73    72    1
    30    69    72    1
    31    49    46    1
    32    49    50    1
    33    46    45    1
    34    31    30    2
    35    25    28    1
    36    25    24    1
    37    28    29    1
    38    50    52   am
    39    50    51    2
    40    30    29    1
    41    30    32   am
    42    10     9    2
    43    24    18   am
    44     7     8    1
    45     8     9    1
    46     8    11    1
    47    19    18    2
    48   103   101    1
    49    18    17    1
    50    12    11    1
    51    12    13    1
    52    15    14    1
    53   101   102    1
    54   101    98    1
    55    14    13    1
    56   109   108    1
    57    16    17    1
    58    17    20    1
    59   108   105    1
    60   104   105    1
    61   104    99   am
    62    98    99    1
    63    98    97    1
    64     1     2    1
    65     2     3    1
    66     2     5    1
    67     4     3    2
    68    20    21    1
    69   105   106    1
    70    21    22    1
    71    21    23    1
    72    99   100    2
    73     6     5    1
    74    94    93    2
    75    97    93   am
    76    35    36    2
    77    35    34    1
    78   106   107    2
    79    93    92    1
    80    44    43    1
    81    34    33    1
    82    34    37    1
    83    41    43   ar
    84    41    39   ar
    85    43    42   ar
    86    39    38   ar
    87    42    40   ar
    88    92    91    1
    89    92    95    1
    90    91    89   am
    91    40    38   ar
    92    38    37    1
    93    88    89    1
    94    88    87    1
    95    89    90    2
    96    95    96    1
    97   116   117    1
    98   116   115    1
    99   117   118    2
   100   115   114    1
   101    83    82    2
   102   120   118    1
   103   118   119    1
   104   110   111    1
   105   114   111    1
   106    85    84    1
   107    82    81    1
   108   111   112    1
   109    81    84    1
   110    81    80    1
   111    84    86    1
   112   112   113    1
   113   127   126    2
   114   128   126   am
   115   126   125    1
   116   125   122    1
   117   122   121    1
   118   122   123    1
   119   123   124    2
