@<TRIPOS>MOLECULE
tmp/5w16B00.pdb
 118 113 0 0 0
SMALL
GASTEIGER

@<TRIPOS>ATOM
      1  N        -30.6940   -7.4830    9.7450 N.3    11  ASP11      -0.1225
      2  CA       -30.2020   -6.6100   10.7950 C.3    11  ASP11       0.1805
      3  C        -28.7810   -6.2690   10.4100 C.2    11  ASP11       0.2598
      4  O        -28.2160   -6.8740    9.4890 O.2    11  ASP11      -0.2718
      5  CB       -30.2630   -7.3300   12.1400 C.3    11  ASP11       0.1424
      6  CG       -29.6940   -6.5250   13.2920 C.2    11  ASP11       0.3668
      7  OD1      -30.1080   -5.3770   13.4900 O.co2  11  ASP11      -0.2456
      8  OD2      -28.8210   -7.0650   14.0110 O.co2  11  ASP11      -0.2456
      9  N        -28.1930   -5.3270   11.1390 N.am   12  SER12      -0.1952
     10  CA       -26.7910   -5.0270   10.9220 C.3    12  SER12       0.1924
     11  C        -25.8800   -6.1560   11.3970 C.2    12  SER12       0.2314
     12  O        -24.7230   -6.2200   10.9890 O.2    12  SER12      -0.2863
     13  CB       -26.4750   -3.6940   11.6280 C.3    12  SER12       0.2116
     14  OG       -26.7390   -3.7230   13.0330 O.3    12  SER12      -0.2180
     15  N        -21.6690   -3.0970   10.0100 N.3    41  VAL41      -0.1231
     16  CA       -22.1610   -2.7880   11.3610 C.3    41  VAL41       0.1678
     17  C        -21.1770   -1.8140   12.0110 C.2    41  VAL41       0.2434
     18  O        -19.9660   -1.9180   11.7580 O.2    41  VAL41      -0.2733
     19  CB       -22.3190   -4.0900   12.1900 C.3    41  VAL41       0.0265
     20  CG1      -20.9980   -4.7650   12.4970 C.3    41  VAL41       0.0020
     21  CG2      -23.0810   -3.8720   13.5270 C.3    41  VAL41       0.0020
     22  N        -21.6260   -0.8590   12.8380 N.am   42  PRO42      -0.2718
     23  CA       -23.0480   -0.6140   13.1700 C.3    42  PRO42       0.1535
     24  C        -23.6770    0.4830   12.3570 C.2    42  PRO42       0.2599
     25  O        -23.0020    1.3290   11.7930 O.2    42  PRO42      -0.2715
     26  CB       -22.9880   -0.2430   14.6210 C.3    42  PRO42       0.0310
     27  CG       -21.6660    0.5620   14.7380 C.3    42  PRO42       0.0237
     28  CD       -20.7200   -0.0370   13.6710 C.3    42  PRO42       0.0939
     29  N        -24.9980    0.4330   12.2920 N.am   43  TYR43      -0.1960
     30  CA       -25.7960    1.4220   11.6080 C.3    43  TYR43       0.1771
     31  C        -26.0880    2.6690   12.4440 C.2    43  TYR43       0.2620
     32  O        -26.3620    3.7380   11.8830 O.2    43  TYR43      -0.2715
     33  CB       -27.1280    0.7640   11.2100 C.3    43  TYR43       0.0574
     34  CG       -27.0790   -0.2820   10.1130 C.ar   43  TYR43      -0.0198
     35  CD1      -25.8970   -0.6240    9.4510 C.ar   43  TYR43      -0.0009
     36  CD2      -28.2440   -0.9370    9.7480 C.ar   43  TYR43      -0.0009
     37  CE1      -25.8950   -1.5640    8.4150 C.ar   43  TYR43       0.0417
     38  CE2      -28.2550   -1.8580    8.6950 C.ar   43  TYR43       0.0417
     39  CZ       -27.0990   -2.1750    8.0490 C.ar   43  TYR43       0.1957
     40  OH       -27.1630   -3.1100    7.0470 O.3    43  TYR43      -0.2866
     41  N        -26.0760    2.5640   13.7760 N.am   44  GLY44      -0.1954
     42  CA       -26.5870    3.6600   14.5990 C.3    44  GLY44       0.1869
     43  C        -25.8530    4.9790   14.4580 C.2    44  GLY44       0.2309
     44  O        -26.4440    6.0360   14.6510 O.2    44  GLY44      -0.2863
     45  N        -33.7230   -4.7030   12.6440 N.3    74  CYS74      -0.1221
     46  CA       -33.0210   -3.5120   13.1030 C.3    74  CYS74       0.1808
     47  C        -33.9290   -2.3040   13.2740 C.2    74  CYS74       0.2601
     48  O        -34.6660   -1.9370   12.3590 O.2    74  CYS74      -0.2717
     49  CB       -31.9130   -3.1890   12.1040 C.3    74  CYS74       0.0970
     50  SG       -30.8360   -1.8330   12.5970 S.3    74  CYS74      -0.0800
     51  N        -33.8420   -1.6510   14.4610 N.am   75  ASN75      -0.1960
     52  CA       -34.5900   -0.4220   14.7220 C.3    75  ASN75       0.1819
     53  C        -34.0240    0.7680   13.9450 C.2    75  ASN75       0.2621
     54  O        -34.7730    1.6730   13.5330 O.2    75  ASN75      -0.2715
     55  CB       -34.5770   -0.0800   16.2310 C.3    75  ASN75       0.1195
     56  CG       -35.2940   -1.1170   17.0720 C.2    75  ASN75       0.2630
     57  OD1      -34.7810   -2.1910   17.3340 O.2    75  ASN75      -0.2716
     58  ND2      -36.4950   -0.7890   17.4760 N.am   75  ASN75      -0.0877
     59  N        -32.7140    0.8050   13.7580 N.am   76  THR76      -0.1951
     60  CA       -32.1540    1.8770   12.9590 C.3    76  THR76       0.1897
     61  C        -32.5920    1.7310   11.5000 C.2    76  THR76       0.2313
     62  O        -33.0660    2.6940   10.8850 O.2    76  THR76      -0.2863
     63  CB       -30.6400    1.8690   13.0790 C.3    76  THR76       0.1794
     64  OG1      -30.2460    2.0450   14.4310 O.3    76  THR76      -0.2208
     65  CG2      -30.0750    2.9980   12.2540 C.3    76  THR76       0.0378
     66  N        -30.5090    3.9900   19.2050 N.3   115  THR115     -0.1218
     67  CA       -29.3080    4.5820   18.6650 C.3   115  THR115      0.1862
     68  C        -29.5700    6.0420   18.3250 C.2   115  THR115      0.2287
     69  O        -30.7160    6.4970   18.2050 O.2   115  THR115     -0.2866
     70  CB       -28.8410    3.8720   17.3800 C.3   115  THR115      0.1770
     71  OG1      -29.8400    4.0660   16.3880 O.3   115  THR115     -0.2211
     72  CG2      -28.5890    2.3960   17.5840 C.3   115  THR115      0.0375
     73  N        -31.7700    6.2820   15.1930 N.3   118  THR118     -0.1218
     74  CA       -33.1720    6.0440   15.5150 C.3   118  THR118      0.1862
     75  C        -33.8120    7.2590   16.1930 C.2   118  THR118      0.2287
     76  O        -34.9130    7.6930   15.8180 O.2   118  THR118     -0.2866
     77  CB       -33.2820    4.8070   16.4160 C.3   118  THR118      0.1770
     78  OG1      -32.8500    3.6580   15.6760 O.3   118  THR118     -0.2211
     79  CG2      -34.7330    4.5460   16.9690 C.3   118  THR118      0.0375
     80  N        -25.2060   -0.8660   23.2230 N.3   140  VAL140     -0.1245
     81  CA       -24.9170   -1.9560   22.2810 C.3   140  VAL140      0.1561
     82  C        -23.5950   -2.6480   22.6150 C.2   140  VAL140      0.2260
     83  O        -23.5980   -3.8680   22.8280 O.2   140  VAL140     -0.2867
     84  CB       -24.9680   -1.4380   20.8330 C.3   140  VAL140      0.0252
     85  CG1      -24.3300   -2.3970   19.8690 C.3   140  VAL140      0.0019
     86  CG2      -26.4570   -1.1790   20.4420 C.3   140  VAL140      0.0019
     87  N        -22.7970   -6.5470   23.7800 N.3   144  GLU144     -0.1245
     88  CA       -21.9680   -7.4660   22.9940 C.3   144  GLU144      0.1567
     89  C        -20.7640   -7.9330   23.7890 C.2   144  GLU144      0.2260
     90  O        -20.2110   -8.9890   23.4830 O.2   144  GLU144     -0.2867
     91  CB       -21.5250   -6.8020   21.6760 C.3   144  GLU144      0.0388
     92  CG       -22.7140   -6.5220   20.7710 C.3   144  GLU144      0.1160
     93  CD       -22.3820   -6.1370   19.3160 C.2   144  GLU144      0.3649
     94  OE1      -21.2080   -5.8940   18.9720 O.co2 144  GLU144     -0.2457
     95  OE2      -23.3400   -6.0860   18.5280 O.co2 144  GLU144     -0.2457
     96  N        -34.0960   -0.6590   20.1880 N.3   175  CYS175     -0.1221
     97  CA       -32.8390   -1.1420   19.6340 C.3   175  CYS175      0.1808
     98  C        -32.7850   -2.6420   19.8870 C.2   175  CYS175      0.2602
     99  O        -33.2060   -3.0970   20.9500 O.2   175  CYS175     -0.2717
    100  CB       -31.6430   -0.4370   20.2940 C.3   175  CYS175      0.0970
    101  SG       -30.0070   -1.1440   19.9370 S.3   175  CYS175     -0.0800
    102  N        -32.2360   -3.3950   18.9150 N.am  176  THR176     -0.1939
    103  CA       -32.2220   -4.8550   18.9570 C.3   176  THR176      0.2028
    104  C        -31.5940   -5.4140   20.2420 C.2   176  THR176      0.2642
    105  O        -31.9730   -6.4990   20.6940 O.2   176  THR176     -0.2714
    106  CB       -31.4540   -5.4010   17.7650 C.3   176  THR176      0.1808
    107  OG1      -30.2030   -4.6980   17.6470 O.3   176  THR176     -0.2208
    108  CG2      -32.2560   -5.2670   16.4600 C.3   176  THR176      0.0379
    109  N        -30.6100   -4.7230   20.8130 N.am  177  HIS177     -0.1973
    110  CA       -29.8130   -5.2820   21.8880 C.3   177  HIS177      0.1656
    111  C        -30.4730   -5.0980   23.2550 C.2   177  HIS177      0.2291
    112  O        -30.0440   -5.7270   24.2330 O.2   177  HIS177     -0.2864
    113  CB       -28.4070   -4.6240   21.9380 C.3   177  HIS177      0.0771
    114  CG       -27.5200   -4.9490   20.7590 C.ar  177  HIS177      0.0820
    115  ND1      -27.8850   -4.6780   19.4490 N.ar  177  HIS177     -0.2267
    116  CD2      -26.2860   -5.5060   20.6930 C.ar  177  HIS177      0.1154
    117  CE1      -26.9090   -5.0480   18.6390 C.ar  177  HIS177      0.1986
    118  NE2      -25.9260   -5.5520   19.3600 N.ar  177  HIS177     -0.2212
@<TRIPOS>BOND
     1    40    39    1
     2    39    37   ar
     3    39    38   ar
     4    37    35   ar
     5    38    36   ar
     6    35    34   ar
     7     4     3    2
     8     1     2    1
     9    36    34   ar
    10    15    16    1
    11    34    33    1
    12     3     2    1
    13     3     9   am
    14     2     5    1
    15    62    61    2
    16    10     9    1
    17    10    11    1
    18    10    13    1
    19    12    11    2
    20    33    30    1
    21    16    17    1
    22    16    19    1
    23    61    60    1
    24    30    29    1
    25    30    31    1
    26    13    14    1
    27    18    17    2
    28    25    24    2
    29    32    31    2
    30    17    22   am
    31    49    50    1
    32    49    46    1
    33     5     6    1
    34    19    20    1
    35    19    21    1
    36    65    63    1
    37    29    24   am
    38    24    23    1
    39    48    47    2
    40    31    41   am
    41    45    46    1
    42    22    23    1
    43    22    28    1
    44    60    63    1
    45    60    59    1
    46    63    64    1
    47    46    47    1
    48    23    26    1
    49    47    51   am
    50     6     7   ar
    51     6     8   ar
    52    54    53    2
    53    28    27    1
    54    59    53   am
    55    41    42    1
    56    53    52    1
    57    43    42    1
    58    43    44    2
    59    51    52    1
    60    26    27    1
    61    52    55    1
    62    73    74    1
    63    74    75    1
    64    74    77    1
    65    78    77    1
    66    76    75    2
    67    55    56    1
    68    71    70    1
    69    77    79    1
    70   108   106    1
    71    56    57    2
    72    56    58   am
    73    70    72    1
    74    70    67    1
    75   107   106    1
    76   106   103    1
    77    69    68    2
    78    68    67    1
    79    95    93   ar
    80   117   118   ar
    81   117   115   ar
    82    67    66    1
    83   102   103    1
    84   102    98   am
    85   103   104    1
    86    94    93   ar
    87    93    92    1
    88   118   116   ar
    89   115   114   ar
    90    97    98    1
    91    97    96    1
    92    97   100    1
    93    85    84    1
    94    98    99    2
    95   101   100    1
    96   104   105    2
    97   104   109   am
    98    86    84    1
    99   116   114   ar
   100   114   113    1
   101    92    91    1
   102   109   110    1
   103    84    81    1
   104    91    88    1
   105   110   113    1
   106   110   111    1
   107    81    82    1
   108    81    80    1
   109    82    83    2
   110    88    87    1
   111    88    89    1
   112   111   112    2
   113    90    89    2
