@<TRIPOS>MOLECULE
tmp/5w17A00.pdb
 218 202 0 0 0
SMALL
GASTEIGER

@<TRIPOS>ATOM
      1  N         31.0040  -72.6740   21.3030 N.3    25  VAL25      -0.1245
      2  CA        30.3300  -71.9930   20.1820 C.3    25  VAL25       0.1561
      3  C         28.8810  -72.5000   20.1310 C.2    25  VAL25       0.2260
      4  O         28.6530  -73.7180   20.0280 O.2    25  VAL25      -0.2867
      5  CB        30.9790  -72.2400   18.8100 C.3    25  VAL25       0.0252
      6  CG1       30.4440  -71.2220   17.8070 C.3    25  VAL25       0.0019
      7  CG2       32.4890  -72.1610   18.9050 C.3    25  VAL25       0.0019
      8  N         20.6430  -72.1830   12.5220 N.3    29  PHE29      -0.1241
      9  CA        20.6150  -71.8840   11.1050 C.3    29  PHE29       0.1605
     10  C         19.3590  -71.0840   10.8230 C.2    29  PHE29       0.2264
     11  O         18.2720  -71.5090   11.2560 O.2    29  PHE29      -0.2867
     12  CB        20.5900  -73.1740   10.3030 C.3    29  PHE29       0.0534
     13  CG        21.8260  -74.0050   10.4410 C.ar   29  PHE29      -0.0203
     14  CD1       22.0060  -74.8540   11.5340 C.ar   29  PHE29      -0.0042
     15  CD2       22.8110  -73.9720    9.4570 C.ar   29  PHE29      -0.0042
     16  CE1       23.1540  -75.6420   11.6490 C.ar   29  PHE29      -0.0003
     17  CE2       23.9520  -74.7690    9.5700 C.ar   29  PHE29      -0.0003
     18  CZ        24.1250  -75.6060   10.6670 C.ar   29  PHE29      -0.0000
     19  N         14.3100  -83.1690    7.7450 N.3    50  VAL50      -0.1245
     20  CA        14.7530  -81.7730    7.8040 C.3    50  VAL50       0.1561
     21  C         15.8690  -81.5910    6.7620 C.2    50  VAL50       0.2260
     22  O         16.6320  -82.5410    6.4910 O.2    50  VAL50      -0.2867
     23  CB        15.2510  -81.3740    9.2210 C.3    50  VAL50       0.0252
     24  CG1       15.6040  -79.9040    9.2850 C.3    50  VAL50       0.0019
     25  CG2       14.2010  -81.6530   10.2710 C.3    50  VAL50       0.0019
     26  N         18.6820  -78.3370    5.9120 N.3    52  ILE52      -0.1245
     27  CA        19.2350  -77.1280    6.4940 C.3    52  ILE52       0.1561
     28  C         20.1660  -76.5350    5.4660 C.2    52  ILE52       0.2260
     29  O         21.0290  -77.2570    4.9440 O.2    52  ILE52      -0.2867
     30  CB        20.0460  -77.4830    7.7500 C.3    52  ILE52       0.0252
     31  CG1       19.1200  -77.9920    8.8420 C.3    52  ILE52       0.0019
     32  CG2       20.7480  -76.2690    8.2910 C.3    52  ILE52       0.0019
     33  CD1       19.5690  -79.3200    9.3770 C.3    52  ILE52       0.0001
     34  N         26.6140  -68.1610   14.0210 N.3    59  THR59      -0.1218
     35  CA        27.2340  -68.3210   15.3230 C.3    59  THR59       0.1862
     36  C         27.4580  -66.9600   15.9740 C.2    59  THR59       0.2287
     37  O         28.3790  -66.7860   16.7740 O.2    59  THR59      -0.2866
     38  CB        28.5320  -69.1540   15.2510 C.3    59  THR59       0.1770
     39  OG1       29.4640  -68.5480   14.3450 O.3    59  THR59      -0.2211
     40  CG2       28.2360  -70.5350   14.7820 C.3    59  THR59       0.0375
     41  N         33.4440  -65.9500   11.3520 N.3    64  ARG64      -0.1245
     42  CA        33.4300  -67.4100   11.6140 C.3    64  ARG64       0.1563
     43  C         32.4010  -68.0950   10.7250 C.2    64  ARG64       0.2260
     44  O         32.6750  -69.1300   10.1150 O.2    64  ARG64      -0.2867
     45  CB        33.1350  -67.7350   13.0870 C.3    64  ARG64       0.0307
     46  CG        33.5920  -69.1140   13.5520 C.3    64  ARG64       0.0489
     47  CD        32.6740  -69.6110   14.6530 C.3    64  ARG64       0.2205
     48  NE        33.0000  -69.0640   15.9800 N.pl3  64  ARG64      -0.0865
     49  CZ        32.2230  -68.2450   16.7090 C.cat  64  ARG64       0.5346
     50  NH1       31.0480  -67.8220   16.2710 N.pl3  64  ARG64       0.1354
     51  NH2       32.6370  -67.8190   17.8950 N.pl3  64  ARG64       0.1354
     52  N         33.7500  -68.4300    7.4410 N.3    67  HIS67      -0.1226
     53  CA        34.7970  -69.4260    7.4880 C.3    67  HIS67       0.1752
     54  C         34.1940  -70.8500    7.4730 C.2    67  HIS67       0.2595
     55  O         34.7870  -71.7820    6.8980 O.2    67  HIS67      -0.2718
     56  CB        35.7740  -69.1490    8.6600 C.3    67  HIS67       0.0759
     57  CG        36.9920  -70.0270    8.6600 C.ar   67  HIS67       0.0818
     58  ND1       37.5930  -70.4660    9.8240 N.ar   67  HIS67      -0.2268
     59  CD2       37.6960  -70.5820    7.6410 C.ar   67  HIS67       0.1154
     60  CE1       38.6180  -71.2470    9.5230 C.ar   67  HIS67       0.1986
     61  NE2       38.6970  -71.3390    8.2050 N.ar   67  HIS67      -0.2212
     62  N         32.9920  -70.9990    8.0480 N.am   68  LEU68      -0.1980
     63  CA        32.3510  -72.3150    8.1690 C.3    68  LEU68       0.1596
     64  C         31.9960  -72.9290    6.8070 C.2    68  LEU68       0.2287
     65  O         32.0760  -74.1610    6.6230 O.2    68  LEU68      -0.2864
     66  CB        31.1380  -72.2660    9.1040 C.3    68  LEU68       0.0297
     67  CG        31.5180  -72.3190   10.5900 C.3    68  LEU68       0.0022
     68  CD1       30.3840  -71.8560   11.4720 C.3    68  LEU68       0.0001
     69  CD2       32.0070  -73.6750   11.0490 C.3    68  LEU68       0.0001
     70  N         35.7950  -76.7710    6.6400 N.3    73  PHE73      -0.1227
     71  CA        34.5060  -77.0110    7.3190 C.3    73  PHE73       0.1736
     72  C         33.4090  -77.5820    6.3970 C.2    73  PHE73       0.2595
     73  O         33.5420  -78.7290    5.9540 O.2    73  PHE73      -0.2718
     74  CB        34.0610  -75.7720    8.1030 C.3    73  PHE73       0.0547
     75  CG        34.9380  -75.5070    9.2660 C.ar   73  PHE73      -0.0202
     76  CD1       34.7000  -76.1350   10.4810 C.ar   73  PHE73      -0.0042
     77  CD2       36.0840  -74.7170    9.1240 C.ar   73  PHE73      -0.0042
     78  CE1       35.5590  -75.9360   11.5490 C.ar   73  PHE73      -0.0003
     79  CE2       36.9490  -74.5130   10.1890 C.ar   73  PHE73      -0.0003
     80  CZ        36.6830  -75.1220   11.4050 C.ar   73  PHE73      -0.0000
     81  N         32.3520  -76.8150    6.1180 N.am   74  PHE74      -0.1976
     82  CA        31.1740  -77.3430    5.4030 C.3    74  PHE74       0.1639
     83  C         31.3180  -77.6290    3.9000 C.2    74  PHE74       0.2290
     84  O         30.7160  -78.5810    3.4000 O.2    74  PHE74      -0.2864
     85  CB        29.9210  -76.4940    5.6540 C.3    74  PHE74       0.0560
     86  CG        29.2760  -76.7240    7.0080 C.ar   74  PHE74      -0.0200
     87  CD1       28.7360  -77.9830    7.3570 C.ar   74  PHE74      -0.0042
     88  CD2       29.1800  -75.6740    7.9400 C.ar   74  PHE74      -0.0042
     89  CE1       28.1360  -78.1880    8.6070 C.ar   74  PHE74      -0.0003
     90  CE2       28.5750  -75.8790    9.1840 C.ar   74  PHE74      -0.0003
     91  CZ        28.0460  -77.1320    9.5160 C.ar   74  PHE74      -0.0000
     92  N         22.5820  -79.6240    4.7910 N.3    82  MET82      -0.1245
     93  CA        22.6310  -80.8440    5.5620 C.3    82  MET82       0.1570
     94  C         21.2200  -81.2920    5.7720 C.2    82  MET82       0.2261
     95  O         20.3020  -80.4600    5.8720 O.2    82  MET82      -0.2867
     96  CB        23.4760  -80.7720    6.8290 C.3    82  MET82       0.0387
     97  CG        22.8960  -80.0230    8.0060 C.3    82  MET82       0.0595
     98  SD        23.9800  -80.0950    9.4560 S.3    82  MET82      -0.1393
     99  CE        24.3300  -81.8270    9.4840 C.3    82  MET82       0.0692
    100  N         18.5670  -84.3340    7.6190 N.3    84  PHE84      -0.1241
    101  CA        18.1810  -85.3530    8.5660 C.3    84  PHE84       0.1605
    102  C         16.9360  -86.0770    8.1030 C.2    84  PHE84       0.2264
    103  O         15.9280  -85.4270    7.8480 O.2    84  PHE84      -0.2867
    104  CB        17.8630  -84.7620    9.9290 C.3    84  PHE84       0.0534
    105  CG        17.5020  -85.8090   10.9010 C.ar   84  PHE84      -0.0203
    106  CD1       18.4620  -86.7740   11.2750 C.ar   84  PHE84      -0.0042
    107  CD2       16.2030  -85.9260   11.3690 C.ar   84  PHE84      -0.0042
    108  CE1       18.1500  -87.8000   12.1560 C.ar   84  PHE84      -0.0003
    109  CE2       15.8800  -86.9550   12.2530 C.ar   84  PHE84      -0.0003
    110  CZ        16.8520  -87.8900   12.6490 C.ar   84  PHE84      -0.0000
    111  N         21.7160  -88.7080    9.3840 N.3   103  LEU103     -0.1245
    112  CA        22.2400  -87.3640    9.2550 C.3   103  LEU103      0.1561
    113  C         23.2430  -87.3660    8.1070 C.2   103  LEU103      0.2260
    114  O         24.0740  -88.3110    7.9440 O.2   103  LEU103     -0.2867
    115  CB        22.8940  -86.9150   10.5560 C.3   103  LEU103      0.0270
    116  CG        23.1810  -85.4070   10.5750 C.3   103  LEU103      0.0019
    117  CD1       21.9360  -84.5830   10.2970 C.3   103  LEU103      0.0001
    118  CD2       23.8060  -85.0150   11.9140 C.3   103  LEU103      0.0001
    119  N         26.0560  -84.8770    6.5180 N.3   105  ILE105     -0.1245
    120  CA        26.8620  -83.6470    6.5160 C.3   105  ILE105      0.1561
    121  C         27.9150  -83.7620    5.4350 C.2   105  ILE105      0.2260
    122  O         28.6240  -84.7760    5.3530 O.2   105  ILE105     -0.2867
    123  CB        27.5470  -83.3450    7.8600 C.3   105  ILE105      0.0252
    124  CG1       26.7080  -83.8600    9.0320 C.3   105  ILE105      0.0019
    125  CG2       27.7860  -81.8440    7.9620 C.3   105  ILE105      0.0019
    126  CD1       27.2570  -83.5750   10.4120 C.3   105  ILE105      0.0001
    127  N         22.0610  -91.5650   13.4330 N.3   112  ILE112     -0.1245
    128  CA        22.1610  -90.9890   14.7850 C.3   112  ILE112      0.1561
    129  C         20.8960  -91.1710   15.6430 C.2   112  ILE112      0.2260
    130  O         19.8150  -91.4170   15.1140 O.2   112  ILE112     -0.2867
    131  CB        22.5620  -89.5170   14.6870 C.3   112  ILE112      0.0252
    132  CG1       21.4600  -88.6830   14.0320 C.3   112  ILE112      0.0019
    133  CG2       23.8290  -89.4440   13.8590 C.3   112  ILE112      0.0019
    134  CD1       21.5510  -87.2030   14.3220 C.3   112  ILE112      0.0001
    135  N         18.4890  -89.2110   18.4000 N.3   114  LEU114     -0.1245
    136  CA        18.1580  -88.0090   19.1450 C.3   114  LEU114      0.1561
    137  C         17.1100  -88.3290   20.2080 C.2   114  LEU114      0.2260
    138  O         16.2810  -89.2360   20.0500 O.2   114  LEU114     -0.2867
    139  CB        17.6580  -86.9150   18.2120 C.3   114  LEU114      0.0270
    140  CG        18.5520  -86.6060   17.0030 C.3   114  LEU114      0.0019
    141  CD1       17.7300  -85.9320   15.9220 C.3   114  LEU114      0.0001
    142  CD2       19.7220  -85.7250   17.3980 C.3   114  LEU114      0.0001
    143  N         26.5620  -85.6960   18.3740 N.3   139  ILE139     -0.1245
    144  CA        27.2260  -86.3520   17.2220 C.3   139  ILE139      0.1561
    145  C         28.7230  -86.0810   17.2460 C.2   139  ILE139      0.2260
    146  O         29.1620  -85.0190   17.7400 O.2   139  ILE139     -0.2867
    147  CB        26.6060  -85.9860   15.8450 C.3   139  ILE139      0.0252
    148  CG1       26.6460  -84.4880   15.5960 C.3   139  ILE139      0.0019
    149  CG2       25.1530  -86.4180   15.7950 C.3   139  ILE139      0.0019
    150  CD1       26.5480  -84.1320   14.1420 C.3   139  ILE139      0.0001
    151  N         32.0400  -85.2620   15.1770 N.3   141  ARG141     -0.1245
    152  CA        32.7960  -84.8040   13.9680 C.3   141  ARG141      0.1563
    153  C         33.5280  -85.9490   13.2640 C.2   141  ARG141      0.2260
    154  O         33.4750  -86.0740   12.0460 O.2   141  ARG141     -0.2867
    155  CB        33.8120  -83.6980   14.3270 C.3   141  ARG141      0.0307
    156  CG        33.2610  -82.2750   14.5420 C.3   141  ARG141      0.0489
    157  CD        34.3080  -81.2930   15.0770 C.3   141  ARG141      0.2205
    158  NE        35.6040  -81.5410   14.4630 N.pl3 141  ARG141     -0.0865
    159  CZ        36.7940  -81.3810   15.0350 C.cat 141  ARG141      0.5346
    160  NH1       36.9190  -80.9300   16.2630 N.pl3 141  ARG141      0.1354
    161  NH2       37.8820  -81.6760   14.3540 N.pl3 141  ARG141      0.1354
    162  N         34.2340  -84.7460    9.5160 N.3   146  PHE146     -0.1241
    163  CA        33.9780  -83.3190    9.4190 C.3   146  PHE146      0.1605
    164  C         35.0470  -82.4640   10.1030 C.2   146  PHE146      0.2264
    165  O         35.4100  -82.7090   11.2870 O.2   146  PHE146     -0.2867
    166  CB        32.6390  -82.9960   10.0440 C.3   146  PHE146      0.0534
    167  CG        32.3300  -81.5330   10.0770 C.ar  146  PHE146     -0.0203
    168  CD1       31.8490  -80.8870    8.9340 C.ar  146  PHE146     -0.0042
    169  CD2       32.5350  -80.7870   11.2450 C.ar  146  PHE146     -0.0042
    170  CE1       31.5510  -79.5260    8.9510 C.ar  146  PHE146     -0.0003
    171  CE2       32.2390  -79.4260   11.2670 C.ar  146  PHE146     -0.0003
    172  CZ        31.7430  -78.7960   10.1210 C.ar  146  PHE146     -0.0000
    173  N         41.0790  -79.6480   11.4360 N.3   150  THR150     -0.1218
    174  CA        41.0310  -79.1520   12.8260 C.3   150  THR150      0.1862
    175  C         41.1490  -80.2800   13.8610 C.2   150  THR150      0.2287
    176  O         40.4040  -81.2550   13.8030 O.2   150  THR150     -0.2866
    177  CB        39.7410  -78.4060   13.0700 C.3   150  THR150      0.1770
    178  OG1       39.5070  -77.5140   11.9740 O.3   150  THR150     -0.2211
    179  CG2       39.8160  -77.6400   14.3610 C.3   150  THR150      0.0375
    180  N         41.7400  -78.5020   19.7460 N.3   154  THR154     -0.1203
    181  CA        41.2360  -77.1350   19.5030 C.3   154  THR154      0.1994
    182  C         39.6960  -77.0320   19.5270 C.2   154  THR154      0.2617
    183  O         39.1310  -76.1100   20.1260 O.2   154  THR154     -0.2717
    184  CB        41.7290  -76.6340   18.1150 C.3   154  THR154      0.1784
    185  OG1       43.1140  -76.9660   17.9620 O.3   154  THR154     -0.2211
    186  CG2       41.4450  -75.0920   17.8630 C.3   154  THR154      0.0376
    187  N         39.0460  -77.9610   18.8140 N.am  155  LEU155     -0.1979
    188  CA        37.5960  -77.9930   18.6050 C.3   155  LEU155      0.1596
    189  C         37.2000  -79.3930   18.9480 C.2   155  LEU155      0.2287
    190  O         37.8440  -80.3450   18.4870 O.2   155  LEU155     -0.2864
    191  CB        37.2650  -77.7390   17.1620 C.3   155  LEU155      0.0297
    192  CG        35.8060  -77.6550   16.7750 C.3   155  LEU155      0.0022
    193  CD1       35.2270  -76.3220   17.1920 C.3   155  LEU155      0.0001
    194  CD2       35.6840  -77.8090   15.2660 C.3   155  LEU155      0.0001
    195  N         29.7500  -82.5120   18.8670 N.3   159  ILE159     -0.1245
    196  CA        28.7540  -81.4600   18.6280 C.3   159  ILE159      0.1561
    197  C         27.4790  -81.8690   19.3520 C.2   159  ILE159      0.2260
    198  O         27.1140  -83.0480   19.2900 O.2   159  ILE159     -0.2867
    199  CB        28.4180  -81.3190   17.1370 C.3   159  ILE159      0.0252
    200  CG1       29.6720  -81.0530   16.3370 C.3   159  ILE159      0.0019
    201  CG2       27.4770  -80.1550   16.9540 C.3   159  ILE159      0.0019
    202  CD1       29.5070  -81.2520   14.8520 C.3   159  ILE159      0.0001
    203  N         23.5000  -81.3850   19.5670 N.3   161  LEU161     -0.1245
    204  CA        22.3590  -80.9280   18.8090 C.3   161  LEU161      0.1561
    205  C         21.2410  -80.5740   19.7630 C.2   161  LEU161      0.2260
    206  O         20.8960  -81.3480   20.6550 O.2   161  LEU161     -0.2867
    207  CB        21.9340  -82.0240   17.8470 C.3   161  LEU161      0.0270
    208  CG        23.0390  -82.5820   16.9760 C.3   161  LEU161      0.0019
    209  CD1       22.3710  -83.3680   15.8760 C.3   161  LEU161      0.0001
    210  CD2       23.8660  -81.4470   16.3940 C.3   161  LEU161      0.0001
    211  N         17.5940  -79.1780   18.7990 N.3   163  ILE163     -0.1245
    212  CA        16.5610  -78.7220   17.8590 C.3   163  ILE163      0.1561
    213  C         15.3030  -78.4660   18.6610 C.2   163  ILE163      0.2260
    214  O         14.7180  -79.3920   19.1990 O.2   163  ILE163     -0.2867
    215  CB        16.2040  -79.7710   16.7730 C.3   163  ILE163      0.0252
    216  CG1       17.4270  -80.5240   16.2350 C.3   163  ILE163      0.0019
    217  CG2       15.4030  -79.1360   15.6550 C.3   163  ILE163      0.0019
    218  CD1       18.6490  -79.6820   15.9350 C.3   163  ILE163      0.0001
@<TRIPOS>BOND
     1    84    83    2
     2    83    82    1
     3    92    93    1
     4    29    28    2
     5   122   121    2
     6    82    85    1
     7    82    81    1
     8   121   120    1
     9    28    27    1
    10    93    94    1
    11    93    96    1
    12    85    86    1
    13    94    95    2
    14    26    27    1
    15    73    72    2
    16    81    72   am
    17    72    71    1
    18    22    21    2
    19    27    30    1
    20   120   119    1
    21   120   123    1
    22    65    64    2
    23    70    71    1
    24    21    20    1
    25    64    63    1
    26    96    97    1
    27    55    54    2
    28    86    87   ar
    29    86    88   ar
    30    71    74    1
    31    87    89   ar
    32    52    53    1
    33    54    53    1
    34    54    62   am
    35    53    56    1
    36   100   101    1
    37    59    61   ar
    38    59    57   ar
    39    19    20    1
    40    30    32    1
    41    30    31    1
    42    20    23    1
    43   103   102    2
    44   123   125    1
    45   123   124    1
    46    88    90   ar
    47   114   113    2
    48    97    98    1
    49    62    63    1
    50    74    75    1
    51   102   101    1
    52   113   112    1
    53    63    66    1
    54    61    60   ar
    55   101   104    1
    56    89    91   ar
    57    56    57    1
    58    57    58   ar
    59    31    33    1
    60   168   170   ar
    61   168   167   ar
    62   170   172   ar
    63   124   126    1
    64    66    67    1
    65    77    75   ar
    66    77    79   ar
    67    90    91   ar
    68    23    24    1
    69    23    25    1
    70   112   111    1
    71   112   115    1
    72    75    76   ar
    73   163   162    1
    74   163   166    1
    75   163   164    1
    76    98    99    1
    77    15    17   ar
    78    15    13   ar
    79    60    58   ar
    80    17    18   ar
    81   104   105    1
    82   166   167    1
    83   167   169   ar
    84   164   165    2
    85    44    43    2
    86   172   171   ar
    87    79    80   ar
    88   117   116    1
    89    12    13    1
    90    12     9    1
    91    13    14   ar
    92    76    78   ar
    93   115   116    1
    94   116   118    1
    95    67    69    1
    96    67    68    1
    97    18    16   ar
    98    43    42    1
    99    10     9    1
   100    10    11    2
   101   105   106   ar
   102   105   107   ar
   103     9     8    1
   104   169   171   ar
   105   106   108   ar
   106    41    42    1
   107   107   109   ar
   108    80    78   ar
   109   173   174    1
   110    14    16   ar
   111    42    45    1
   112   178   177    1
   113   154   153    2
   114   108   110   ar
   115   109   110   ar
   116   174   177    1
   117   174   175    1
   118   177   179    1
   119    45    46    1
   120   153   152    1
   121   127   128    1
   122    46    47    1
   123   176   175    2
   124   133   131    1
   125   152   155    1
   126   152   151    1
   127    34    35    1
   128   132   134    1
   129   132   131    1
   130   150   148    1
   131   155   156    1
   132    39    38    1
   133   161   159    1
   134   158   159    2
   135   158   157    1
   136   156   157    1
   137    47    48    1
   138   131   128    1
   139    40    38    1
   140   128   129    1
   141   202   200    1
   142   159   160    1
   143   130   129    2
   144    38    35    1
   145   194   192    1
   146    35    36    1
   147   148   147    1
   148   217   215    1
   149   149   147    1
   150   147   144    1
   151   209   208    1
   152   141   140    1
   153   218   216    1
   154    36    37    2
   155    48    49    2
   156   216   215    1
   157    50    49    1
   158   200   199    1
   159   210   208    1
   160    49    51    1
   161   215   212    1
   162   192   191    1
   163   192   193    1
   164   201   199    1
   165   208   207    1
   166   140   142    1
   167   140   139    1
   168   199   196    1
   169   191   188    1
   170   144   145    1
   171   144   143    1
   172   145   146    2
   173     6     5    1
   174   207   204    1
   175   212   213    1
   176   212   211    1
   177   186   184    1
   178   185   184    1
   179   184   181    1
   180   139   136    1
   181   135   136    1
   182   190   189    2
   183   188   187    1
   184   188   189    1
   185   196   195    1
   186   196   197    1
   187   213   214    2
   188   204   203    1
   189   204   205    1
   190     5     7    1
   191     5     2    1
   192   187   182   am
   193   136   137    1
   194   198   197    2
   195   181   182    1
   196   181   180    1
   197   182   183    2
   198   205   206    2
   199     4     3    2
   200   138   137    2
   201     3     2    1
   202     2     1    1
