@<TRIPOS>MOLECULE
tmp/5w18M00.pdb
 80 76 0 0 0
SMALL
GASTEIGER

@<TRIPOS>ATOM
      1  N        -25.2500    7.1040  -35.1440 N.3    31  VAL31      -0.1231
      2  CA       -24.7110    5.8440  -35.6210 C.3    31  VAL31       0.1692
      3  C        -24.2680    4.9820  -34.4090 C.2    31  VAL31       0.2592
      4  O        -24.6450    3.8210  -34.2950 O.2    31  VAL31      -0.2718
      5  CB       -23.5480    6.0680  -36.6300 C.3    31  VAL31       0.0266
      6  CG1      -22.7650    4.7600  -36.8960 C.3    31  VAL31       0.0020
      7  CG2      -24.1180    6.6050  -37.9440 C.3    31  VAL31       0.0020
      8  N        -23.5270    5.5900  -33.5160 N.am   32  SER32      -0.1952
      9  CA       -23.0170    4.9080  -32.3890 C.3    32  SER32       0.1924
     10  C        -24.1620    4.3670  -31.4740 C.2    32  SER32       0.2314
     11  O        -24.0930    3.2520  -30.9960 O.2    32  SER32      -0.2863
     12  CB       -22.0710    5.8550  -31.6090 C.3    32  SER32       0.2116
     13  OG       -20.8770    6.1100  -32.2950 O.3    32  SER32      -0.2180
     14  N        -25.8240    1.3120  -33.1400 N.3    35  LEU35      -0.1231
     15  CA       -25.0200    0.1200  -33.0230 C.3    35  LEU35       0.1693
     16  C        -24.9970   -0.4380  -31.5910 C.2    35  LEU35       0.2592
     17  O        -25.0080   -1.6440  -31.3870 O.2    35  LEU35      -0.2718
     18  CB       -23.5790    0.4020  -33.4920 C.3    35  LEU35       0.0284
     19  CG       -23.4260    0.7570  -34.9620 C.3    35  LEU35       0.0019
     20  CD1      -22.0180    1.1890  -35.2580 C.3    35  LEU35       0.0001
     21  CD2      -23.8570   -0.3970  -35.8520 C.3    35  LEU35       0.0001
     22  N        -24.9470    0.4760  -30.6270 N.am   36  PHE36      -0.1976
     23  CA       -24.9450    0.1490  -29.2300 C.3    36  PHE36       0.1639
     24  C        -26.2720   -0.5490  -28.8670 C.2    36  PHE36       0.2290
     25  O        -26.2530   -1.5980  -28.2360 O.2    36  PHE36      -0.2864
     26  CB       -24.7020    1.3880  -28.3890 C.3    36  PHE36       0.0560
     27  CG       -24.8420    1.1570  -26.9250 C.ar   36  PHE36      -0.0200
     28  CD1      -23.8520    0.4660  -26.2190 C.ar   36  PHE36      -0.0042
     29  CD2      -25.9850    1.6070  -26.2200 C.ar   36  PHE36      -0.0042
     30  CE1      -23.9840    0.2200  -24.8210 C.ar   36  PHE36      -0.0003
     31  CE2      -26.1250    1.3620  -24.8270 C.ar   36  PHE36      -0.0003
     32  CZ       -25.1380    0.6190  -24.1490 C.ar   36  PHE36      -0.0000
     33  N        -28.3380   -2.1510  -30.9300 N.3    38  GLN38      -0.1231
     34  CA       -28.2970   -3.4670  -31.5770 C.3    38  GLN38       0.1698
     35  C        -27.4630   -4.4660  -30.7580 C.2    38  GLN38       0.2592
     36  O        -27.9070   -5.5790  -30.5770 O.2    38  GLN38      -0.2718
     37  CB       -27.8090   -3.4320  -33.0350 C.3    38  GLN38       0.0381
     38  CG       -27.8000   -4.8520  -33.6330 C.3    38  GLN38       0.0905
     39  CD       -27.0630   -4.9500  -34.9830 C.2    38  GLN38       0.2608
     40  OE1      -25.8730   -4.7080  -35.0390 O.2    38  GLN38      -0.2717
     41  NE2      -27.7120   -5.3100  -35.9930 N.am   38  GLN38      -0.0878
     42  N        -26.3150   -4.0570  -30.2390 N.am   39  ALA39      -0.1980
     43  CA       -25.4720   -4.9230  -29.4170 C.3    39  ALA39       0.1597
     44  C        -26.1590   -5.3280  -28.0840 C.2    39  ALA39       0.2287
     45  O        -25.9570   -6.4130  -27.6290 O.2    39  ALA39      -0.2864
     46  CB       -24.1250   -4.2520  -29.0990 C.3    39  ALA39       0.0319
     47  N        -27.6380    4.4520  -43.7490 N.3    65  ASP65      -0.1225
     48  CA       -27.0380    3.1670  -44.0010 C.3    65  ASP65       0.1805
     49  C        -26.9510    2.3140  -42.7090 C.2    65  ASP65       0.2598
     50  O        -27.0260    1.0990  -42.7660 O.2    65  ASP65      -0.2718
     51  CB       -25.6540    3.2880  -44.5880 C.3    65  ASP65       0.1424
     52  CG       -25.6280    3.5390  -46.1010 C.2    65  ASP65       0.3668
     53  OD1      -24.5030    3.8620  -46.6140 O.co2  65  ASP65      -0.2456
     54  OD2      -26.6740    3.4150  -46.8070 O.co2  65  ASP65      -0.2456
     55  N        -26.7650    2.9800  -41.5670 N.am   66  THR66      -0.1953
     56  CA       -26.6790    2.2990  -40.3320 C.3    66  THR66       0.1897
     57  C        -28.0640    1.7360  -39.9660 C.2    66  THR66       0.2313
     58  O        -28.1680    0.5680  -39.5660 O.2    66  THR66      -0.2863
     59  CB       -26.1270    3.1750  -39.2190 C.3    66  THR66       0.1794
     60  OG1      -24.8330    3.5920  -39.5610 O.3    66  THR66      -0.2208
     61  CG2      -26.0240    2.4070  -37.9190 C.3    66  THR66       0.0378
     62  N        -28.5790   -1.3130  -42.0440 N.3    69  HIS69      -0.1241
     63  CA       -27.6850   -2.3860  -41.7450 C.3    69  HIS69       0.1621
     64  C        -28.0520   -3.2520  -40.5360 C.2    69  HIS69       0.2264
     65  O        -27.9050   -4.4530  -40.5770 O.2    69  HIS69      -0.2867
     66  CB       -26.2510   -1.8860  -41.5760 C.3    69  HIS69       0.0745
     67  CG       -25.2740   -3.0020  -41.4710 C.ar   69  HIS69       0.0817
     68  ND1      -24.9390   -3.5990  -40.2760 N.ar   69  HIS69      -0.2268
     69  CD2      -24.5620   -3.6460  -42.4200 C.ar   69  HIS69       0.1154
     70  CE1      -24.0520   -4.5510  -40.4740 C.ar   69  HIS69       0.1986
     71  NE2      -23.8020   -4.5960  -41.7710 N.ar   69  HIS69      -0.2212
     72  N        -30.1860   -5.1610  -37.4880 N.3    71  LYS71      -0.1245
     73  CA       -31.3190   -6.0900  -37.5110 C.3    71  LYS71       0.1561
     74  C        -32.6270   -5.4900  -36.9330 C.2    71  LYS71       0.2260
     75  O        -33.6580   -5.6020  -37.5400 O.2    71  LYS71      -0.2867
     76  CB       -30.9600   -7.3750  -36.8010 C.3    71  LYS71       0.0271
     77  CG       -30.0340   -8.1920  -37.6450 C.3    71  LYS71       0.0035
     78  CD       -29.3200   -9.3270  -36.8230 C.3    71  LYS71       0.0206
     79  CE       -27.9440   -9.5580  -37.4770 C.3    71  LYS71       0.1093
     80  NZ       -27.8830  -10.9470  -38.1740 N.3    71  LYS71      -0.1314
@<TRIPOS>BOND
     1    54    52   ar
     2    53    52   ar
     3    52    51    1
     4    51    48    1
     5    48    47    1
     6    48    49    1
     7    50    49    2
     8    49    55   am
     9    69    71   ar
    10    69    67   ar
    11    62    63    1
    12    71    70   ar
    13    63    66    1
    14    63    64    1
    15    66    67    1
    16    55    56    1
    17    67    68   ar
    18    65    64    2
    19    70    68   ar
    20    56    57    1
    21    56    59    1
    22    57    58    2
    23    60    59    1
    24    59    61    1
    25    80    79    1
    26     7     5    1
    27    77    78    1
    28    77    76    1
    29    75    74    2
    30    73    72    1
    31    73    74    1
    32    73    76    1
    33    79    78    1
    34     6     5    1
    35     5     2    1
    36    41    39   am
    37    21    19    1
    38     2     1    1
    39     2     3    1
    40    20    19    1
    41    40    39    2
    42    39    38    1
    43    19    18    1
    44     3     4    2
    45     3     8   am
    46    38    37    1
    47     8     9    1
    48    18    15    1
    49    14    15    1
    50    37    34    1
    51    15    16    1
    52     9    12    1
    53     9    10    1
    54    13    12    1
    55    16    17    2
    56    16    22   am
    57    34    33    1
    58    34    35    1
    59    10    11    2
    60    35    36    2
    61    35    42   am
    62    22    23    1
    63    42    43    1
    64    43    46    1
    65    43    44    1
    66    23    24    1
    67    23    26    1
    68    24    25    2
    69    26    27    1
    70    44    45    2
    71    27    29   ar
    72    27    28   ar
    73    29    31   ar
    74    28    30   ar
    75    31    32   ar
    76    30    32   ar
