@<TRIPOS>MOLECULE
tmp/5w18M01.pdb
 109 100 0 0 0
SMALL
GASTEIGER

@<TRIPOS>ATOM
      1  N        -33.8520    8.2600  -21.9060 N.3    10  LEU10      -0.1245
      2  CA       -34.6250    7.7900  -23.0350 C.3    10  LEU10       0.1561
      3  C        -33.8830    6.7090  -23.8460 C.2    10  LEU10       0.2260
      4  O        -34.5160    5.7870  -24.3800 O.2    10  LEU10      -0.2867
      5  CB       -35.0530    8.9480  -23.9120 C.3    10  LEU10       0.0270
      6  CG       -36.4880    9.4800  -23.6290 C.3    10  LEU10       0.0019
      7  CD1      -36.8110    9.6990  -22.1470 C.3    10  LEU10       0.0001
      8  CD2      -36.6760   10.8350  -24.3240 C.3    10  LEU10       0.0001
      9  N        -34.5250    3.2540  -22.8920 N.3    13  ASP13      -0.1239
     10  CA       -35.7390    2.6990  -23.4770 C.3    13  ASP13       0.1674
     11  C        -35.6650    2.5670  -24.9920 C.2    13  ASP13       0.2266
     12  O        -36.6850    2.3460  -25.6330 O.2    13  ASP13      -0.2867
     13  CB       -36.9510    3.6010  -23.1750 C.3    13  ASP13       0.1410
     14  CG       -37.2370    3.7080  -21.6870 C.2    13  ASP13       0.3668
     15  OD1      -37.0800    2.7680  -20.9700 O.co2  13  ASP13      -0.2456
     16  OD2      -37.5920    4.7510  -21.1530 O.co2  13  ASP13      -0.2456
     17  N        -34.8780    4.8190  -27.2780 N.3    15  ILE15      -0.1245
     18  CA       -35.2620    6.0160  -27.9740 C.3    15  ILE15       0.1561
     19  C        -34.0260    6.8500  -28.2790 C.2    15  ILE15       0.2260
     20  O        -33.2500    7.1530  -27.3880 O.2    15  ILE15      -0.2867
     21  CB       -36.2410    6.8430  -27.1570 C.3    15  ILE15       0.0252
     22  CG1      -37.5370    6.0590  -26.9620 C.3    15  ILE15       0.0019
     23  CG2      -36.5290    8.1760  -27.8470 C.3    15  ILE15       0.0019
     24  CD1      -38.4150    6.5960  -25.8480 C.3    15  ILE15       0.0001
     25  N        -36.4620    3.4020  -31.5390 N.3    47  TYR47      -0.1241
     26  CA       -37.3500    4.5140  -31.8710 C.3    47  TYR47       0.1605
     27  C        -36.5150    5.7630  -32.1230 C.2    47  TYR47       0.2264
     28  O        -35.8180    6.2020  -31.2260 O.2    47  TYR47      -0.2867
     29  CB       -38.3790    4.7290  -30.7550 C.3    47  TYR47       0.0534
     30  CG       -38.9650    3.4530  -30.3060 C.ar   47  TYR47      -0.0201
     31  CD1      -40.0700    2.9140  -30.9340 C.ar   47  TYR47      -0.0009
     32  CD2      -38.3810    2.7460  -29.2840 C.ar   47  TYR47      -0.0009
     33  CE1      -40.5840    1.6560  -30.5170 C.ar   47  TYR47       0.0417
     34  CE2      -38.8640    1.5360  -28.8790 C.ar   47  TYR47       0.0417
     35  CZ       -39.9480    0.9830  -29.4730 C.ar   47  TYR47       0.1957
     36  OH       -40.3910   -0.2130  -29.0210 O.3    47  TYR47      -0.2866
     37  N        -36.8100    9.5680  -32.8900 N.3    49  TYR49      -0.1241
     38  CA       -37.6600   10.7450  -32.8270 C.3    49  TYR49       0.1605
     39  C        -36.9840   11.8730  -33.6040 C.2    49  TYR49       0.2264
     40  O        -35.8180   12.1340  -33.4130 O.2    49  TYR49      -0.2867
     41  CB       -37.9110   11.1770  -31.3760 C.3    49  TYR49       0.0534
     42  CG       -38.7420   10.2300  -30.5200 C.ar   49  TYR49      -0.0201
     43  CD1      -39.2260    9.0180  -30.9980 C.ar   49  TYR49      -0.0009
     44  CD2      -39.0200   10.5590  -29.2200 C.ar   49  TYR49      -0.0009
     45  CE1      -39.9560    8.1700  -30.2100 C.ar   49  TYR49       0.0417
     46  CE2      -39.7580    9.7320  -28.4100 C.ar   49  TYR49       0.0417
     47  CZ       -40.2440    8.5220  -28.9050 C.ar   49  TYR49       0.1957
     48  OH       -40.9770    7.7090  -28.0910 O.3    49  TYR49      -0.2866
     49  N        -38.2080    2.4580  -35.8480 N.3    75  GLN75      -0.1245
     50  CA       -39.3740    3.2700  -36.0460 C.3    75  GLN75       0.1566
     51  C        -38.9240    4.7300  -36.1480 C.2    75  GLN75       0.2260
     52  O        -37.9310    5.1210  -35.5220 O.2    75  GLN75      -0.2867
     53  CB       -40.3480    3.1340  -34.8580 C.3    75  GLN75       0.0367
     54  CG       -40.6560    1.7010  -34.4300 C.3    75  GLN75       0.0905
     55  CD       -41.9940    1.5290  -33.7250 C.2    75  GLN75       0.2608
     56  OE1      -42.7450    2.5510  -33.5530 O.2    75  GLN75      -0.2717
     57  NE2      -42.2870    0.2960  -33.2540 N.am   75  GLN75      -0.0878
     58  N        -40.4520    8.7190  -35.8810 N.3    77  ILE77      -0.1245
     59  CA       -41.5520    9.5370  -35.4210 C.3    77  ILE77       0.1561
     60  C        -41.1810   11.0140  -35.5860 C.2    77  ILE77       0.2260
     61  O        -40.3100   11.5270  -34.8770 O.2    77  ILE77      -0.2867
     62  CB       -41.8830    9.3240  -33.9170 C.3    77  ILE77       0.0252
     63  CG1      -42.2770    7.8680  -33.5830 C.3    77  ILE77       0.0019
     64  CG2      -43.0950   10.1680  -33.5790 C.3    77  ILE77       0.0019
     65  CD1      -41.1260    6.8550  -33.5040 C.3    77  ILE77       0.0001
     66  N        -41.8510   14.6290  -34.8550 N.3    79  ILE79      -0.1245
     67  CA       -42.5120   15.5360  -33.9230 C.3    79  ILE79       0.1561
     68  C        -42.0340   16.9250  -34.3660 C.2    79  ILE79       0.2260
     69  O        -40.8550   17.1730  -34.6110 O.2    79  ILE79      -0.2867
     70  CB       -42.0960   15.2840  -32.4750 C.3    79  ILE79       0.0252
     71  CG1      -40.6110   15.6180  -32.2710 C.3    79  ILE79       0.0019
     72  CG2      -42.2110   13.7810  -32.1570 C.3    79  ILE79       0.0019
     73  CD1      -40.1660   15.4570  -30.8270 C.3    79  ILE79       0.0001
     74  N        -43.9320    1.4650  -39.6510 N.3    97  LYS97      -0.1245
     75  CA       -43.6030    2.0910  -38.3850 C.3    97  LYS97       0.1561
     76  C        -42.9820    3.4970  -38.5340 C.2    97  LYS97       0.2260
     77  O        -42.0850    3.8880  -37.7590 O.2    97  LYS97      -0.2867
     78  CB       -42.6710    1.1850  -37.6110 C.3    97  LYS97       0.0271
     79  CG       -43.2680   -0.1930  -37.3760 C.3    97  LYS97       0.0035
     80  CD       -42.2660   -1.1520  -36.8320 C.3    97  LYS97       0.0206
     81  CE       -42.9360   -2.3840  -36.2290 C.3    97  LYS97       0.1093
     82  NZ       -41.8250   -3.2420  -35.7690 N.3    97  LYS97      -0.1314
     83  N        -44.1510    7.3800  -38.4820 N.3    99  PHE99      -0.1241
     84  CA       -45.2230    8.1630  -37.9410 C.3    99  PHE99       0.1605
     85  C        -44.9070    9.6490  -37.9450 C.2    99  PHE99       0.2264
     86  O        -43.7530   10.0540  -37.9780 O.2    99  PHE99      -0.2867
     87  CB       -45.4680    7.8000  -36.4870 C.3    99  PHE99       0.0534
     88  CG       -45.7600    6.3520  -36.2460 C.ar   99  PHE99      -0.0203
     89  CD1      -47.0430    5.8770  -36.3350 C.ar   99  PHE99      -0.0042
     90  CD2      -44.7410    5.4710  -35.8780 C.ar   99  PHE99      -0.0042
     91  CE1      -47.2900    4.5000  -36.1200 C.ar   99  PHE99      -0.0003
     92  CE2      -44.9830    4.1370  -35.6660 C.ar   99  PHE99      -0.0003
     93  CZ       -46.2700    3.6410  -35.7770 C.ar   99  PHE99      -0.0000
     94  N        -46.7450   13.2090  -35.8090 N.3   101  LEU101     -0.1245
     95  CA       -47.7480   13.8460  -35.0440 C.3   101  LEU101      0.1561
     96  C        -48.5850   14.7860  -35.9060 C.2   101  LEU101      0.2260
     97  O        -48.1170   15.2320  -36.9230 O.2   101  LEU101     -0.2867
     98  CB       -47.0990   14.6040  -33.8960 C.3   101  LEU101      0.0270
     99  CG       -46.3990   13.6600  -32.8970 C.3   101  LEU101      0.0019
    100  CD1      -45.6400   14.5360  -31.8900 C.3   101  LEU101      0.0001
    101  CD2      -47.4660   12.8730  -32.1340 C.3   101  LEU101      0.0001
    102  N        -50.1270    9.8540  -36.0390 N.3   176  MET176     -0.1245
    103  CA       -50.5350    9.4770  -34.7100 C.3   176  MET176      0.1570
    104  C        -51.6910   10.3420  -34.2270 C.2   176  MET176      0.2261
    105  O        -51.6480   11.5630  -34.2960 O.2   176  MET176     -0.2867
    106  CB       -49.4110    9.6920  -33.7320 C.3   176  MET176      0.0387
    107  CG       -48.5500    8.4650  -33.6890 C.3   176  MET176      0.0595
    108  SD       -47.2570    8.5050  -32.3650 S.3   176  MET176     -0.1393
    109  CE       -48.2700    8.9660  -31.0180 C.3   176  MET176      0.0692
@<TRIPOS>BOND
     1    74    75    1
     2    76    75    1
     3    76    77    2
     4    83    84    1
     5    75    78    1
     6    86    85    2
     7    85    84    1
     8    84    87    1
     9    78    79    1
    10    79    80    1
    11    97    96    2
    12    80    81    1
    13    87    88    1
    14    89    88   ar
    15    89    91   ar
    16    88    90   ar
    17    81    82    1
    18    51    50    1
    19    51    52    2
    20    91    93   ar
    21    50    49    1
    22    50    53    1
    23   102   103    1
    24    96    95    1
    25    58    59    1
    26    90    92   ar
    27    94    95    1
    28    93    92   ar
    29    60    59    1
    30    60    61    2
    31    59    62    1
    32    95    98    1
    33    53    54    1
    34    66    67    1
    35   103   104    1
    36   103   106    1
    37    69    68    2
    38    54    55    1
    39    68    67    1
    40   105   104    2
    41    67    70    1
    42    62    63    1
    43    62    64    1
    44    98    99    1
    45   106   107    1
    46    55    56    2
    47    55    57   am
    48   107   108    1
    49    39    40    2
    50    39    38    1
    51    63    65    1
    52    99   101    1
    53    99   100    1
    54    37    38    1
    55    38    41    1
    56    70    71    1
    57    70    72    1
    58   108   109    1
    59    71    73    1
    60    27    26    1
    61    27    28    2
    62    26    25    1
    63    26    29    1
    64    41    42    1
    65    43    42   ar
    66    43    45   ar
    67    31    33   ar
    68    31    30   ar
    69    29    30    1
    70    42    44   ar
    71    33    35   ar
    72    30    32   ar
    73    45    47   ar
    74    35    36    1
    75    35    34   ar
    76    32    34   ar
    77    44    46   ar
    78    47    46   ar
    79    47    48    1
    80    19    18    1
    81    19    20    2
    82    18    17    1
    83    18    21    1
    84    23    21    1
    85    21    22    1
    86    22    24    1
    87    12    11    2
    88    11    10    1
    89     4     3    2
    90     8     6    1
    91     5     6    1
    92     5     2    1
    93     3     2    1
    94     6     7    1
    95    10    13    1
    96    10     9    1
    97    13    14    1
    98     2     1    1
    99    14    16   ar
   100    14    15   ar
