@<TRIPOS>MOLECULE
tmp/5w19B00.pdb
 238 224 0 0 0
SMALL
GASTEIGER

@<TRIPOS>ATOM
      1  N         63.9270  221.3920   30.4340 N.3    36  PHE36      -0.1241
      2  CA        64.4350  220.4280   31.4060 C.3    36  PHE36       0.1605
      3  C         63.4340  219.3090   31.6590 C.2    36  PHE36       0.2264
      4  O         63.8310  218.1670   31.9210 O.2    36  PHE36      -0.2867
      5  CB        64.7690  221.1230   32.7270 C.3    36  PHE36       0.0534
      6  CG        66.1640  221.6730   32.7960 C.ar   36  PHE36      -0.0203
      7  CD1       67.2500  220.8220   32.9290 C.ar   36  PHE36      -0.0042
      8  CD2       66.3880  223.0410   32.7510 C.ar   36  PHE36      -0.0042
      9  CE1       68.5340  221.3240   32.9990 C.ar   36  PHE36      -0.0003
     10  CE2       67.6710  223.5510   32.8210 C.ar   36  PHE36      -0.0003
     11  CZ        68.7460  222.6910   32.9450 C.ar   36  PHE36      -0.0000
     12  N         71.5730  220.8620   25.8320 N.3    48  LEU48      -0.1231
     13  CA        71.2210  221.3540   27.1580 C.3    48  LEU48       0.1693
     14  C         72.4470  221.5170   28.0460 C.2    48  LEU48       0.2593
     15  O         72.4910  222.4330   28.8750 O.2    48  LEU48      -0.2718
     16  CB        70.2090  220.4090   27.8080 C.3    48  LEU48       0.0284
     17  CG        69.5920  220.8360   29.1420 C.3    48  LEU48       0.0019
     18  CD1       68.6450  222.0110   28.9530 C.3    48  LEU48       0.0001
     19  CD2       68.8770  219.6640   29.7910 C.3    48  LEU48       0.0001
     20  N         73.4490  220.6560   27.8850 N.am   49  THR49      -0.1939
     21  CA        74.6480  220.7220   28.7090 C.3    49  THR49       0.2028
     22  C         75.7650  219.9410   28.0350 C.2    49  THR49       0.2642
     23  O         75.5240  219.0830   27.1820 O.2    49  THR49      -0.2714
     24  CB        74.4000  220.1660   30.1170 C.3    49  THR49       0.1808
     25  OG1       75.5960  220.2850   30.8970 O.3    49  THR49      -0.2208
     26  CG2       74.0130  218.7070   30.0400 C.3    49  THR49       0.0379
     27  N         76.9960  220.2590   28.4340 N.am   50  ASP50      -0.1957
     28  CA        78.1730  219.4780   28.0870 C.3    50  ASP50       0.1840
     29  C         78.5940  218.5550   29.2240 C.2    50  ASP50       0.2622
     30  O         79.7210  218.0470   29.2210 O.2    50  ASP50      -0.2715
     31  CB        79.3320  220.4010   27.7100 C.3    50  ASP50       0.1450
     32  CG        79.7850  221.2700   28.8710 C.2    50  ASP50       0.3671
     33  OD1       78.9130  221.7980   29.5950 O.co2  50  ASP50      -0.2456
     34  OD2       81.0110  221.4210   29.0650 O.co2  50  ASP50      -0.2456
     35  N         77.7110  218.3310   30.1950 N.am   51  SER51      -0.1950
     36  CA        78.0310  217.6020   31.4150 C.3    51  SER51       0.1924
     37  C         77.4930  216.1810   31.3210 C.2    51  SER51       0.2314
     38  O         76.2770  215.9780   31.2410 O.2    51  SER51      -0.2863
     39  CB        77.4420  218.3110   32.6330 C.3    51  SER51       0.2116
     40  OG        77.8220  217.6700   33.8370 O.3    51  SER51      -0.2180
     41  N         79.9180  213.6160   41.6110 N.3    98  GLN98      -0.1231
     42  CA        80.0450  214.6560   40.5870 C.3    98  GLN98       0.1698
     43  C         80.4550  215.9890   41.2070 C.2    98  GLN98       0.2593
     44  O         80.9540  216.0270   42.3370 O.2    98  GLN98      -0.2718
     45  CB        78.7390  214.8020   39.7840 C.3    98  GLN98       0.0381
     46  CG        77.5190  215.2120   40.5730 C.3    98  GLN98       0.0905
     47  CD        76.2560  215.1000   39.7520 C.2    98  GLN98       0.2608
     48  OE1       75.9280  214.0280   39.2450 O.2    98  GLN98      -0.2717
     49  NE2       75.5470  216.2100   39.5990 N.am   98  GLN98      -0.0878
     50  N         80.2720  217.0790   40.4570 N.am   99  GLY99      -0.1942
     51  CA        80.8140  218.3640   40.8800 C.3    99  GLY99       0.2014
     52  C         80.1660  218.9010   42.1420 C.2    99  GLY99       0.2638
     53  O         80.8580  219.3140   43.0760 O.2    99  GLY99      -0.2714
     54  N         78.8310  218.9150   42.1840 N.am  100  ARG100     -0.1977
     55  CA        78.1440  219.4540   43.3540 C.3   100  ARG100      0.1597
     56  C         78.3810  218.5960   44.5890 C.2   100  ARG100      0.2287
     57  O         78.3110  219.1000   45.7160 O.2   100  ARG100     -0.2864
     58  CB        76.6480  219.5950   43.0770 C.3   100  ARG100      0.0334
     59  CG        75.8840  218.2970   42.9190 C.3   100  ARG100      0.0492
     60  CD        74.6220  218.5470   42.1120 C.3   100  ARG100      0.2205
     61  NE        74.9470  218.8230   40.7150 N.pl3 100  ARG100     -0.0865
     62  CZ        74.0580  219.1360   39.7800 C.cat 100  ARG100      0.5346
     63  NH1       72.7700  219.2300   40.0830 N.pl3 100  ARG100      0.1354
     64  NH2       74.4600  219.3580   38.5360 N.pl3 100  ARG100      0.1354
     65  N         81.7010  219.9460   45.9280 N.3   103  GLU103     -0.1245
     66  CA        81.5470  221.2000   46.6570 C.3   103  GLU103      0.1567
     67  C         80.8020  220.9940   47.9670 C.2   103  GLU103      0.2260
     68  O         81.0390  221.7240   48.9360 O.2   103  GLU103     -0.2867
     69  CB        80.8290  222.2290   45.7830 C.3   103  GLU103      0.0388
     70  CG        81.5040  222.4600   44.4360 C.3   103  GLU103      0.1160
     71  CD        80.6100  223.1800   43.4440 C.2   103  GLU103      0.3649
     72  OE1       81.1400  223.9200   42.5850 O.co2 103  GLU103     -0.2457
     73  OE2       79.3770  223.0020   43.5250 O.co2 103  GLU103     -0.2457
     74  N         78.8520  229.4420   39.6400 N.3   131  PHE131     -0.1227
     75  CA        77.7880  228.8430   38.8530 C.3   131  PHE131      0.1736
     76  C         76.6170  228.4660   39.7630 C.2   131  PHE131      0.2595
     77  O         76.7180  228.4950   40.9930 O.2   131  PHE131     -0.2718
     78  CB        78.3020  227.6360   38.0690 C.3   131  PHE131      0.0547
     79  CG        77.5280  227.3700   36.8090 C.ar  131  PHE131     -0.0202
     80  CD1       77.3140  228.3850   35.8920 C.ar  131  PHE131     -0.0042
     81  CD2       77.0100  226.1140   36.5440 C.ar  131  PHE131     -0.0042
     82  CE1       76.5980  228.1530   34.7350 C.ar  131  PHE131     -0.0003
     83  CE2       76.2910  225.8760   35.3880 C.ar  131  PHE131     -0.0003
     84  CZ        76.0840  226.8960   34.4830 C.ar  131  PHE131     -0.0000
     85  N         75.4860  228.1180   39.1400 N.am  132  ASP132     -0.1960
     86  CA        74.2330  227.9860   39.8830 C.3   132  ASP132      0.1840
     87  C         74.3280  226.9250   40.9760 C.2   132  ASP132      0.2623
     88  O         73.7950  227.1090   42.0770 O.2   132  ASP132     -0.2715
     89  CB        73.0840  227.6710   38.9230 C.3   132  ASP132      0.1450
     90  CG        73.2440  226.3260   38.2320 C.2   132  ASP132      0.3671
     91  OD1       74.3900  225.8480   38.1020 O.co2 132  ASP132     -0.2456
     92  OD2       72.2200  225.7420   37.8170 O.co2 132  ASP132     -0.2456
     93  N         75.0010  225.8090   40.6940 N.am  133  THR133     -0.1937
     94  CA        75.1770  224.7800   41.7120 C.3   133  THR133      0.2028
     95  C         76.2020  225.2100   42.7580 C.2   133  THR133      0.2642
     96  O         76.0400  224.9200   43.9500 O.2   133  THR133     -0.2714
     97  CB        75.5770  223.4580   41.0470 C.3   133  THR133      0.1808
     98  OG1       74.4580  222.5630   41.0420 O.3   133  THR133     -0.2208
     99  CG2       76.7410  222.8050   41.7680 C.3   133  THR133      0.0379
    100  N         77.2500  225.9210   42.3340 N.am  134  THR134     -0.1950
    101  CA        78.2820  226.3570   43.2710 C.3   134  THR134      0.1897
    102  C         77.7380  227.4050   44.2340 C.2   134  THR134      0.2313
    103  O         77.9660  227.3280   45.4470 O.2   134  THR134     -0.2863
    104  CB        79.4910  226.9010   42.5060 C.3   134  THR134      0.1794
    105  OG1       79.8820  225.9640   41.4940 O.3   134  THR134     -0.2208
    106  CG2       80.6660  227.1340   43.4480 C.3   134  THR134      0.0378
    107  N         86.8900  230.0100   38.9130 N.3   189  THR189     -0.1218
    108  CA        86.1680  229.1340   37.9980 C.3   189  THR189      0.1862
    109  C         86.8400  229.1770   36.6300 C.2   189  THR189      0.2287
    110  O         86.8690  230.2280   35.9810 O.2   189  THR189     -0.2866
    111  CB        84.7020  229.5520   37.8900 C.3   189  THR189      0.1770
    112  OG1       84.1470  229.6940   39.2040 O.3   189  THR189     -0.2211
    113  CG2       83.9040  228.5070   37.1210 C.3   189  THR189      0.0375
    114  N         86.9580  227.0850   32.9660 N.3   191  THR191     -0.1218
    115  CA        86.7220  228.4510   32.5060 C.3   191  THR191      0.1862
    116  C         85.5360  229.0550   33.2410 C.2   191  THR191      0.2287
    117  O         84.8620  228.3700   34.0060 O.2   191  THR191     -0.2866
    118  CB        86.4400  228.5020   30.9900 C.3   191  THR191      0.1770
    119  OG1       85.3160  227.6660   30.6860 O.3   191  THR191     -0.2211
    120  CG2       87.6400  228.0290   30.2030 C.3   191  THR191      0.0375
    121  N         82.0910  229.7450   33.4850 N.3   193  ASN193     -0.1240
    122  CA        80.9240  229.2250   32.7830 C.3   193  ASN193      0.1653
    123  C         79.8400  230.2860   32.6360 C.2   193  ASN193      0.2266
    124  O         79.1900  230.3730   31.5880 O.2   193  ASN193     -0.2867
    125  CB        80.3900  227.9970   33.5180 C.3   193  ASN193      0.1155
    126  CG        79.4010  227.2010   32.6870 C.2   193  ASN193      0.2627
    127  OD1       79.1370  227.5270   31.5300 O.2   193  ASN193     -0.2716
    128  ND2       78.8600  226.1380   33.2720 N.am  193  ASN193     -0.0877
    129  N         87.5960  225.9570   40.9440 N.3   222  ASP222     -0.1239
    130  CA        86.5000  225.2380   40.3000 C.3   222  ASP222      0.1674
    131  C         86.9810  224.7700   38.9320 C.2   222  ASP222      0.2266
    132  O         87.1300  225.5760   38.0070 O.2   222  ASP222     -0.2867
    133  CB        85.2700  226.1330   40.1840 C.3   222  ASP222      0.1410
    134  CG        84.0100  225.3610   39.8190 C.2   222  ASP222      0.3668
    135  OD1       84.0820  224.4530   38.9630 O.co2 222  ASP222     -0.2456
    136  OD2       82.9420  225.6670   40.3900 O.co2 222  ASP222     -0.2456
    137  N         85.9780  222.3640   36.5530 N.3   224  ALA224     -0.1231
    138  CA        85.1720  221.5410   35.6550 C.3   224  ALA224      0.1694
    139  C         85.7030  221.5990   34.2280 C.2   224  ALA224      0.2591
    140  O         85.7620  220.5760   33.5370 O.2   224  ALA224     -0.2718
    141  CB        83.7090  221.9780   35.7060 C.3   224  ALA224      0.0304
    142  N         86.1120  222.7830   33.7770 N.am  225  ARG225     -0.1980
    143  CA        86.6050  222.9470   32.4160 C.3   225  ARG225      0.1597
    144  C         88.0150  223.5240   32.4190 C.2   225  ARG225      0.2287
    145  O         88.3000  224.4950   31.7100 O.2   225  ARG225     -0.2864
    146  CB        85.6490  223.8320   31.6140 C.3   225  ARG225      0.0334
    147  CG        84.2440  223.2570   31.5280 C.3   225  ARG225      0.0492
    148  CD        83.2660  224.2110   30.8700 C.3   225  ARG225      0.2205
    149  NE        81.9040  223.6860   30.9050 N.pl3 225  ARG225     -0.0865
    150  CZ        81.0770  223.8310   31.9350 C.cat 225  ARG225      0.5346
    151  NH1       81.4720  224.4850   33.0200 N.pl3 225  ARG225      0.1354
    152  NH2       79.8540  223.3200   31.8850 N.pl3 225  ARG225      0.1354
    153  N         87.8170  221.7970   43.1540 N.3   260  THR260     -0.1218
    154  CA        86.5660  221.0520   43.0950 C.3   260  THR260      0.1862
    155  C         86.2240  220.8590   41.6270 C.2   260  THR260      0.2287
    156  O         85.9600  221.8350   40.9160 O.2   260  THR260     -0.2866
    157  CB        85.4350  221.7810   43.8250 C.3   260  THR260      0.1770
    158  OG1       85.2780  223.0980   43.2820 O.3   260  THR260     -0.2211
    159  CG2       85.7280  221.8740   45.3190 C.3   260  THR260      0.0375
    160  N         84.1040  218.8750   38.5330 N.3   262  SER262     -0.1217
    161  CA        83.0860  218.0150   37.9380 C.3   262  SER262      0.1889
    162  C         83.7510  217.3010   36.7700 C.2   262  SER262      0.2288
    163  O         83.9530  217.8870   35.7040 O.2   262  SER262     -0.2866
    164  CB        81.8740  218.8200   37.4870 C.3   262  SER262      0.2089
    165  OG        80.9020  217.9760   36.8930 O.3   262  SER262     -0.2183
    166  N         82.5700  215.3070   34.8480 N.3   264  LYS264     -0.1231
    167  CA        81.6260  215.1180   33.7520 C.3   264  LYS264      0.1693
    168  C         81.8600  216.0760   32.5920 C.2   264  LYS264      0.2591
    169  O         81.1560  215.9820   31.5770 O.2   264  LYS264     -0.2718
    170  CB        80.1950  215.2710   34.2750 C.3   264  LYS264      0.0285
    171  CG        79.8940  214.3650   35.4600 C.3   264  LYS264      0.0035
    172  CD        78.5850  214.7260   36.1380 C.3   264  LYS264      0.0206
    173  CE        77.3860  214.2980   35.3150 C.3   264  LYS264      0.1093
    174  NZ        76.1220  214.5510   36.0580 N.3   264  LYS264     -0.1314
    175  N         82.8320  216.9840   32.7000 N.am  265  LYS265     -0.1980
    176  CA        83.1250  217.8990   31.6040 C.3   265  LYS265      0.1596
    177  C         84.4240  217.5320   30.9060 C.2   265  LYS265      0.2287
    178  O         84.4810  216.5800   30.1200 O.2   265  LYS265     -0.2864
    179  CB        83.1980  219.3450   32.1040 C.3   265  LYS265      0.0298
    180  CG        81.8380  220.0180   32.4050 C.3   265  LYS265      0.0038
    181  CD        81.1600  219.4350   33.6450 C.3   265  LYS265      0.0206
    182  CE        79.9730  220.2840   34.1130 C.3   265  LYS265      0.1093
    183  NZ        79.1800  219.6190   35.1950 N.3   265  LYS265     -0.1314
    184  N         69.6550  225.6670   26.8060 N.3   388  VAL388     -0.1245
    185  CA        69.4500  226.0390   28.2000 C.3   388  VAL388      0.1561
    186  C         69.6890  227.5330   28.3680 C.2   388  VAL388      0.2260
    187  O         70.4810  228.1440   27.6430 O.2   388  VAL388     -0.2867
    188  CB        70.3620  225.2220   29.1480 C.3   388  VAL388      0.0252
    189  CG1       71.8070  225.6830   29.0440 C.3   388  VAL388      0.0019
    190  CG2       69.8630  225.3000   30.5810 C.3   388  VAL388      0.0019
    191  N         70.9100  230.8890   30.4110 N.3   390  ILE390     -0.1245
    192  CA        71.8470  231.3850   31.4120 C.3   390  ILE390      0.1561
    193  C         71.6120  232.8800   31.5890 C.2   390  ILE390      0.2260
    194  O         72.2750  233.7100   30.9570 O.2   390  ILE390     -0.2867
    195  CB        73.3080  231.0800   31.0300 C.3   390  ILE390      0.0252
    196  CG1       73.4940  229.5720   30.8320 C.3   390  ILE390      0.0019
    197  CG2       74.2640  231.6000   32.1030 C.3   390  ILE390      0.0019
    198  CD1       74.9150  229.0880   31.0180 C.3   390  ILE390      0.0001
    199  N         68.2580  231.4460   35.5400 N.3   394  LEU394     -0.1245
    200  CA        69.2590  230.6750   36.2680 C.3   394  LEU394      0.1561
    201  C         69.7620  231.4030   37.5090 C.2   394  LEU394      0.2260
    202  O         70.0470  230.7570   38.5240 O.2   394  LEU394     -0.2867
    203  CB        70.4270  230.3340   35.3370 C.3   394  LEU394      0.0270
    204  CG        71.5970  229.5070   35.8750 C.3   394  LEU394      0.0019
    205  CD1       72.0960  228.5670   34.7950 C.3   394  LEU394      0.0001
    206  CD2       72.7290  230.4060   36.3550 C.3   394  LEU394      0.0001
    207  N         72.4890  229.3080   25.8730 N.3   413  ARG413     -0.1245
    208  CA        73.7020  228.5070   25.7850 C.3   413  ARG413      0.1563
    209  C         73.4670  227.3190   24.8620 C.2   413  ARG413      0.2260
    210  O         72.6030  226.4770   25.1310 O.2   413  ARG413     -0.2867
    211  CB        74.1480  228.0300   27.1660 C.3   413  ARG413      0.0307
    212  CG        75.4930  227.3300   27.1420 C.3   413  ARG413      0.0489
    213  CD        75.9060  226.8230   28.5100 C.3   413  ARG413      0.2205
    214  NE        75.0740  225.7140   28.9600 N.pl3 413  ARG413     -0.0865
    215  CZ        75.3120  225.0000   30.0540 C.cat 413  ARG413      0.5346
    216  NH1       76.3620  225.2790   30.8150 N.pl3 413  ARG413      0.1354
    217  NH2       74.5020  224.0040   30.3870 N.pl3 413  ARG413      0.1354
    218  N         65.3150  226.9760   37.9680 N.3   457  HIS457     -0.1226
    219  CA        65.2700  226.7500   36.5250 C.3   457  HIS457      0.1752
    220  C         65.2630  225.2710   36.1470 C.2   457  HIS457      0.2596
    221  O         64.9230  224.9380   35.0050 O.2   457  HIS457     -0.2718
    222  CB        66.4520  227.4510   35.8510 C.3   457  HIS457      0.0759
    223  CG        67.7860  227.0600   36.4070 C.ar  457  HIS457      0.0818
    224  ND1       68.2150  227.4540   37.6570 N.ar  457  HIS457     -0.2268
    225  CD2       68.7870  226.3130   35.8840 C.ar  457  HIS457      0.1154
    226  CE1       69.4220  226.9660   37.8790 C.ar  457  HIS457      0.1986
    227  NE2       69.7920  226.2700   36.8190 N.ar  457  HIS457     -0.2212
    228  N         65.6160  224.3780   37.0740 N.am  458  PHE458     -0.1976
    229  CA        65.6630  222.9550   36.7540 C.3   458  PHE458      0.1639
    230  C         64.2740  222.3330   36.6660 C.2   458  PHE458      0.2290
    231  O         64.0050  221.5480   35.7510 O.2   458  PHE458     -0.2864
    232  CB        66.5060  222.2100   37.7890 C.3   458  PHE458      0.0560
    233  CG        67.9850  222.4170   37.6320 C.ar  458  PHE458     -0.0200
    234  CD1       68.6880  221.7520   36.6390 C.ar  458  PHE458     -0.0042
    235  CD2       68.6750  223.2700   38.4780 C.ar  458  PHE458     -0.0042
    236  CE1       70.0480  221.9370   36.4900 C.ar  458  PHE458     -0.0003
    237  CE2       70.0360  223.4580   38.3360 C.ar  458  PHE458     -0.0003
    238  CZ        70.7240  222.7910   37.3390 C.ar  458  PHE458     -0.0000
@<TRIPOS>BOND
     1   209   210    2
     2   209   208    1
     3   208   207    1
     4   208   211    1
     5    12    13    1
     6   184   185    1
     7   212   211    1
     8   212   213    1
     9    13    16    1
    10    13    14    1
    11    23    22    2
    12   187   186    2
    13    31    28    1
    14    31    32    1
    15    16    17    1
    16    20    14   am
    17    20    21    1
    18    22    27   am
    19    22    21    1
    20    14    15    2
    21    28    27    1
    22    28    29    1
    23   185   186    1
    24   185   188    1
    25   213   214    1
    26    21    24    1
    27    32    34   ar
    28    32    33   ar
    29    18    17    1
    30   214   215    2
    31   189   188    1
    32    17    19    1
    33   188   190    1
    34    30    29    2
    35    29    35   am
    36    26    24    1
    37   215   217    1
    38   215   216    1
    39    24    25    1
    40   178   177    2
    41    35    36    1
    42   120   118    1
    43   191   192    1
    44     1     2    1
    45   119   118    1
    46   196   198    1
    47   196   195    1
    48   148   149    1
    49   148   147    1
    50   149   150    2
    51   177   176    1
    52   194   193    2
    53   118   115    1
    54   195   192    1
    55   195   197    1
    56    38    37    2
    57    37    36    1
    58     2     3    1
    59     2     5    1
    60   192   193    1
    61    36    39    1
    62   147   146    1
    63   127   126    2
    64   169   168    2
    65   124   123    2
    66   176   179    1
    67   176   175    1
    68   146   143    1
    69     3     4    2
    70   145   144    2
    71   152   150    1
    72   150   151    1
    73   179   180    1
    74   180   181    1
    75   143   144    1
    76   143   142    1
    77   115   114    1
    78   115   116    1
    79   168   175   am
    80   168   167    1
    81    39    40    1
    82   123   122    1
    83   126   128   am
    84   126   125    1
    85     5     6    1
    86     8     6   ar
    87     8    10   ar
    88   122   121    1
    89   122   125    1
    90     6     7   ar
    91    10    11   ar
    92     7     9   ar
    93    11     9   ar
    94   116   117    2
    95   140   139    2
    96   181   182    1
    97   167   170    1
    98   167   166    1
    99   142   139   am
   100   182   183    1
   101   139   138    1
   102   170   171    1
   103    84    82   ar
   104    84    83   ar
   105    82    80   ar
   106   205   204    1
   107   221   220    2
   108   173   174    1
   109   173   172    1
   110   203   204    1
   111   203   200    1
   112    83    81   ar
   113   171   172    1
   114   199   200    1
   115   138   141    1
   116   138   137    1
   117   163   162    2
   118   231   230    2
   119   222   223    1
   120   222   219    1
   121   204   206    1
   122   225   223   ar
   123   225   227   ar
   124    80    79   ar
   125   110   109    2
   126   220   219    1
   127   220   228   am
   128   200   201    1
   129   223   224   ar
   130   236   234   ar
   131   236   238   ar
   132   219   218    1
   133    81    79   ar
   134   109   108    1
   135   234   233   ar
   136   230   229    1
   137   229   228    1
   138   229   232    1
   139   162   161    1
   140    79    78    1
   141   227   226   ar
   142   165   164    1
   143   113   111    1
   144   238   237   ar
   145   164   161    1
   146   201   202    2
   147   233   232    1
   148   233   235   ar
   149   224   226   ar
   150    92    90   ar
   151   111   108    1
   152   111   112    1
   153   161   160    1
   154   108   107    1
   155   132   131    2
   156    78    75    1
   157    91    90   ar
   158    90    89    1
   159   237   235   ar
   160    64    62    1
   161    75    74    1
   162    75    76    1
   163    89    86    1
   164   131   130    1
   165   135   134   ar
   166    85    76   am
   167    85    86    1
   168    48    47    2
   169    49    47   am
   170    47    46    1
   171    76    77    2
   172    62    63    1
   173    62    61    2
   174    45    46    1
   175    45    42    1
   176   134   133    1
   177   134   136   ar
   178    86    87    1
   179   133   130    1
   180   130   129    1
   181    50    51    1
   182    50    43   am
   183    42    43    1
   184    42    41    1
   185    93    87   am
   186    93    94    1
   187    61    60    1
   188    51    52    1
   189   156   155    2
   190    87    88    2
   191    98    97    1
   192    97    94    1
   193    97    99    1
   194    43    44    2
   195   105   104    1
   196   155   154    1
   197    94    95    1
   198    60    59    1
   199    52    54   am
   200    52    53    2
   201    54    55    1
   202   100    95   am
   203   100   101    1
   204   104   101    1
   205   104   106    1
   206    72    71   ar
   207    95    96    2
   208    59    58    1
   209    58    55    1
   210   154   153    1
   211   154   157    1
   212   101   102    1
   213   158   157    1
   214    55    56    1
   215    71    73   ar
   216    71    70    1
   217   157   159    1
   218   102   103    2
   219    70    69    1
   220    56    57    2
   221    69    66    1
   222    65    66    1
   223    66    67    1
   224    67    68    2
