@<TRIPOS>MOLECULE
tmp/5w1aA00.pdb
 98 93 0 0 0
SMALL
GASTEIGER

@<TRIPOS>ATOM
      1  N         94.6420   70.6100   56.7450 N.3   120  ASN120     -0.1240
      2  CA        95.6510   70.9080   55.7380 C.3   120  ASN120      0.1653
      3  C         96.0290   69.6440   54.9700 C.2   120  ASN120      0.2266
      4  O         96.5190   68.6840   55.5830 O.2   120  ASN120     -0.2867
      5  CB        96.8840   71.5050   56.4160 C.3   120  ASN120      0.1155
      6  CG        97.8240   72.1760   55.4400 C.2   120  ASN120      0.2627
      7  OD1       97.7710   71.9250   54.2350 O.2   120  ASN120     -0.2716
      8  ND2       98.7020   73.0310   55.9580 N.am  120  ASN120     -0.0877
      9  N         98.4020   69.3680   52.6140 N.3   122  TYR122     -0.1241
     10  CA        99.7790   69.4150   52.1150 C.3   122  TYR122      0.1605
     11  C         99.8370   68.9620   50.6600 C.2   122  TYR122      0.2264
     12  O        100.8270   68.3860   50.2040 O.2   122  TYR122     -0.2867
     13  CB       100.7170   68.5880   52.9960 C.3   122  TYR122      0.0534
     14  CG       100.6730   69.0390   54.4330 C.ar  122  TYR122     -0.0201
     15  CD1      101.0790   70.3180   54.7870 C.ar  122  TYR122     -0.0009
     16  CD2      100.1980   68.2010   55.4330 C.ar  122  TYR122     -0.0009
     17  CE1      101.0240   70.7470   56.0920 C.ar  122  TYR122      0.0417
     18  CE2      100.1410   68.6210   56.7450 C.ar  122  TYR122      0.0417
     19  CZ       100.5560   69.8960   57.0690 C.ar  122  TYR122      0.1957
     20  OH       100.5020   70.3240   58.3760 O.3   122  TYR122     -0.2866
     21  N         97.1610   76.2360   64.5280 N.3   173  GLU173     -0.1231
     22  CA        98.5420   76.2830   64.9780 C.3   173  GLU173      0.1699
     23  C         99.4830   76.2530   63.7760 C.2   173  GLU173      0.2593
     24  O         99.0590   76.1930   62.6180 O.2   173  GLU173     -0.2718
     25  CB        98.8270   75.1240   65.9320 C.3   173  GLU173      0.0402
     26  CG        97.9980   75.1570   67.2060 C.3   173  GLU173      0.1161
     27  CD        98.2740   76.3890   68.0400 C.2   173  GLU173      0.3649
     28  OE1       99.3940   76.9330   67.9430 O.co2 173  GLU173     -0.2457
     29  OE2       97.3690   76.8230   68.7840 O.co2 173  GLU173     -0.2457
     30  N        100.7840   76.2990   64.0550 N.am  174  SER174     -0.1938
     31  CA       101.7780   76.2700   62.9910 C.3   174  SER174      0.2055
     32  C        101.6260   75.0060   62.1550 C.2   174  SER174      0.2644
     33  O        101.5690   73.8950   62.6880 O.2   174  SER174     -0.2714
     34  CB       103.1850   76.3430   63.5790 C.3   174  SER174      0.2130
     35  OG       104.1600   76.3160   62.5510 O.3   174  SER174     -0.2179
     36  N        101.5610   75.1840   60.8390 N.am  175  GLY175     -0.1939
     37  CA       101.3890   74.0840   59.9180 C.3   175  GLY175      0.2014
     38  C         99.9540   73.7830   59.5470 C.2   175  GLY175      0.2639
     39  O         99.7230   72.9400   58.6720 O.2   175  GLY175     -0.2714
     40  N         98.9820   74.4490   60.1660 N.am  176  ALA176     -0.1963
     41  CA        97.5810   74.1480   59.9050 C.3   176  ALA176      0.1728
     42  C         97.0490   74.8250   58.6490 C.2   176  ALA176      0.2617
     43  O         95.9340   74.5040   58.2200 O.2   176  ALA176     -0.2715
     44  CB        96.7260   74.5560   61.1070 C.3   176  ALA176      0.0334
     45  N         97.8090   75.7400   58.0520 N.am  177  GLY177     -0.1940
     46  CA        97.3440   76.4520   56.8800 C.3   177  GLY177      0.2014
     47  C         96.4790   77.6560   57.1730 C.2   177  GLY177      0.2639
     48  O         95.7210   78.0860   56.2980 O.2   177  GLY177     -0.2714
     49  N         96.5630   78.2190   58.3810 N.am  178  LYS178     -0.1963
     50  CA        95.7310   79.3700   58.7170 C.3   178  LYS178      0.1728
     51  C         96.0170   80.5490   57.7970 C.2   178  LYS178      0.2617
     52  O         95.0900   81.2410   57.3600 O.2   178  LYS178     -0.2715
     53  CB        95.9470   79.7700   60.1760 C.3   178  LYS178      0.0311
     54  CG        95.2190   81.0450   60.5740 C.3   178  LYS178      0.0038
     55  CD        95.1420   81.2120   62.0830 C.3   178  LYS178      0.0206
     56  CE        96.5180   81.3540   62.7120 C.3   178  LYS178      0.1093
     57  NZ        96.4200   81.5560   64.1850 N.3   178  LYS178     -0.1314
     58  N         97.2940   80.7970   57.4910 N.am  179  THR179     -0.1937
     59  CA        97.6410   81.9260   56.6310 C.3   179  THR179      0.2028
     60  C         97.0210   81.7670   55.2490 C.2   179  THR179      0.2642
     61  O         96.3740   82.6870   54.7360 O.2   179  THR179     -0.2714
     62  CB        99.1620   82.0650   56.5230 C.3   179  THR179      0.1808
     63  OG1       99.7070   82.3550   57.8150 O.3   179  THR179     -0.2208
     64  CG2       99.5440   83.1880   55.5560 C.3   179  THR179      0.0379
     65  N         97.2140   80.6020   54.6270 N.am  180  GLU180     -0.1976
     66  CA        96.6400   80.3650   53.3070 C.3   180  GLU180      0.1602
     67  C         95.1260   80.5350   53.3290 C.2   180  GLU180      0.2287
     68  O         94.5510   81.1670   52.4330 O.2   180  GLU180     -0.2864
     69  CB        97.0250   78.9670   52.8180 C.3   180  GLU180      0.0415
     70  CG        96.5030   78.5940   51.4300 C.3   180  GLU180      0.1163
     71  CD        97.2140   79.3340   50.3070 C.2   180  GLU180      0.3649
     72  OE1       97.9700   80.2870   50.5960 O.co2 180  GLU180     -0.2457
     73  OE2       97.0200   78.9580   49.1300 O.co2 180  GLU180     -0.2457
     74  N        107.2620   77.4240   66.9040 N.3   230  ASN230     -0.1240
     75  CA       106.9970   78.0890   65.6310 C.3   230  ASN230      0.1653
     76  C        108.0780   79.1140   65.3170 C.2   230  ASN230      0.2266
     77  O        108.2910   80.0610   66.0820 O.2   230  ASN230     -0.2867
     78  CB       105.6150   78.7490   65.6640 C.3   230  ASN230      0.1155
     79  CG       105.2310   79.4010   64.3410 C.2   230  ASN230      0.2627
     80  OD1      105.9970   79.3980   63.3790 O.2   230  ASN230     -0.2716
     81  ND2      104.0250   79.9520   64.2890 N.am  230  ASN230     -0.0877
     82  N        108.0730   81.3980   63.1590 N.3   232  ASN232     -0.1240
     83  CA       107.5090   82.6820   62.7410 C.3   232  ASN232      0.1653
     84  C        106.1210   82.8250   63.3760 C.2   232  ASN232      0.2266
     85  O        105.0880   82.8100   62.7120 O.2   232  ASN232     -0.2867
     86  CB       107.4460   82.7860   61.2140 C.3   232  ASN232      0.1155
     87  CG       107.0710   84.1770   60.7330 C.2   232  ASN232      0.2627
     88  OD1      107.1930   85.1560   61.4670 O.2   232  ASN232     -0.2716
     89  ND2      106.6140   84.2690   59.4900 N.am  232  ASN232     -0.0877
     90  N        104.1750   67.1850   57.9620 N.3   659  LYS659     -0.1245
     91  CA       103.6480   67.7500   56.7230 C.3   659  LYS659      0.1561
     92  C        103.3260   66.6730   55.6940 C.2   659  LYS659      0.2260
     93  O        103.2430   66.9610   54.4960 O.2   659  LYS659     -0.2867
     94  CB       104.6200   68.7680   56.1180 C.3   659  LYS659      0.0271
     95  CG       105.1740   69.7780   57.1170 C.3   659  LYS659      0.0035
     96  CD       104.0660   70.5130   57.8560 C.3   659  LYS659      0.0206
     97  CE       104.6130   71.6820   58.6660 C.3   659  LYS659      0.1093
     98  NZ       105.1520   72.7620   57.7900 N.3   659  LYS659     -0.1314
@<TRIPOS>BOND
     1    73    71   ar
     2    12    11    2
     3    71    72   ar
     4    71    70    1
     5    11    10    1
     6    70    69    1
     7    10     9    1
     8    10    13    1
     9    68    67    2
    10    69    66    1
    11    13    14    1
    12    66    67    1
    13    66    65    1
    14     7     6    2
    15    14    15   ar
    16    14    16   ar
    17    93    92    2
    18    65    60   am
    19    61    60    2
    20    15    17   ar
    21     3     4    2
    22     3     2    1
    23    60    59    1
    24    16    18   ar
    25     6     8   am
    26     6     5    1
    27    64    62    1
    28    92    91    1
    29     2     5    1
    30     2     1    1
    31    17    19   ar
    32    94    91    1
    33    94    95    1
    34    48    47    2
    35    62    59    1
    36    62    63    1
    37    59    58    1
    38    91    90    1
    39    18    19   ar
    40    46    47    1
    41    46    45    1
    42    19    20    1
    43    95    96    1
    44    47    49   am
    45    52    51    2
    46    58    51   am
    47    98    97    1
    48    51    50    1
    49    96    97    1
    50    45    42   am
    51    43    42    2
    52    49    50    1
    53    42    41    1
    54    39    38    2
    55    50    53    1
    56    89    87   am
    57    38    37    1
    58    38    40   am
    59    41    40    1
    60    41    44    1
    61    37    36    1
    62    53    54    1
    63    54    55    1
    64    87    86    1
    65    87    88    2
    66    36    32   am
    67    86    83    1
    68    55    56    1
    69    32    33    2
    70    32    31    1
    71    35    34    1
    72    24    23    2
    73    56    57    1
    74    85    84    2
    75    83    82    1
    76    83    84    1
    77    31    34    1
    78    31    30    1
    79    80    79    2
    80    23    30   am
    81    23    22    1
    82    81    79   am
    83    79    78    1
    84    21    22    1
    85    22    25    1
    86    76    75    1
    87    76    77    2
    88    75    78    1
    89    75    74    1
    90    25    26    1
    91    26    27    1
    92    28    27   ar
    93    27    29   ar
