@<TRIPOS>MOLECULE
tmp/5w1cA00.pdb
 116 113 0 0 0
SMALL
GASTEIGER

@<TRIPOS>ATOM
      1  N        227.1320   -5.9120 1282.5480 N.3   391  ARG391     -0.1231
      2  CA       228.3380   -6.6060 1282.1190 C.3   391  ARG391      0.1694
      3  C        229.4120   -6.4800 1283.1860 C.2   391  ARG391      0.2591
      4  O        229.6480   -5.3910 1283.7180 O.2   391  ARG391     -0.2718
      5  CB       228.8590   -6.0890 1280.7870 C.3   391  ARG391      0.0321
      6  CG       227.8870   -6.3320 1279.7000 C.3   391  ARG391      0.0489
      7  CD       228.5320   -6.7310 1278.3980 C.3   391  ARG391      0.2205
      8  NE       227.5770   -7.4220 1277.5430 N.pl3 391  ARG391     -0.0865
      9  CZ       226.5040   -6.8230 1277.0370 C.cat 391  ARG391      0.5346
     10  NH1      226.2580   -5.5490 1277.3210 N.pl3 391  ARG391      0.1354
     11  NH2      225.6780   -7.4780 1276.2390 N.pl3 391  ARG391      0.1354
     12  N        229.9970   -7.6100 1283.5420 N.am  392  ARG392     -0.1980
     13  CA       230.9660   -7.7450 1284.6220 C.3   392  ARG392      0.1597
     14  C        232.4010   -7.6940 1284.1320 C.2   392  ARG392      0.2287
     15  O        233.2200   -6.9600 1284.6830 O.2   392  ARG392     -0.2864
     16  CB       230.6290   -9.0250 1285.3600 C.3   392  ARG392      0.0334
     17  CG       229.3720   -8.8950 1286.1740 C.3   392  ARG392      0.0492
     18  CD       229.5500   -9.0070 1287.6910 C.3   392  ARG392      0.2205
     19  NE       228.5120   -8.3630 1288.4920 N.pl3 392  ARG392     -0.0865
     20  CZ       228.6380   -8.0480 1289.7790 C.cat 392  ARG392      0.5346
     21  NH1      229.7560   -8.3380 1290.4290 N.pl3 392  ARG392      0.1354
     22  NH2      227.6310   -7.4770 1290.4270 N.pl3 392  ARG392      0.1354
     23  N        235.7040   -6.8050 1282.2720 N.3   394  THR394     -0.1218
     24  CA       236.2590   -5.7750 1281.4510 C.3   394  THR394      0.1862
     25  C        237.3440   -6.3490 1280.5990 C.2   394  THR394      0.2287
     26  O        238.2060   -6.9940 1281.1070 O.2   394  THR394     -0.2866
     27  CB       236.9380   -4.7460 1282.3090 C.3   394  THR394      0.1770
     28  OG1      236.1590   -4.5390 1283.4760 O.3   394  THR394     -0.2211
     29  CG2      237.0350   -3.4760 1281.5770 C.3   394  THR394      0.0375
     30  N        239.4970   -9.7080 1282.5840 N.3   413  ASN413     -0.1240
     31  CA       239.4300   -9.7760 1284.0430 C.3   413  ASN413      0.1653
     32  C        239.9130  -11.1150 1284.5570 C.2   413  ASN413      0.2266
     33  O        240.0370  -12.0710 1283.7890 O.2   413  ASN413     -0.2867
     34  CB       237.9810   -9.6060 1284.5150 C.3   413  ASN413      0.1155
     35  CG       237.5930   -8.1840 1284.8110 C.2   413  ASN413      0.2627
     36  OD1      236.6010   -7.9750 1285.5050 O.2   413  ASN413     -0.2716
     37  ND2      238.5490   -7.2870 1284.6710 N.am  413  ASN413     -0.0877
     38  N        241.4060   -6.0090 1288.2340 N.3   418  HIS418     -0.1226
     39  CA       240.8610   -5.3090 1287.0890 C.3   418  HIS418      0.1752
     40  C        241.9410   -5.2560 1286.0190 C.2   418  HIS418      0.2596
     41  O        243.1350   -5.3230 1286.3070 O.2   418  HIS418     -0.2718
     42  CB       240.4240   -3.9050 1287.5400 C.3   418  HIS418      0.0759
     43  CG       239.4280   -3.9140 1288.6620 C.ar  418  HIS418      0.0818
     44  ND1      239.0310   -2.7750 1289.3330 N.ar  418  HIS418     -0.2268
     45  CD2      238.5140   -4.8610 1288.9890 C.ar  418  HIS418      0.1154
     46  CE1      238.0640   -3.0770 1290.1800 C.ar  418  HIS418      0.1986
     47  NE2      237.7150   -4.3340 1289.9730 N.ar  418  HIS418     -0.2212
     48  N        241.5010   -5.0550 1284.7760 N.am  419  VAL419     -0.1966
     49  CA       242.3990   -5.2360 1283.6390 C.3   419  VAL419      0.1727
     50  C        243.5370   -4.2370 1283.6580 C.2   419  VAL419      0.2616
     51  O        244.6830   -4.5810 1283.3520 O.2   419  VAL419     -0.2715
     52  CB       241.6240   -5.1490 1282.3200 C.3   419  VAL419      0.0290
     53  CG1      240.6640   -6.2610 1282.2510 C.3   419  VAL419      0.0023
     54  CG2      240.9200   -3.8020 1282.2170 C.3   419  VAL419      0.0023
     55  N        243.2540   -3.0000 1284.0630 N.am  420  ALA420     -0.1977
     56  CA       244.2840   -1.9740 1284.0680 C.3   420  ALA420      0.1597
     57  C        245.4620   -2.4080 1284.9250 C.2   420  ALA420      0.2287
     58  O        246.6220   -2.1610 1284.5750 O.2   420  ALA420     -0.2864
     59  CB       243.7050   -0.6440 1284.5450 C.3   420  ALA420      0.0319
     60  N        235.0940   -1.1540 1279.8150 N.3   446  TRP446     -0.1227
     61  CA       234.7110   -0.1670 1280.8040 C.3   446  TRP446      0.1737
     62  C        235.8650    0.7820 1281.0780 C.2   446  TRP446      0.2596
     63  O        237.0100    0.3410 1281.2400 O.2   446  TRP446     -0.2718
     64  CB       234.3040   -0.8420 1282.1230 C.3   446  TRP446      0.0564
     65  CG       232.9790   -1.5550 1282.1450 C.ar  446  TRP446      0.0003
     66  CD1      232.7650   -2.9040 1282.2000 C.ar  446  TRP446      0.0946
     67  CD2      231.6850   -0.9450 1282.1510 C.ar  446  TRP446      0.0152
     68  NE1      231.4140   -3.1680 1282.2350 N.ar  446  TRP446     -0.2442
     69  CE2      230.7310   -1.9810 1282.2030 C.ar  446  TRP446      0.0810
     70  CE3      231.2400    0.3780 1282.1070 C.ar  446  TRP446      0.0012
     71  CZ2      229.3600   -1.7320 1282.2110 C.ar  446  TRP446      0.0191
     72  CZ3      229.8800    0.6240 1282.1220 C.ar  446  TRP446      0.0001
     73  CH2      228.9570   -0.4240 1282.1690 C.ar  446  TRP446      0.0015
     74  N        235.5290    2.0540 1281.3200 N.am  447  SER447     -0.1938
     75  CA       236.5350    3.0290 1281.6910 C.3   447  SER447      0.2040
     76  C        237.0130    2.6560 1283.0980 C.2   447  SER447      0.2485
     77  O        236.3780    1.8510 1283.7730 O.2   447  SER447     -0.2729
     78  CB       235.9380    4.4380 1281.7400 C.3   447  SER447      0.2129
     79  OG       235.0030    4.5430 1282.8040 O.3   447  SER447     -0.2179
     80  N        238.2060    3.1110 1283.4900 N.am  448  PRO448     -0.2715
     81  CA       238.7650    2.7850 1284.8170 C.3   448  PRO448      0.1536
     82  C        237.9270    3.3020 1285.9820 C.2   448  PRO448      0.2598
     83  O        237.2940    4.3570 1285.8860 O.2   448  PRO448     -0.2715
     84  CB       240.1380    3.4460 1284.8410 C.3   448  PRO448      0.0310
     85  CG       240.1010    4.3630 1283.7720 C.3   448  PRO448      0.0237
     86  CD       239.2090    3.8490 1282.7100 C.3   448  PRO448      0.0939
     87  N        237.8760    2.5160 1287.0500 N.am  449  CYS449     -0.1968
     88  CA       237.2600    2.9410 1288.3000 C.3   449  CYS449      0.1712
     89  C        238.2500    3.8090 1289.0830 C.2   449  CYS449      0.2296
     90  O        239.3630    4.0930 1288.6290 O.2   449  CYS449     -0.2864
     91  CB       236.9270    1.7010 1289.1310 C.3   449  CYS449      0.0983
     92  SG       238.4540    0.6090 1289.5380 S.3   449  CYS449     -0.0798
     93  N        241.5340    1.9940 1289.9550 N.3   452  CYS452     -0.1235
     94  CA       242.3160    1.8380 1288.7410 C.3   452  CYS452      0.1677
     95  C        242.8390    3.1820 1288.2420 C.2   452  CYS452      0.2270
     96  O        243.9820    3.2720 1287.7850 O.2   452  CYS452     -0.2867
     97  CB       241.4470    1.1570 1287.6910 C.3   452  CYS452      0.0956
     98  SG       241.3170   -0.5970 1288.0170 S.3   452  CYS452     -0.0801
     99  N        232.0930    3.6600 1283.2660 N.3   476  TYR476     -0.1241
    100  CA       231.7180    2.9060 1284.4490 C.3   476  TYR476      0.1605
    101  C        231.5740    3.8460 1285.6380 C.2   476  TYR476      0.2264
    102  O        232.4510    4.6810 1285.8900 O.2   476  TYR476     -0.2867
    103  CB       232.7620    1.8250 1284.7570 C.3   476  TYR476      0.0534
    104  CG       232.5220    1.0720 1286.0510 C.ar  476  TYR476     -0.0201
    105  CD1      233.0060    1.5690 1287.2540 C.ar  476  TYR476     -0.0009
    106  CD2      231.8360   -0.1340 1286.0720 C.ar  476  TYR476     -0.0009
    107  CE1      232.8020    0.9040 1288.4370 C.ar  476  TYR476      0.0417
    108  CE2      231.6280   -0.8140 1287.2620 C.ar  476  TYR476      0.0417
    109  CZ       232.1170   -0.2840 1288.4400 C.ar  476  TYR476      0.1957
    110  OH       231.9320   -0.9240 1289.6420 O.3   476  TYR476     -0.2866
    111  N        230.2650    3.2860 1289.8940 N.3   478  CYS478     -0.1235
    112  CA       229.5910    2.6950 1291.0320 C.3   478  CYS478      0.1677
    113  C        229.4230    3.7750 1292.0790 C.2   478  CYS478      0.2270
    114  O        230.3790    4.5150 1292.3670 O.2   478  CYS478     -0.2867
    115  CB       230.4290    1.5650 1291.6370 C.3   478  CYS478      0.0956
    116  SG       231.8780    2.1410 1292.5800 S.3   478  CYS478     -0.0801
@<TRIPOS>BOND
     1    11     9    1
     2     9    10    1
     3     9     8    2
     4     8     7    1
     5     7     6    1
     6     6     5    1
     7    60    61    1
     8    25    26    2
     9    25    24    1
    10     5     2    1
    11    61    62    1
    12    61    64    1
    13    62    63    2
    14    62    74   am
    15    74    75    1
    16    24    23    1
    17    24    27    1
    18    29    27    1
    19    75    78    1
    20    75    76    1
    21    78    79    1
    22    70    72   ar
    23    70    67   ar
    24     2     1    1
    25     2     3    1
    26    72    73   ar
    27    64    65    1
    28    65    67   ar
    29    65    66   ar
    30    67    69   ar
    31    73    71   ar
    32    66    68   ar
    33    69    71   ar
    34    69    68   ar
    35    54    52    1
    36    53    52    1
    37    27    28    1
    38    52    49    1
    39    30    31    1
    40    86    80    1
    41    86    85    1
    42    76    80   am
    43    76    77    2
    44     3    12   am
    45     3     4    2
    46    99   100    1
    47    51    50    2
    48    80    81    1
    49    12    13    1
    50    49    50    1
    51    49    48    1
    52    50    55   am
    53    85    84    1
    54    33    32    2
    55    31    34    1
    56    31    32    1
    57    55    56    1
    58    56    59    1
    59    56    57    1
    60    14    13    1
    61    14    15    2
    62   100   103    1
    63   100   101    1
    64    34    35    1
    65    58    57    2
    66    13    16    1
    67    37    35   am
    68   103   104    1
    69    48    40   am
    70    35    36    2
    71    81    84    1
    72    81    82    1
    73    16    17    1
    74   101   102    2
    75    83    82    2
    76    82    87   am
    77    40    41    2
    78    40    39    1
    79   104   106   ar
    80   104   105   ar
    81   106   108   ar
    82    17    18    1
    83    87    88    1
    84    39    42    1
    85    39    38    1
    86   105   107   ar
    87   108   109   ar
    88    42    43    1
    89    18    19    1
    90    97    98    1
    91    97    94    1
    92    96    95    2
    93    95    94    1
    94    88    89    1
    95    88    91    1
    96   107   109   ar
    97   109   110    1
    98    19    20    2
    99    90    89    2
   100    43    45   ar
   101    43    44   ar
   102    94    93    1
   103    45    47   ar
   104    91    92    1
   105    44    46   ar
   106    20    22    1
   107    20    21    1
   108   111   112    1
   109    47    46   ar
   110   112   115    1
   111   112   113    1
   112   115   116    1
   113   113   114    2
