@<TRIPOS>MOLECULE
tmp/5w1eA00.pdb
 123 112 0 0 0
SMALL
GASTEIGER

@<TRIPOS>ATOM
      1  N         -3.3610   64.1560   18.0580 N.3    98  SER98      -0.1217
      2  CA        -2.5450   65.2920   17.6590 C.3    98  SER98       0.1889
      3  C         -1.0830   65.0540   18.0210 C.2    98  SER98       0.2288
      4  O         -0.7710   64.5460   19.1020 O.2    98  SER98      -0.2866
      5  CB        -3.0510   66.5710   18.3290 C.3    98  SER98       0.2089
      6  OG        -4.4050   66.8300   17.9970 O.3    98  SER98      -0.2183
      7  N          2.8140   67.1080   17.7570 N.3   100  SER100     -0.1217
      8  CA         3.4790   68.3740   17.4960 C.3   100  SER100      0.1889
      9  C          4.9500   68.2850   17.8730 C.2   100  SER100      0.2288
     10  O          5.3510   67.4620   18.7010 O.2   100  SER100     -0.2866
     11  CB         2.8180   69.5300   18.2610 C.3   100  SER100      0.2089
     12  OG         2.9720   69.3730   19.6610 O.3   100  SER100     -0.2183
     13  N          6.1100   76.2040   18.2570 N.3   111  PHE111     -0.1241
     14  CA         5.8860   74.9900   17.4850 C.3   111  PHE111      0.1605
     15  C          6.5550   75.0910   16.1210 C.2   111  PHE111      0.2264
     16  O          6.4500   76.1170   15.4400 O.2   111  PHE111     -0.2867
     17  CB         4.3900   74.7200   17.3270 C.3   111  PHE111      0.0534
     18  CG         3.7070   74.3470   18.6130 C.ar  111  PHE111     -0.0203
     19  CD1        4.0140   73.1580   19.2540 C.ar  111  PHE111     -0.0042
     20  CD2        2.7570   75.1830   19.1800 C.ar  111  PHE111     -0.0042
     21  CE1        3.3880   72.8080   20.4400 C.ar  111  PHE111     -0.0003
     22  CE2        2.1280   74.8400   20.3650 C.ar  111  PHE111     -0.0003
     23  CZ         2.4450   73.6500   20.9950 C.ar  111  PHE111     -0.0000
     24  N          2.9060   70.8390   13.4170 N.3   114  GLN114     -0.1245
     25  CA         1.5900   70.6100   13.9970 C.3   114  GLN114      0.1566
     26  C          0.8030   69.6590   13.1100 C.2   114  GLN114      0.2260
     27  O          0.7020   69.8730   11.8990 O.2   114  GLN114     -0.2867
     28  CB         0.8150   71.9230   14.1720 C.3   114  GLN114      0.0367
     29  CG         1.1030   72.6590   15.4740 C.3   114  GLN114      0.0905
     30  CD         0.5390   71.9430   16.6890 C.2   114  GLN114      0.2608
     31  OE1       -0.2560   71.0110   16.5630 O.2   114  GLN114     -0.2717
     32  NE2        0.9540   72.3740   17.8740 N.am  114  GLN114     -0.0878
     33  N         -9.5470   66.9090   17.3340 N.3   119  ARG119     -0.1245
     34  CA        -9.1770   68.0790   18.1210 C.3   119  ARG119      0.1563
     35  C        -10.3190   69.0870   18.2360 C.2   119  ARG119      0.2260
     36  O        -10.0980   70.2210   18.6740 O.2   119  ARG119     -0.2867
     37  CB        -7.9330   68.7210   17.4920 C.3   119  ARG119      0.0307
     38  CG        -7.2120   69.7880   18.3090 C.3   119  ARG119      0.0489
     39  CD        -6.6700   69.2490   19.6160 C.3   119  ARG119      0.2205
     40  NE        -5.9260   70.2780   20.3380 N.pl3 119  ARG119     -0.0865
     41  CZ        -4.6040   70.4050   20.3110 C.cat 119  ARG119      0.5346
     42  NH1       -3.8650   69.5590   19.6050 N.pl3 119  ARG119      0.1354
     43  NH2       -4.0180   71.3750   21.0000 N.pl3 119  ARG119      0.1354
     44  N         -3.1410   74.8060   17.9330 N.3   125  PHE125     -0.1241
     45  CA        -2.1160   75.8020   17.6710 C.3   125  PHE125      0.1605
     46  C         -1.4720   75.5580   16.3150 C.2   125  PHE125      0.2264
     47  O         -1.5950   74.4820   15.7220 O.2   125  PHE125     -0.2867
     48  CB        -1.0580   75.8010   18.7790 C.3   125  PHE125      0.0534
     49  CG        -1.6380   75.9570   20.1540 C.ar  125  PHE125     -0.0203
     50  CD1       -2.0860   77.1930   20.5910 C.ar  125  PHE125     -0.0042
     51  CD2       -1.7570   74.8670   21.0000 C.ar  125  PHE125     -0.0042
     52  CE1       -2.6310   77.3420   21.8530 C.ar  125  PHE125     -0.0003
     53  CE2       -2.3000   75.0090   22.2640 C.ar  125  PHE125     -0.0003
     54  CZ        -2.7370   76.2490   22.6910 C.ar  125  PHE125     -0.0000
     55  N          3.7250   79.5660   23.3040 N.3   131  LEU131     -0.1245
     56  CA         2.9930   79.2910   24.5290 C.3   131  LEU131      0.1561
     57  C          3.9020   79.4870   25.7370 C.2   131  LEU131      0.2260
     58  O          5.1150   79.2700   25.6450 O.2   131  LEU131     -0.2867
     59  CB         2.4360   77.8600   24.5540 C.3   131  LEU131      0.0270
     60  CG         1.7120   77.2820   23.3360 C.3   131  LEU131      0.0019
     61  CD1        0.9940   75.9910   23.7150 C.3   131  LEU131      0.0001
     62  CD2        0.7440   78.2750   22.7250 C.3   131  LEU131      0.0001
     63  N          2.8110   74.0400   29.5810 N.3   136  THR136     -0.1203
     64  CA         2.9190   73.0000   28.5690 C.3   136  THR136      0.1994
     65  C          3.7200   71.8330   29.1300 C.2   136  THR136      0.2618
     66  O          4.3670   71.9350   30.1740 O.2   136  THR136     -0.2717
     67  CB         3.5940   73.5100   27.2870 C.3   136  THR136      0.1784
     68  OG1        5.0020   73.6510   27.5150 O.3   136  THR136     -0.2211
     69  CG2        3.0160   74.8540   26.8550 C.3   136  THR136      0.0376
     70  N          3.6800   70.7170   28.4100 N.am  137  ALA137     -0.1966
     71  CA         4.5050   69.5600   28.7320 C.3   137  ALA137      0.1713
     72  C          5.9270   69.7030   28.1860 C.2   137  ALA137      0.2458
     73  O          6.8760   69.2810   28.8590 O.2   137  ALA137     -0.2730
     74  CB         3.8510   68.2760   28.2120 C.3   137  ALA137      0.0333
     75  N          6.1380   70.2690   26.9880 N.am  138  PRO138     -0.2727
     76  CA         7.5260   70.5160   26.5550 C.3   138  PRO138      0.1402
     77  C          8.2810   71.4970   27.4370 C.2   138  PRO138      0.2269
     78  O          9.5130   71.4100   27.5240 O.2   138  PRO138     -0.2865
     79  CB         7.3550   71.0630   25.1310 C.3   138  PRO138      0.0296
     80  CG         6.0870   70.4690   24.6630 C.3   138  PRO138      0.0237
     81  CD         5.1950   70.4670   25.8690 C.3   138  PRO138      0.0939
     82  N          1.2490   67.0950   30.6390 N.3   197  ASP197     -0.1239
     83  CA         0.4420   68.3080   30.7190 C.3   197  ASP197      0.1674
     84  C         -0.9720   67.8870   31.0970 C.2   197  ASP197      0.2266
     85  O         -1.6900   67.3080   30.2750 O.2   197  ASP197     -0.2867
     86  CB         0.4710   69.0680   29.3880 C.3   197  ASP197      0.1410
     87  CG        -0.5120   70.2410   29.3370 C.2   197  ASP197      0.3668
     88  OD1       -1.1720   70.5490   30.3500 O.co2 197  ASP197     -0.2456
     89  OD2       -0.6240   70.8640   28.2590 O.co2 197  ASP197     -0.2456
     90  N         -3.2980   74.2080   29.7260 N.3   201  ILE201     -0.1245
     91  CA        -3.7690   75.2150   28.7800 C.3   201  ILE201      0.1561
     92  C         -5.2350   75.5400   29.0320 C.2   201  ILE201      0.2260
     93  O         -5.6220   76.7120   29.1140 O.2   201  ILE201     -0.2867
     94  CB        -3.5410   74.7360   27.3340 C.3   201  ILE201      0.0252
     95  CG1       -2.0500   74.5230   27.0590 C.3   201  ILE201      0.0019
     96  CG2       -4.1360   75.7300   26.3480 C.3   201  ILE201      0.0019
     97  CD1       -1.2470   75.8010   27.0120 C.3   201  ILE201      0.0001
     98  N         -7.7050   69.4210   27.8170 N.3   205  LEU205     -0.1245
     99  CA        -6.5430   69.2660   26.9490 C.3   205  LEU205      0.1561
    100  C         -5.3940   68.6350   27.7280 C.2   205  LEU205      0.2260
    101  O         -4.9270   69.2040   28.7190 O.2   205  LEU205     -0.2867
    102  CB        -6.1260   70.6190   26.3770 C.3   205  LEU205      0.0270
    103  CG        -5.0660   70.5960   25.2790 C.3   205  LEU205      0.0019
    104  CD1       -5.5730   69.8050   24.0870 C.3   205  LEU205      0.0001
    105  CD2       -4.7020   72.0150   24.8730 C.3   205  LEU205      0.0001
    106  N         -1.5440   66.2740   27.3380 N.3   207  ALA207     -0.1245
    107  CA        -0.4410   65.9780   26.4360 C.3   207  ALA207      0.1562
    108  C          0.6800   65.2830   27.1950 C.2   207  ALA207      0.2260
    109  O          0.8520   65.4780   28.4020 O.2   207  ALA207     -0.2867
    110  CB         0.0910   67.2490   25.7620 C.3   207  ALA207      0.0290
    111  N          5.2940   65.8330   21.1410 N.3   225  SER225     -0.1217
    112  CA         4.1610   65.6810   22.0430 C.3   225  SER225      0.1889
    113  C          3.0370   64.9190   21.3580 C.2   225  SER225      0.2288
    114  O          2.7930   65.0970   20.1610 O.2   225  SER225     -0.2866
    115  CB         3.6250   67.0440   22.5120 C.3   225  SER225      0.2089
    116  OG         4.6480   67.8390   23.0840 O.3   225  SER225     -0.2183
    117  N         -0.9610   64.8010   21.8500 N.3   227  VAL227     -0.1245
    118  CA        -1.9680   65.6450   22.4810 C.3   227  VAL227      0.1561
    119  C         -3.3260   64.9720   22.3340 C.2   227  VAL227      0.2260
    120  O         -3.7020   64.5520   21.2330 O.2   227  VAL227     -0.2867
    121  CB        -1.9720   67.0570   21.8690 C.3   227  VAL227      0.0252
    122  CG1       -2.8700   67.9760   22.6690 C.3   227  VAL227      0.0019
    123  CG2       -0.5550   67.6090   21.8120 C.3   227  VAL227      0.0019
@<TRIPOS>BOND
     1    27    26    2
     2    26    25    1
     3    24    25    1
     4    25    28    1
     5    28    29    1
     6    16    15    2
     7    29    30    1
     8    47    46    2
     9    15    14    1
    10    46    45    1
    11    31    30    2
    12    30    32   am
    13    17    14    1
    14    17    18    1
    15    33    34    1
    16    14    13    1
    17    37    34    1
    18    37    38    1
    19     8     7    1
    20     8     9    1
    21     8    11    1
    22     2     3    1
    23     2     1    1
    24     2     5    1
    25    45    44    1
    26    45    48    1
    27     9    10    2
    28     6     5    1
    29     3     4    2
    30    34    35    1
    31    35    36    2
    32    11    12    1
    33    38    39    1
    34    18    20   ar
    35    18    19   ar
    36    48    49    1
    37    20    22   ar
    38    19    21   ar
    39    42    41    1
    40    39    40    1
    41    49    50   ar
    42    49    51   ar
    43   114   113    2
    44    41    40    2
    45    41    43    1
    46    22    23   ar
    47    21    23   ar
    48    50    52   ar
    49    51    53   ar
    50   111   112    1
    51   120   119    2
    52   113   112    1
    53   123   121    1
    54   117   118    1
    55    52    54   ar
    56   121   118    1
    57   121   122    1
    58   112   115    1
    59    53    54   ar
    60   119   118    1
    61   115   116    1
    62    62    60    1
    63    55    56    1
    64    60    61    1
    65    60    59    1
    66   104   103    1
    67    56    59    1
    68    56    57    1
    69    80    79    1
    70    80    81    1
    71   105   103    1
    72    79    76    1
    73   103   102    1
    74    58    57    2
    75   110   107    1
    76    81    75    1
    77    96    94    1
    78   102    99    1
    79   107   108    1
    80   107   106    1
    81    76    75    1
    82    76    77    1
    83    69    67    1
    84    99   100    1
    85    99    98    1
    86    75    72   am
    87    97    95    1
    88    95    94    1
    89   108   109    2
    90    67    68    1
    91    67    64    1
    92    94    91    1
    93    77    78    2
    94   100   101    2
    95    72    71    1
    96    72    73    2
    97    74    71    1
    98    89    87   ar
    99    70    71    1
   100    70    65   am
   101    64    65    1
   102    64    63    1
   103    91    92    1
   104    91    90    1
   105    92    93    2
   106    65    66    2
   107    87    86    1
   108    87    88   ar
   109    86    83    1
   110    85    84    2
   111    82    83    1
   112    83    84    1
