@<TRIPOS>MOLECULE
tmp/5w1mL00.pdb
 90 82 0 0 0
SMALL
GASTEIGER

@<TRIPOS>ATOM
      1  N         88.8510  156.8220  313.4260 N.3    30  SER30      -0.1217
      2  CA        89.3070  158.1620  313.8140 C.3    30  SER30       0.1889
      3  C         88.7800  159.1710  312.7910 C.2    30  SER30       0.2288
      4  O         89.4730  159.5500  311.8190 O.2    30  SER30      -0.2866
      5  CB        90.8220  158.2370  313.9680 C.3    30  SER30       0.2089
      6  OG        91.1500  159.2070  314.9490 O.3    30  SER30      -0.2183
      7  N         87.1520  162.4730  313.6570 N.3    32  LEU32      -0.1231
      8  CA        87.6480  163.7810  314.0190 C.3    32  LEU32       0.1693
      9  C         89.1520  163.6770  314.0890 C.2    32  LEU32       0.2592
     10  O         89.7400  162.8270  314.7730 O.2    32  LEU32      -0.2718
     11  CB        87.0510  164.3150  315.3180 C.3    32  LEU32       0.0284
     12  CG        85.6240  164.7880  315.2710 C.3    32  LEU32       0.0019
     13  CD1       85.2230  165.3290  316.5800 C.3    32  LEU32       0.0001
     14  CD2       85.4560  165.8630  314.2860 C.3    32  LEU32       0.0001
     15  N         89.7510  164.5210  313.2720 N.am   33  MET33      -0.1965
     16  CA        91.1720  164.6790  312.9720 C.3    33  MET33       0.1736
     17  C         91.8460  165.8350  313.8040 C.2    33  MET33       0.2616
     18  O         91.2220  166.8810  314.0530 O.2    33  MET33      -0.2715
     19  CB        91.2700  164.9590  311.4320 C.3    33  MET33       0.0427
     20  CG        92.5610  164.5170  310.7410 C.3    33  MET33       0.0599
     21  SD        93.2790  162.9130  311.2460 S.3    33  MET33      -0.1393
     22  CE        92.1500  161.6780  310.4730 C.3    33  MET33       0.0692
     23  N         93.1210  165.6640  314.2020 N.am   34  LYS34      -0.1977
     24  CA        93.7630  166.7730  314.8640 C.3    34  LYS34       0.1596
     25  C         94.4130  167.7060  313.8490 C.2    34  LYS34       0.2287
     26  O         94.7970  167.2990  312.7430 O.2    34  LYS34      -0.2864
     27  CB        94.7130  166.3390  315.9530 C.3    34  LYS34       0.0298
     28  CG        94.5510  167.2640  317.1190 C.3    34  LYS34       0.0038
     29  CD        95.8180  167.4740  317.8740 C.3    34  LYS34       0.0206
     30  CE        95.6470  168.5780  318.8910 C.3    34  LYS34       0.1093
     31  NZ        95.3490  169.9010  318.2600 N.3    34  LYS34      -0.1314
     32  N         88.3940  166.5190  320.9790 N.3    77  LEU77      -0.1245
     33  CA        88.2440  167.0970  319.6320 C.3    77  LEU77       0.1561
     34  C         86.7690  167.3670  319.3400 C.2    77  LEU77       0.2260
     35  O         85.8870  166.7880  319.9870 O.2    77  LEU77      -0.2867
     36  CB        88.7850  166.0900  318.6040 C.3    77  LEU77       0.0270
     37  CG        90.3090  165.9190  318.5180 C.3    77  LEU77       0.0019
     38  CD1       90.9640  167.1150  317.8250 C.3    77  LEU77       0.0001
     39  CD2       90.9700  165.5000  319.9020 C.3    77  LEU77       0.0001
     40  N         89.8630  160.3160  322.7550 N.3    92  ASN92      -0.1240
     41  CA        90.8900  159.2770  322.4280 C.3    92  ASN92       0.1653
     42  C         91.1490  158.3330  323.5680 C.2    92  ASN92       0.2266
     43  O         92.0750  158.5200  324.3810 O.2    92  ASN92      -0.2867
     44  CB        92.2450  159.7620  321.8900 C.3    92  ASN92       0.1155
     45  CG        93.0240  158.7360  321.0490 C.2    92  ASN92       0.2627
     46  OD1       92.8840  157.4830  321.2310 O.2    92  ASN92      -0.2716
     47  ND2       93.8100  159.3720  320.1050 N.am   92  ASN92      -0.0877
     48  N         92.1800  154.8970  323.4640 N.3    94  SER94      -0.1217
     49  CA        92.7110  153.6660  322.9250 C.3    94  SER94       0.1889
     50  C         93.4660  152.8250  324.0520 C.2    94  SER94       0.2288
     51  O         93.5950  153.2870  325.1960 O.2    94  SER94      -0.2866
     52  CB        93.5250  153.9500  321.6610 C.3    94  SER94       0.2089
     53  OG        92.8410  154.8260  320.7740 O.3    94  SER94      -0.2183
     54  N         96.4550  151.8170  323.3990 N.3    96  ALA96      -0.1245
     55  CA        97.7570  152.3130  322.8720 C.3    96  ALA96       0.1562
     56  C         98.4970  152.9340  324.0160 C.2    96  ALA96       0.2260
     57  O         97.9460  153.8190  324.6820 O.2    96  ALA96      -0.2867
     58  CB        97.5330  153.3900  321.8250 C.3    96  ALA96       0.0290
     59  N        100.4000  155.3060  324.8200 N.3    98  ASP98      -0.1225
     60  CA       100.2360  156.7680  324.9630 C.3    98  ASP98       0.1805
     61  C         99.0040  157.1960  325.7510 C.2    98  ASP98       0.2597
     62  O         99.1460  157.8880  326.7590 O.2    98  ASP98      -0.2718
     63  CB       100.2200  157.4300  323.5810 C.3    98  ASP98       0.1424
     64  CG       101.5030  157.1520  322.8550 C.2    98  ASP98       0.3668
     65  OD1      102.5610  157.1880  323.5070 O.co2  98  ASP98      -0.2456
     66  OD2      101.4430  156.8400  321.6440 O.co2  98  ASP98      -0.2456
     67  N         97.7970  156.8090  325.2770 N.am   99  ALA99      -0.1979
     68  CA        96.5090  157.1260  325.9150 C.3    99  ALA99       0.1597
     69  C         95.8470  155.8990  326.5820 C.2    99  ALA99       0.2287
     70  O         94.6220  155.8910  326.7150 O.2    99  ALA99      -0.2864
     71  CB        95.5520  157.7340  324.8900 C.3    99  ALA99       0.0319
     72  N         92.9130  151.4050  318.3050 N.3   126  VAL126     -0.1245
     73  CA        92.1800  152.6850  318.2860 C.3   126  VAL126      0.1561
     74  C         90.7440  152.5230  318.7470 C.2   126  VAL126      0.2260
     75  O         90.0430  151.5800  318.3490 O.2   126  VAL126     -0.2867
     76  CB        92.2510  153.5230  316.9470 C.3   126  VAL126      0.0252
     77  CG1       93.5740  154.2420  316.7760 C.3   126  VAL126      0.0019
     78  CG2       91.8950  152.7180  315.7010 C.3   126  VAL126      0.0019
     79  N         87.3610  155.0980  320.3190 N.3   128  TYR128     -0.1241
     80  CA        86.7820  156.3890  320.5060 C.3   128  TYR128      0.1605
     81  C         85.2930  156.2970  320.9500 C.2   128  TYR128      0.2264
     82  O         84.6370  155.2320  320.8990 O.2   128  TYR128     -0.2867
     83  CB        86.9840  157.1910  319.1690 C.3   128  TYR128      0.0534
     84  CG        88.4250  157.2950  318.6420 C.ar  128  TYR128     -0.0201
     85  CD1       88.8180  156.6310  317.4820 C.ar  128  TYR128     -0.0009
     86  CD2       89.3920  158.0210  319.3300 C.ar  128  TYR128     -0.0009
     87  CE1       90.1340  156.6890  317.0280 C.ar  128  TYR128      0.0417
     88  CE2       90.7030  158.0960  318.8770 C.ar  128  TYR128      0.0417
     89  CZ        91.0650  157.4530  317.7140 C.ar  128  TYR128      0.1957
     90  OH        92.3690  157.5730  317.3200 O.3   128  TYR128     -0.2866
@<TRIPOS>BOND
     1    22    21    1
     2    20    21    1
     3    20    19    1
     4    19    16    1
     5     4     3    2
     6    26    25    2
     7     3     2    1
     8    16    15    1
     9    16    17    1
    10    15     9   am
    11     1     2    1
    12     7     8    1
    13    17    18    2
    14    17    23   am
    15     2     5    1
    16    25    24    1
    17     5     6    1
    18     8     9    1
    19     8    11    1
    20     9    10    2
    21    23    24    1
    22    14    12    1
    23    24    27    1
    24    12    11    1
    25    12    13    1
    26    78    76    1
    27    27    28    1
    28    77    76    1
    29    76    73    1
    30    87    85   ar
    31    87    89   ar
    32    28    29    1
    33    90    89    1
    34    85    84   ar
    35    89    88   ar
    36    38    37    1
    37    29    30    1
    38    31    30    1
    39    73    72    1
    40    73    74    1
    41    75    74    2
    42    37    36    1
    43    37    39    1
    44    36    33    1
    45    84    83    1
    46    84    86   ar
    47    88    86   ar
    48    83    80    1
    49    34    33    1
    50    34    35    2
    51    33    32    1
    52    47    45   am
    53    79    80    1
    54    80    81    1
    55    53    52    1
    56    82    81    2
    57    45    46    2
    58    45    44    1
    59    66    64   ar
    60    52    49    1
    61    58    55    1
    62    44    41    1
    63    41    40    1
    64    41    42    1
    65    64    65   ar
    66    64    63    1
    67    55    54    1
    68    55    56    1
    69    49    48    1
    70    49    50    1
    71    42    43    2
    72    63    60    1
    73    56    57    2
    74    50    51    2
    75    59    60    1
    76    71    68    1
    77    60    61    1
    78    67    61   am
    79    67    68    1
    80    61    62    2
    81    68    69    1
    82    69    70    2
