@<TRIPOS>MOLECULE
tmp/5w1oC01.pdb
 92 87 0 0 0
SMALL
GASTEIGER

@<TRIPOS>ATOM
      1  N         17.4570   17.0120    2.2720 N.3    32  PRO32      -0.2116
      2  CA        17.7750   18.3920    1.9260 C.3    32  PRO32       0.1372
      3  C         16.5550   19.0970    1.3660 C.2    32  PRO32       0.2244
      4  O         15.7660   18.4840    0.6550 O.2    32  PRO32      -0.2868
      5  CB        18.8800   18.2520    0.8700 C.3    32  PRO32       0.0268
      6  CG        18.7080   16.9370    0.3210 C.3    32  PRO32       0.0207
      7  CD        18.2350   16.0690    1.4600 C.3    32  PRO32       0.0892
      8  N         20.9630   23.0950   -3.4300 N.3    41  ILE41      -0.1245
      9  CA        20.5510   22.7690   -2.0700 C.3    41  ILE41       0.1561
     10  C         20.3690   24.0470   -1.2640 C.2    41  ILE41       0.2260
     11  O         21.3360   24.7040   -0.8900 O.2    41  ILE41      -0.2867
     12  CB        21.5690   21.8720   -1.3700 C.3    41  ILE41       0.0252
     13  CG1       22.6770   21.4620   -2.3420 C.3    41  ILE41       0.0019
     14  CG2       20.8890   20.6610   -0.8020 C.3    41  ILE41       0.0019
     15  CD1       23.8850   22.4040   -2.3420 C.3    41  ILE41       0.0001
     16  N         20.5090   22.2790    3.8220 N.3    44  PRO44      -0.2102
     17  CA        21.0980   20.9420    3.8130 C.3    44  PRO44       0.1504
     18  C         20.4240   19.9620    4.7810 C.2    44  PRO44       0.2576
     19  O         19.6600   20.3770    5.6600 O.2    44  PRO44      -0.2718
     20  CB        22.5300   21.2080    4.2580 C.3    44  PRO44       0.0282
     21  CG        22.3730   22.3130    5.2300 C.3    44  PRO44       0.0208
     22  CD        21.3070   23.2150    4.6290 C.3    44  PRO44       0.0893
     23  N         20.7250   18.6740    4.6100 N.am   45  LYS45      -0.1966
     24  CA        20.3490   17.6740    5.5970 C.3    45  LYS45       0.1728
     25  C         21.3760   17.6470    6.7060 C.2    45  LYS45       0.2616
     26  O         22.5520   17.3560    6.4880 O.2    45  LYS45      -0.2715
     27  CB        20.2180   16.2830    4.9860 C.3    45  LYS45       0.0311
     28  CG        19.4660   15.3130    5.8870 C.3    45  LYS45       0.0038
     29  CD        20.1140   13.9410    5.9580 C.3    45  LYS45       0.0206
     30  CE        19.5830   13.0030    4.9130 C.3    45  LYS45       0.1093
     31  NZ        19.9560   11.6230    5.2420 N.3    45  LYS45      -0.1314
     32  N         20.9280   17.9710    7.9060 N.am   46  VAL46      -0.1977
     33  CA        21.8040   17.9360    9.0530 C.3    46  VAL46       0.1596
     34  C         21.0880   17.1610   10.1540 C.2    46  VAL46       0.2287
     35  O         20.0430   17.5850   10.6440 O.2    46  VAL46      -0.2864
     36  CB        22.1760   19.3540    9.5140 C.3    46  VAL46       0.0276
     37  CG1       23.1970   19.3100   10.6020 C.3    46  VAL46       0.0022
     38  CG2       22.7380   20.1170    8.3770 C.3    46  VAL46       0.0022
     39  N         24.2850   11.4190   11.3020 N.3    50  GLN50      -0.1245
     40  CA        25.2930   11.3990   10.2380 C.3    50  GLN50       0.1566
     41  C         26.7000   11.2710   10.8080 C.2    50  GLN50       0.2260
     42  O         26.9370   11.6280   11.9660 O.2    50  GLN50      -0.2867
     43  CB        25.2310   12.6520    9.3900 C.3    50  GLN50       0.0367
     44  CG        23.8800   13.0550    8.8960 C.3    50  GLN50       0.0905
     45  CD        23.9110   14.4580    8.3170 C.2    50  GLN50       0.2608
     46  OE1       24.1110   15.4310    9.0430 O.2    50  GLN50      -0.2717
     47  NE2       23.7300   14.5630    7.0100 N.am   50  GLN50      -0.0878
     48  N         30.3500   12.7450   10.9800 N.3    52  ARG52      -0.1245
     49  CA        31.0590   13.9940   10.7380 C.3    52  ARG52       0.1563
     50  C         32.5050   13.6330   10.4930 C.2    52  ARG52       0.2260
     51  O         33.2450   13.3280   11.4410 O.2    52  ARG52      -0.2867
     52  CB        30.9370   14.9420   11.9190 C.3    52  ARG52       0.0307
     53  CG        29.5900   15.6020   12.0600 C.3    52  ARG52       0.0489
     54  CD        29.4110   16.7310   11.0690 C.3    52  ARG52       0.2205
     55  NE        28.0020   16.8430   10.7280 N.pl3  52  ARG52      -0.0865
     56  CZ        27.4840   16.5960    9.5290 C.cat  52  ARG52       0.5346
     57  NH1       28.2580   16.2680    8.5060 N.pl3  52  ARG52       0.1354
     58  NH2       26.1790   16.7010    9.3530 N.pl3  52  ARG52       0.1354
     59  N         31.7480   12.6440    4.9550 N.3   178  ASP178     -0.1225
     60  CA        30.9960   13.5330    5.8140 C.3   178  ASP178      0.1805
     61  C         29.5390   13.6070    5.3710 C.2   178  ASP178      0.2598
     62  O         29.2570   13.9680    4.2370 O.2   178  ASP178     -0.2718
     63  CB        31.6160   14.9260    5.8110 C.3   178  ASP178      0.1424
     64  CG        30.9580   15.8370    6.8040 C.2   178  ASP178      0.3668
     65  OD1       31.2040   15.6340    8.0070 O.co2 178  ASP178     -0.2456
     66  OD2       30.1620   16.7100    6.3950 O.co2 178  ASP178     -0.2456
     67  N         28.6160   13.2620    6.2560 N.am  179  GLY179     -0.1942
     68  CA        27.2040   13.3880    5.9360 C.3   179  GLY179      0.2014
     69  C         26.5540   12.0510    5.6060 C.2   179  GLY179      0.2639
     70  O         25.3340   11.9590    5.4090 O.2   179  GLY179     -0.2714
     71  N         27.3890   11.0170    5.5260 N.am  180  ASP180     -0.1957
     72  CA        26.9370    9.6410    5.4440 C.3   180  ASP180      0.1840
     73  C         26.2380    9.2530    6.7460 C.2   180  ASP180      0.2621
     74  O         26.4830    9.8660    7.7870 O.2   180  ASP180     -0.2715
     75  CB        28.1140    8.7050    5.1940 C.3   180  ASP180      0.1450
     76  CG        28.3650    8.4610    3.7470 C.2   180  ASP180      0.3671
     77  OD1       27.3870    8.4490    2.9640 O.co2 180  ASP180     -0.2456
     78  OD2       29.5550    8.2660    3.4030 O.co2 180  ASP180     -0.2456
     79  N         25.4000    8.2180    6.6980 N.am  181  MET181     -0.1977
     80  CA        24.5810    7.8760    7.8420 C.3   181  MET181      0.1605
     81  C         25.1170    6.6970    8.6350 C.2   181  MET181      0.2287
     82  O         25.6560    5.7430    8.0750 O.2   181  MET181     -0.2864
     83  CB        23.1620    7.5740    7.3910 C.3   181  MET181      0.0413
     84  CG        22.6070    8.5760    6.4030 C.3   181  MET181      0.0598
     85  SD        22.2330   10.1930    7.0930 S.3   181  MET181     -0.1393
     86  CE        20.9610    9.8010    8.2990 C.3   181  MET181      0.0692
     87  N         19.3010    6.1770    1.4890 N.3   208  SER208     -0.1217
     88  CA        20.7010    6.3670    1.8270 C.3   208  SER208      0.1889
     89  C         21.4030    5.0470    2.1470 C.2   208  SER208      0.2288
     90  O         20.7540    4.0040    2.3220 O.2   208  SER208     -0.2866
     91  CB        20.8370    7.3250    3.0070 C.3   208  SER208      0.2089
     92  OG        20.8340    8.6620    2.5480 O.3   208  SER208     -0.2183
@<TRIPOS>BOND
     1     8     9    1
     2    15    13    1
     3    13    12    1
     4     9    12    1
     5     9    10    1
     6    12    14    1
     7    10    11    2
     8     6     5    1
     9     6     7    1
    10     4     3    2
    11     5     2    1
    12     3     2    1
    13     7     1    1
    14    87    88    1
    15    88    89    1
    16    88    91    1
    17     2     1    1
    18    89    90    2
    19    92    91    1
    20    77    76   ar
    21    78    76   ar
    22    76    75    1
    23    17    16    1
    24    17    20    1
    25    17    18    1
    26    16    22    1
    27    62    61    2
    28    20    21    1
    29    23    18   am
    30    23    24    1
    31    22    21    1
    32    18    19    2
    33    30    31    1
    34    30    29    1
    35    59    60    1
    36    27    24    1
    37    27    28    1
    38    75    72    1
    39    61    60    1
    40    61    67   am
    41    70    69    2
    42    72    71    1
    43    72    73    1
    44    71    69   am
    45    24    25    1
    46    69    68    1
    47    63    60    1
    48    63    64    1
    49    28    29    1
    50    68    67    1
    51    66    64   ar
    52    84    85    1
    53    84    83    1
    54    26    25    2
    55    79    73   am
    56    79    80    1
    57    25    32   am
    58    73    74    2
    59    64    65   ar
    60    47    45   am
    61    85    86    1
    62    83    80    1
    63    80    81    1
    64    32    33    1
    65    82    81    2
    66    45    44    1
    67    45    46    2
    68    38    36    1
    69    57    56    1
    70    44    43    1
    71    33    36    1
    72    33    34    1
    73    58    56    1
    74    43    40    1
    75    36    37    1
    76    56    55    2
    77    34    35    2
    78    40    41    1
    79    40    39    1
    80    50    49    1
    81    50    51    2
    82    55    54    1
    83    49    48    1
    84    49    52    1
    85    41    42    2
    86    54    53    1
    87    52    53    1
