@<TRIPOS>MOLECULE
tmp/5w1uB01.pdb
 83 81 0 0 0
SMALL
GASTEIGER

@<TRIPOS>ATOM
      1  N         62.9190   65.8840   25.8760 N.3   106  GLY106     -0.1210
      2  CA        61.8920   64.9760   25.4300 C.3   106  GLY106      0.1956
      3  C         61.9880   64.7970   23.9480 C.2   106  GLY106      0.2612
      4  O         61.0280   64.4720   23.2970 O.2   106  GLY106     -0.2717
      5  N         63.1620   64.9970   23.3940 N.am  107  GLY107     -0.1956
      6  CA        63.3390   64.7750   21.9690 C.3   107  GLY107      0.1869
      7  C         62.6440   65.7340   21.0050 C.2   107  GLY107      0.2309
      8  O         62.4870   65.3980   19.8140 O.2   107  GLY107     -0.2863
      9  N         68.8860   66.9900   27.8030 N.3   188  SER188     -0.1217
     10  CA        68.5580   66.2320   26.6030 C.3   188  SER188      0.1889
     11  C         68.2060   67.2110   25.4810 C.2   188  SER188      0.2288
     12  O         69.0440   68.0360   25.1400 O.2   188  SER188     -0.2866
     13  CB        67.4270   65.2370   26.8480 C.3   188  SER188      0.2089
     14  OG        67.2320   64.3860   25.7130 O.3   188  SER188     -0.2183
     15  N         70.8960   64.2380   16.4390 N.3   221  TRP221     -0.1241
     16  CA        69.4250   64.2320   16.5940 C.3   221  TRP221      0.1605
     17  C         68.8770   65.6190   16.8840 C.2   221  TRP221      0.2264
     18  O         67.6510   65.8080   16.9800 O.2   221  TRP221     -0.2867
     19  CB        68.9710   63.2930   17.7260 C.3   221  TRP221      0.0550
     20  CG        69.7700   63.3910   18.9490 C.ar  221  TRP221      0.0003
     21  CD1       70.8600   62.6490   19.2740 C.ar  221  TRP221      0.0946
     22  CD2       69.5550   64.2900   20.0250 C.ar  221  TRP221      0.0152
     23  NE1       71.3360   63.0280   20.4930 N.ar  221  TRP221     -0.2442
     24  CE2       70.5670   64.0370   20.9810 C.ar  221  TRP221      0.0810
     25  CE3       68.6260   65.2880   20.2760 C.ar  221  TRP221      0.0012
     26  CZ2       70.6780   64.7510   22.1500 C.ar  221  TRP221      0.0191
     27  CZ3       68.7290   66.0040   21.4400 C.ar  221  TRP221      0.0001
     28  CH2       69.7500   65.7330   22.3760 C.ar  221  TRP221      0.0015
     29  N         66.0380   61.0350   13.3800 N.3   278  PHE278     -0.1241
     30  CA        65.4960   60.7450   14.7090 C.3   278  PHE278      0.1605
     31  C         63.9730   61.0230   14.7180 C.2   278  PHE278      0.2264
     32  O         63.1820   60.0780   14.7720 O.2   278  PHE278     -0.2867
     33  CB        66.2850   61.5720   15.7780 C.3   278  PHE278      0.0534
     34  CG        65.5850   61.7340   17.1340 C.ar  278  PHE278     -0.0203
     35  CD1       65.2690   60.6230   17.9230 C.ar  278  PHE278     -0.0042
     36  CD2       65.2910   63.0130   17.6410 C.ar  278  PHE278     -0.0042
     37  CE1       64.6330   60.7740   19.1690 C.ar  278  PHE278     -0.0003
     38  CE2       64.6610   63.1510   18.8870 C.ar  278  PHE278     -0.0003
     39  CZ        64.3280   62.0220   19.6420 C.ar  278  PHE278     -0.0000
     40  N         69.5850   54.1250   27.8250 N.3   324  LEU324     -0.1231
     41  CA        68.3720   54.6060   27.1550 C.3   324  LEU324      0.1693
     42  C         68.0280   53.7900   25.9440 C.2   324  LEU324      0.2591
     43  O         66.8710   53.4740   25.7160 O.2   324  LEU324     -0.2718
     44  CB        68.5310   56.0410   26.6970 C.3   324  LEU324      0.0284
     45  CG        67.3250   56.5550   25.9030 C.3   324  LEU324      0.0019
     46  CD1       66.0540   56.3890   26.6940 C.3   324  LEU324      0.0001
     47  CD2       67.5450   58.0190   25.5410 C.3   324  LEU324      0.0001
     48  N         69.0450   53.4760   25.1430 N.am  325  LEU325     -0.1980
     49  CA        68.8230   52.7840   23.8730 C.3   325  LEU325      0.1596
     50  C         68.4230   51.3250   24.0150 C.2   325  LEU325      0.2287
     51  O         68.2470   50.6710   23.0180 O.2   325  LEU325     -0.2864
     52  CB        70.0740   52.8580   23.0090 C.3   325  LEU325      0.0297
     53  CG        70.1690   54.1130   22.1610 C.3   325  LEU325      0.0022
     54  CD1       69.1620   54.0370   21.0850 C.3   325  LEU325      0.0001
     55  CD2       69.9970   55.3700   22.9800 C.3   325  LEU325      0.0001
     56  N         75.4470   58.8190   20.5790 N.3   390  VAL390     -0.1231
     57  CA        74.2600   59.6420   20.7320 C.3   390  VAL390      0.1692
     58  C         74.4380   60.8080   21.7100 C.2   390  VAL390      0.2592
     59  O         73.7240   61.8080   21.5780 O.2   390  VAL390     -0.2718
     60  CB        73.0690   58.7570   21.1830 C.3   390  VAL390      0.0266
     61  CG1       71.8130   59.5970   21.4210 C.3   390  VAL390      0.0020
     62  CG2       72.8090   57.6210   20.1680 C.3   390  VAL390      0.0020
     63  N         75.3680   60.7170   22.6780 N.am  391  PHE391     -0.1976
     64  CA        75.4640   61.7510   23.6920 C.3   391  PHE391      0.1639
     65  C         76.8550   62.3580   23.8930 C.2   391  PHE391      0.2290
     66  O         77.0750   63.5170   23.5780 O.2   391  PHE391     -0.2864
     67  CB        74.9280   61.1870   25.0110 C.3   391  PHE391      0.0560
     68  CG        73.4490   60.8920   24.9770 C.ar  391  PHE391     -0.0200
     69  CD1       72.5260   61.9170   24.8860 C.ar  391  PHE391     -0.0042
     70  CD2       72.9940   59.5960   25.0030 C.ar  391  PHE391     -0.0042
     71  CE1       71.1610   61.6730   24.8420 C.ar  391  PHE391     -0.0003
     72  CE2       71.6380   59.3370   24.9600 C.ar  391  PHE391     -0.0003
     73  CZ        70.7110   60.3830   24.8680 C.ar  391  PHE391     -0.0000
     74  N         70.5870   58.0920   30.7720 N.3   439  HIS439     -0.1241
     75  CA        69.9390   59.3100   30.3600 C.3   439  HIS439      0.1621
     76  C         68.7900   59.5830   31.2920 C.2   439  HIS439      0.2264
     77  O         68.0060   58.7010   31.5410 O.2   439  HIS439     -0.2867
     78  CB        69.4380   59.1820   28.9360 C.3   439  HIS439      0.0745
     79  CG        69.0920   60.4810   28.3120 C.ar  439  HIS439      0.0817
     80  ND1       70.0190   61.5050   28.1700 N.ar  439  HIS439     -0.2268
     81  CD2       67.9410   60.9540   27.7900 C.ar  439  HIS439      0.1154
     82  CE1       69.4530   62.5270   27.5990 C.ar  439  HIS439      0.1986
     83  NE2       68.1820   62.2250   27.3420 N.ar  439  HIS439     -0.2212
@<TRIPOS>BOND
     1    29    30    1
     2    30    31    1
     3    30    33    1
     4    31    32    2
     5    33    34    1
     6    15    16    1
     7    16    17    1
     8    16    19    1
     9    17    18    2
    10    34    36   ar
    11    34    35   ar
    12    36    38   ar
    13    19    20    1
    14    35    37   ar
    15    38    39   ar
    16    20    21   ar
    17    20    22   ar
    18    37    39   ar
    19    21    23   ar
    20     8     7    2
    21    22    25   ar
    22    22    24   ar
    23    62    60    1
    24    25    27   ar
    25    23    24   ar
    26    56    57    1
    27    57    60    1
    28    57    58    1
    29    24    26   ar
    30     7     6    1
    31    54    53    1
    32    60    61    1
    33    27    28   ar
    34    59    58    2
    35    58    63   am
    36     6     5    1
    37    26    28   ar
    38    53    55    1
    39    53    52    1
    40    63    64    1
    41    52    49    1
    42    51    50    2
    43     4     3    2
    44     5     3   am
    45    66    65    2
    46    64    65    1
    47    64    67    1
    48    49    50    1
    49    49    48    1
    50     3     2    1
    51    71    73   ar
    52    71    69   ar
    53    73    72   ar
    54    69    68   ar
    55    72    70   ar
    56    68    70   ar
    57    68    67    1
    58    12    11    2
    59    48    42   am
    60     2     1    1
    61    11    10    1
    62    47    45    1
    63    14    13    1
    64    43    42    2
    65    45    46    1
    66    45    44    1
    67    42    41    1
    68    10    13    1
    69    10     9    1
    70    44    41    1
    71    41    40    1
    72    83    82   ar
    73    83    81   ar
    74    82    80   ar
    75    81    79   ar
    76    80    79   ar
    77    79    78    1
    78    78    75    1
    79    75    74    1
    80    75    76    1
    81    76    77    2
