@<TRIPOS>MOLECULE
tmp/5w1uB00.pdb
 162 158 0 0 0
SMALL
GASTEIGER

@<TRIPOS>ATOM
      1  N         63.5110   68.4300   28.3490 N.3   105  GLY105     -0.1210
      2  CA        63.8500   67.6610   27.1670 C.3   105  GLY105      0.1956
      3  C         62.6730   66.8400   26.7550 C.2   105  GLY105      0.2612
      4  O         61.5710   67.0570   27.2270 O.2   105  GLY105     -0.2717
      5  N         62.9190   65.8840   25.8760 N.am  106  GLY106     -0.1942
      6  CA        61.8920   64.9760   25.4300 C.3   106  GLY106      0.2014
      7  C         61.9880   64.7970   23.9480 C.2   106  GLY106      0.2639
      8  O         61.0280   64.4720   23.2970 O.2   106  GLY106     -0.2714
      9  N         63.1620   64.9970   23.3940 N.am  107  GLY107     -0.1954
     10  CA        63.3390   64.7750   21.9690 C.3   107  GLY107      0.1869
     11  C         62.6440   65.7340   21.0050 C.2   107  GLY107      0.2309
     12  O         62.4870   65.3980   19.8140 O.2   107  GLY107     -0.2863
     13  N         57.9690   65.3210   22.8950 N.3   110  GLU110     -0.1245
     14  CA        57.1570   65.2120   24.1020 C.3   110  GLU110      0.1567
     15  C         57.7580   66.1330   25.1540 C.2   110  GLU110      0.2260
     16  O         58.9010   66.5530   25.0140 O.2   110  GLU110     -0.2867
     17  CB        57.1270   63.7690   24.6130 C.3   110  GLU110      0.0388
     18  CG        58.4230   63.3690   25.3010 C.3   110  GLU110      0.1160
     19  CD        58.4590   61.9050   25.7170 C.2   110  GLU110      0.3649
     20  OE1       57.7180   61.1100   25.1040 O.co2 110  GLU110     -0.2457
     21  OE2       59.2190   61.5590   26.6570 O.co2 110  GLU110     -0.2457
     22  N         57.2120   65.4670   36.9450 N.3   117  LEU117     -0.1231
     23  CA        58.5280   65.1070   36.4370 C.3   117  LEU117      0.1693
     24  C         59.5660   66.0320   37.0580 C.2   117  LEU117      0.2592
     25  O         60.6200   65.5720   37.5130 O.2   117  LEU117     -0.2718
     26  CB        58.5730   65.1880   34.9070 C.3   117  LEU117      0.0284
     27  CG        57.6860   64.2160   34.1320 C.3   117  LEU117      0.0019
     28  CD1       57.8220   64.4180   32.6410 C.3   117  LEU117      0.0001
     29  CD2       58.0320   62.7820   34.4460 C.3   117  LEU117      0.0001
     30  N         59.2520   67.3290   37.1100 N.am  118  TYR118     -0.1976
     31  CA        60.2500   68.3530   37.4620 C.3   118  TYR118      0.1639
     32  C         59.7470   69.2090   38.6130 C.2   118  TYR118      0.2290
     33  O         59.4880   70.3990   38.4590 O.2   118  TYR118     -0.2864
     34  CB        60.6080   69.2390   36.2350 C.3   118  TYR118      0.0560
     35  CG        60.8890   68.4770   34.9500 C.ar  118  TYR118     -0.0198
     36  CD1       62.1250   67.9310   34.6990 C.ar  118  TYR118     -0.0009
     37  CD2       59.8950   68.2920   33.9940 C.ar  118  TYR118     -0.0009
     38  CE1       62.3840   67.1990   33.5140 C.ar  118  TYR118      0.0417
     39  CE2       60.1490   67.5710   32.8050 C.ar  118  TYR118      0.0417
     40  CZ        61.3970   67.0290   32.5840 C.ar  118  TYR118      0.1957
     41  OH        61.6330   66.3480   31.4170 O.3   118  TYR118     -0.2866
     42  N         68.2100   69.9580   29.5920 N.3   187  HIS187     -0.1226
     43  CA        68.5000   68.5120   29.6410 C.3   187  HIS187      0.1752
     44  C         68.0030   67.8060   28.3890 C.2   187  HIS187      0.2596
     45  O         66.8390   67.9800   27.9770 O.2   187  HIS187     -0.2718
     46  CB        67.8700   67.8170   30.8650 C.3   187  HIS187      0.0759
     47  CG        68.1760   66.3580   30.9150 C.ar  187  HIS187      0.0818
     48  ND1       67.3370   65.4100   30.3860 N.ar  187  HIS187     -0.2268
     49  CD2       69.2700   65.6950   31.3540 C.ar  187  HIS187      0.1154
     50  CE1       67.8950   64.2220   30.5140 C.ar  187  HIS187      0.1986
     51  NE2       69.0760   64.3710   31.0880 N.ar  187  HIS187     -0.2212
     52  N         68.8860   66.9900   27.8030 N.am  188  SER188     -0.1952
     53  CA        68.5580   66.2320   26.6030 C.3   188  SER188      0.1924
     54  C         68.2060   67.2110   25.4810 C.2   188  SER188      0.2314
     55  O         69.0440   68.0360   25.1400 O.2   188  SER188     -0.2863
     56  CB        67.4270   65.2370   26.8480 C.3   188  SER188      0.2116
     57  OG        67.2320   64.3860   25.7130 O.3   188  SER188     -0.2180
     58  N         66.0380   61.0350   13.3800 N.3   278  PHE278     -0.1241
     59  CA        65.4960   60.7450   14.7090 C.3   278  PHE278      0.1605
     60  C         63.9730   61.0230   14.7180 C.2   278  PHE278      0.2264
     61  O         63.1820   60.0780   14.7720 O.2   278  PHE278     -0.2867
     62  CB        66.2850   61.5720   15.7780 C.3   278  PHE278      0.0534
     63  CG        65.5850   61.7340   17.1340 C.ar  278  PHE278     -0.0203
     64  CD1       65.2690   60.6230   17.9230 C.ar  278  PHE278     -0.0042
     65  CD2       65.2910   63.0130   17.6410 C.ar  278  PHE278     -0.0042
     66  CE1       64.6330   60.7740   19.1690 C.ar  278  PHE278     -0.0003
     67  CE2       64.6610   63.1510   18.8870 C.ar  278  PHE278     -0.0003
     68  CZ        64.3280   62.0220   19.6420 C.ar  278  PHE278     -0.0000
     69  N         69.5850   54.1250   27.8250 N.3   324  LEU324     -0.1245
     70  CA        68.3720   54.6060   27.1550 C.3   324  LEU324      0.1561
     71  C         68.0280   53.7900   25.9440 C.2   324  LEU324      0.2260
     72  O         66.8710   53.4740   25.7160 O.2   324  LEU324     -0.2867
     73  CB        68.5310   56.0410   26.6970 C.3   324  LEU324      0.0270
     74  CG        67.3250   56.5550   25.9030 C.3   324  LEU324      0.0019
     75  CD1       66.0540   56.3890   26.6940 C.3   324  LEU324      0.0001
     76  CD2       67.5450   58.0190   25.5410 C.3   324  LEU324      0.0001
     77  N         65.1830   56.7390   38.7550 N.3   424  HIS424     -0.1226
     78  CA        63.8300   56.4880   38.3350 C.3   424  HIS424      0.1752
     79  C         63.6170   56.2570   36.8440 C.2   424  HIS424      0.2596
     80  O         62.8080   55.3840   36.4830 O.2   424  HIS424     -0.2718
     81  CB        62.9610   57.6220   38.8340 C.3   424  HIS424      0.0759
     82  CG        62.8680   57.6690   40.3170 C.ar  424  HIS424      0.0818
     83  ND1       62.8830   58.8450   41.0390 N.ar  424  HIS424     -0.2268
     84  CD2       62.7740   56.6750   41.2310 C.ar  424  HIS424      0.1154
     85  CE1       62.8050   58.5760   42.3270 C.ar  424  HIS424      0.1986
     86  NE2       62.7480   57.2610   42.4700 N.ar  424  HIS424     -0.2212
     87  N         64.2980   56.9920   35.9670 N.am  425  TYR425     -0.1976
     88  CA        64.0760   56.7690   34.5370 C.3   425  TYR425      0.1639
     89  C         64.5320   55.3830   34.1710 C.2   425  TYR425      0.2290
     90  O         63.8010   54.6440   33.5120 O.2   425  TYR425     -0.2864
     91  CB        64.7970   57.7710   33.6470 C.3   425  TYR425      0.0560
     92  CG        64.2460   57.7890   32.2380 C.ar  425  TYR425     -0.0198
     93  CD1       63.0510   58.4040   31.9720 C.ar  425  TYR425     -0.0009
     94  CD2       64.9060   57.1770   31.1930 C.ar  425  TYR425     -0.0009
     95  CE1       62.5190   58.4280   30.7110 C.ar  425  TYR425      0.0417
     96  CE2       64.3830   57.1870   29.9230 C.ar  425  TYR425      0.0417
     97  CZ        63.1840   57.8240   29.6890 C.ar  425  TYR425      0.1957
     98  OH        62.6310   57.8520   28.4280 O.3   425  TYR425     -0.2866
     99  N         62.0190   52.6100   35.7390 N.3   428  MET428     -0.1230
    100  CA        60.6180   52.6670   35.3540 C.3   428  MET428      0.1702
    101  C         60.3240   52.8750   33.8560 C.2   428  MET428      0.2592
    102  O         59.1660   52.8110   33.4450 O.2   428  MET428     -0.2718
    103  CB        59.9500   53.7710   36.1840 C.3   428  MET428      0.0401
    104  CG        60.2140   53.6050   37.6650 C.3   428  MET428      0.0596
    105  SD        59.4400   54.8270   38.7150 S.3   428  MET428     -0.1393
    106  CE        57.7250   54.8260   38.1440 C.3   428  MET428      0.0692
    107  N         61.3530   53.1080   33.0430 N.am  429  MET429     -0.1979
    108  CA        61.1530   53.4580   31.6320 C.3   429  MET429      0.1605
    109  C         62.1330   52.7600   30.7260 C.2   429  MET429      0.2287
    110  O         61.9730   52.7700   29.5270 O.2   429  MET429     -0.2864
    111  CB        61.2760   54.9650   31.4400 C.3   429  MET429      0.0413
    112  CG        60.0580   55.7810   31.8830 C.3   429  MET429      0.0598
    113  SD        58.6950   55.6310   30.7300 S.3   429  MET429     -0.1393
    114  CE        59.4400   56.2980   29.2390 C.3   429  MET429      0.0692
    115  N         70.5870   58.0920   30.7720 N.3   439  HIS439     -0.1226
    116  CA        69.9390   59.3100   30.3600 C.3   439  HIS439      0.1752
    117  C         68.7900   59.5830   31.2920 C.2   439  HIS439      0.2595
    118  O         68.0060   58.7010   31.5410 O.2   439  HIS439     -0.2718
    119  CB        69.4380   59.1820   28.9360 C.3   439  HIS439      0.0759
    120  CG        69.0920   60.4810   28.3120 C.ar  439  HIS439      0.0818
    121  ND1       70.0190   61.5050   28.1700 N.ar  439  HIS439     -0.2268
    122  CD2       67.9410   60.9540   27.7900 C.ar  439  HIS439      0.1154
    123  CE1       69.4530   62.5270   27.5990 C.ar  439  HIS439      0.1986
    124  NE2       68.1820   62.2250   27.3420 N.ar  439  HIS439     -0.2212
    125  N         68.7270   60.7950   31.8220 N.am  440  ALA440     -0.1980
    126  CA        67.7090   61.2200   32.8000 C.3   440  ALA440      0.1597
    127  C         67.7540   60.5610   34.1670 C.2   440  ALA440      0.2287
    128  O         66.8560   60.7620   34.9500 O.2   440  ALA440     -0.2864
    129  CB        66.3300   61.0280   32.2280 C.3   440  ALA440      0.0319
    130  N         68.1520   63.2860   36.9660 N.3   443  LEU443     -0.1231
    131  CA        67.1260   64.2810   37.2460 C.3   443  LEU443      0.1693
    132  C         66.4810   63.9430   38.5860 C.2   443  LEU443      0.2592
    133  O         66.1620   64.8510   39.3660 O.2   443  LEU443     -0.2718
    134  CB        66.1080   64.3600   36.1160 C.3   443  LEU443      0.0284
    135  CG        66.7020   64.9400   34.8210 C.3   443  LEU443      0.0019
    136  CD1       65.8400   64.6200   33.6380 C.3   443  LEU443      0.0001
    137  CD2       66.8940   66.4040   34.9070 C.3   443  LEU443      0.0001
    138  N         66.3910   62.6410   38.8910 N.am  444  SER444     -0.1952
    139  CA        65.8680   62.1740   40.1750 C.3   444  SER444      0.1924
    140  C         66.5950   62.7860   41.3350 C.2   444  SER444      0.2314
    141  O         66.0780   62.7770   42.4330 O.2   444  SER444     -0.2863
    142  CB        65.9690   60.6600   40.3290 C.3   444  SER444      0.2116
    143  OG        65.0330   59.9850   39.5300 O.3   444  SER444     -0.2180
    144  N         59.6890   63.9780   41.6940 N.3   449  ASN449     -0.1225
    145  CA        58.7370   63.5820   40.6610 C.3   449  ASN449      0.1785
    146  C         57.5080   62.9430   41.2840 C.2   449  ASN449      0.2597
    147  O         57.2940   63.0360   42.4910 O.2   449  ASN449     -0.2718
    148  CB        59.4010   62.6370   39.6620 C.3   449  ASN449      0.1169
    149  CG        60.3990   61.7070   40.3210 C.2   449  ASN449      0.2627
    150  OD1       60.0480   60.6250   40.7910 O.2   449  ASN449     -0.2716
    151  ND2       61.6520   62.1350   40.3740 N.am  449  ASN449     -0.0877
    152  N         56.6960   62.3180   40.4440 N.am  450  PHE450     -0.1976
    153  CA        55.4520   61.7180   40.8700 C.3   450  PHE450      0.1639
    154  C         55.6720   60.5480   41.8220 C.2   450  PHE450      0.2290
    155  O         54.7110   60.0150   42.3750 O.2   450  PHE450     -0.2864
    156  CB        54.6600   61.2440   39.6540 C.3   450  PHE450      0.0560
    157  CG        55.2990   60.0880   38.9430 C.ar  450  PHE450     -0.0200
    158  CD1       55.0690   58.7880   39.3670 C.ar  450  PHE450     -0.0042
    159  CD2       56.1330   60.2980   37.8530 C.ar  450  PHE450     -0.0042
    160  CE1       55.6620   57.7200   38.7200 C.ar  450  PHE450     -0.0003
    161  CE2       56.7230   59.2290   37.1980 C.ar  450  PHE450     -0.0003
    162  CZ        56.4910   57.9350   37.6410 C.ar  450  PHE450     -0.0000
@<TRIPOS>BOND
     1    58    59    1
     2    59    60    1
     3    59    62    1
     4    60    61    2
     5    62    63    1
     6    63    65   ar
     7    63    64   ar
     8    65    67   ar
     9    64    66   ar
    10    67    68   ar
    11    66    68   ar
    12    12    11    2
    13    11    10    1
    14    10     9    1
    15    13    14    1
    16     8     7    2
    17     9     7   am
    18     7     6    1
    19    14    17    1
    20    14    15    1
    21    17    18    1
    22    16    15    2
    23    20    19   ar
    24    55    54    2
    25    18    19    1
    26     6     5    1
    27    54    53    1
    28    76    74    1
    29    57    56    1
    30    72    71    2
    31    19    21   ar
    32     5     3   am
    33    74    75    1
    34    74    73    1
    35    71    70    1
    36    53    56    1
    37    53    52    1
    38    73    70    1
    39     3     2    1
    40     3     4    2
    41    70    69    1
    42     2     1    1
    43   124   123   ar
    44   124   122   ar
    45   123   121   ar
    46   122   120   ar
    47    52    44   am
    48    45    44    2
    49   121   120   ar
    50   120   119    1
    51    44    43    1
    52    98    97    1
    53   119   116    1
    54   114   113    1
    55   110   109    2
    56    42    43    1
    57    43    46    1
    58    97    96   ar
    59    97    95   ar
    60    96    94   ar
    61   116   115    1
    62   116   117    1
    63    48    50   ar
    64    48    47   ar
    65    50    51   ar
    66    95    93   ar
    67   109   108    1
    68   113   112    1
    69    46    47    1
    70    47    49   ar
    71    51    49   ar
    72    94    92   ar
    73   117   118    2
    74   117   125   am
    75    41    40    1
    76   111   108    1
    77   111   112    1
    78   108   107    1
    79   125   126    1
    80    93    92   ar
    81   129   126    1
    82    92    91    1
    83    40    39   ar
    84    40    38   ar
    85    28    27    1
    86   126   127    1
    87    39    37   ar
    88   107   101   am
    89   102   101    2
    90    90    89    2
    91    38    36   ar
    92   136   135    1
    93    91    88    1
    94   101   100    1
    95    37    35   ar
    96    27    29    1
    97    27    26    1
    98   127   128    2
    99    89    88    1
   100    88    87    1
   101    36    35   ar
   102   135   137    1
   103   135   134    1
   104    26    23    1
   105    35    34    1
   106   100    99    1
   107   100   103    1
   108    87    79   am
   109   134   131    1
   110   103   104    1
   111    34    31    1
   112    23    22    1
   113    23    24    1
   114    80    79    2
   115    79    78    1
   116   130   131    1
   117    24    30   am
   118    24    25    2
   119    30    31    1
   120   161   162   ar
   121   161   159   ar
   122   131   132    1
   123    31    32    1
   124   162   160   ar
   125   104   105    1
   126   159   157   ar
   127   106   105    1
   128    78    77    1
   129    78    81    1
   130    33    32    2
   131   132   138   am
   132   132   133    2
   133   160   158   ar
   134    81    82    1
   135   138   139    1
   136   157   158   ar
   137   157   156    1
   138   143   142    1
   139   156   153    1
   140   148   149    1
   141   148   145    1
   142   139   142    1
   143   139   140    1
   144    82    83   ar
   145    82    84   ar
   146   149   151   am
   147   149   150    2
   148   152   153    1
   149   152   146   am
   150   145   146    1
   151   145   144    1
   152   153   154    1
   153    83    85   ar
   154    84    86   ar
   155   146   147    2
   156   140   141    2
   157   154   155    2
   158    85    86   ar
