@<TRIPOS>MOLECULE
tmp/5w1yA00.pdb
 90 85 0 0 0
SMALL
GASTEIGER

@<TRIPOS>ATOM
      1  N         36.7490   11.7530    1.5090 N.3    69  GLU69      -0.1245
      2  CA        35.7700   11.3820    0.5360 C.3    69  GLU69       0.1567
      3  C         36.2270   11.6380   -0.8920 C.2    69  GLU69       0.2260
      4  O         35.9170   10.8570   -1.7820 O.2    69  GLU69      -0.2867
      5  CB        34.4140   12.0670    0.7930 C.3    69  GLU69       0.0388
      6  CG        33.7520   11.4630    2.0220 C.3    69  GLU69       0.1160
      7  CD        32.4570   12.1270    2.4250 C.2    69  GLU69       0.3649
      8  OE1       32.0710   13.1250    1.7530 O.co2  69  GLU69      -0.2457
      9  OE2       31.8670   11.6580    3.4360 O.co2  69  GLU69      -0.2457
     10  N         38.5820    8.6940   -1.6310 N.3    72  TYR72      -0.1227
     11  CA        37.8650    7.4390   -1.7860 C.3    72  TYR72       0.1736
     12  C         37.0980    7.3400   -3.1300 C.2    72  TYR72       0.2595
     13  O         36.9960    6.2400   -3.7180 O.2    72  TYR72      -0.2718
     14  CB        36.9410    7.2110   -0.6200 C.3    72  TYR72       0.0548
     15  CG        37.6540    7.0350    0.7150 C.ar   72  TYR72      -0.0200
     16  CD1       38.9210    6.4390    0.7970 C.ar   72  TYR72      -0.0009
     17  CD2       37.0850    7.4630    1.8790 C.ar   72  TYR72      -0.0009
     18  CE1       39.5310    6.2620    2.0260 C.ar   72  TYR72       0.0417
     19  CE2       37.6820    7.2880    3.0920 C.ar   72  TYR72       0.0417
     20  CZ        38.9250    6.6850    3.1580 C.ar   72  TYR72       0.1957
     21  OH        39.5370    6.4910    4.3740 O.3    72  TYR72      -0.2866
     22  N         36.6320    8.4790   -3.6070 N.am   73  ALA73      -0.1980
     23  CA        35.9100    8.5820   -4.8700 C.3    73  ALA73       0.1597
     24  C         36.8040    8.2010   -6.0660 C.2    73  ALA73       0.2287
     25  O         36.3080    7.7350   -7.0940 O.2    73  ALA73      -0.2864
     26  CB        35.3560    9.9890   -5.0290 C.3    73  ALA73       0.0319
     27  N         39.0260    5.6100   -5.8380 N.3    75  ASP75      -0.1225
     28  CA        39.2720    4.1950   -5.7490 C.3    75  ASP75       0.1790
     29  C         37.9140    3.4810   -5.7910 C.2    75  ASP75       0.2439
     30  O         37.2350    3.3870   -4.7840 O.2    75  ASP75      -0.2733
     31  CB        40.0310    3.8850   -4.4430 C.3    75  ASP75       0.1423
     32  CG        40.1450    2.3800   -4.1430 C.2    75  ASP75       0.3668
     33  OD1       39.6620    1.5290   -4.9070 O.co2  75  ASP75      -0.2456
     34  OD2       40.7460    2.0380   -3.0990 O.co2  75  ASP75      -0.2456
     35  N         37.5340    2.9300   -6.9440 N.am   76  PRO76      -0.2729
     36  CA        36.2150    2.3060   -7.0510 C.3    76  PRO76       0.1401
     37  C         35.8560    1.1430   -6.1590 C.2    76  PRO76       0.2269
     38  O         34.6990    0.7960   -6.1180 O.2    76  PRO76      -0.2865
     39  CB        36.1560    1.8510   -8.5280 C.3    76  PRO76       0.0296
     40  CG        37.0230    2.8160   -9.2200 C.3    76  PRO76       0.0237
     41  CD        38.1580    3.0930   -8.2710 C.3    76  PRO76       0.0939
     42  N         36.2070    1.1340   -2.9010 N.3    78  THR78      -0.1203
     43  CA        35.7550    1.6580   -1.5880 C.3    78  THR78       0.1994
     44  C         34.2240    1.6260   -1.4800 C.2    78  THR78       0.2618
     45  O         33.5300    1.9530   -2.4430 O.2    78  THR78      -0.2717
     46  CB        36.2940    3.0900   -1.3040 C.3    78  THR78       0.1784
     47  OG1       35.8590    4.0360   -2.2850 O.3    78  THR78      -0.2211
     48  CG2       37.8440    3.0740   -1.2410 C.3    78  THR78       0.0376
     49  N         33.7390    1.1920   -0.3260 N.am   79  GLY79      -0.1942
     50  CA        32.3320    1.2850    0.0540 C.3    79  GLY79       0.2014
     51  C         32.1090    2.5760    0.8340 C.2    79  GLY79       0.2639
     52  O         32.9820    3.4590    0.8950 O.2    79  GLY79      -0.2714
     53  N         30.9130    2.6970    1.3720 N.am   80  CYS80      -0.1967
     54  CA        30.4850    3.8780    2.1010 C.3    80  CYS80       0.1712
     55  C         30.4990    3.5500    3.5870 C.2    80  CYS80       0.2296
     56  O         29.5340    2.9790    4.1070 O.2    80  CYS80      -0.2864
     57  CB        29.0830    4.3080    1.6770 C.3    80  CYS80       0.0983
     58  SG        29.0040    4.4790   -0.1380 S.3    80  CYS80      -0.0798
     59  N         31.7030    5.9440    6.1510 N.3    82  MET82      -0.1245
     60  CA        31.8960    7.1270    6.9930 C.3    82  MET82       0.1570
     61  C         30.7070    7.2850    7.8900 C.2    82  MET82       0.2261
     62  O         29.5940    7.4310    7.4020 O.2    82  MET82      -0.2867
     63  CB        32.0520    8.3860    6.1430 C.3    82  MET82       0.0387
     64  CG        33.0080    8.2420    5.0130 C.3    82  MET82       0.0595
     65  SD        34.7060    8.0200    5.5710 S.3    82  MET82      -0.1393
     66  CE        35.2420    9.7060    5.8600 C.3    82  MET82       0.0692
     67  N         25.2240   12.5860    7.8990 N.3   153  SER153     -0.1217
     68  CA        25.8790   12.7080    6.5950 C.3   153  SER153      0.1889
     69  C         25.3040   13.8740    5.7680 C.2   153  SER153      0.2288
     70  O         26.0310   14.6300    5.1620 O.2   153  SER153     -0.2866
     71  CB        25.7870   11.4430    5.7910 C.3   153  SER153      0.2089
     72  OG        26.6190   11.5460    4.6450 O.3   153  SER153     -0.2183
     73  N         27.0150   17.3100    4.2410 N.3   157  HIS157     -0.1241
     74  CA        27.0690   17.4270    2.7900 C.3   157  HIS157      0.1621
     75  C         25.9400   18.3170    2.2850 C.2   157  HIS157      0.2264
     76  O         24.8890   17.8310    1.8640 O.2   157  HIS157     -0.2867
     77  CB        26.9430   16.0630    2.1640 C.3   157  HIS157      0.0745
     78  CG        28.1300   15.1960    2.4110 C.ar  157  HIS157      0.0817
     79  ND1       28.1390   14.2040    3.3780 N.ar  157  HIS157     -0.2268
     80  CD2       29.3530   15.1850    1.8420 C.ar  157  HIS157      0.1154
     81  CE1       29.3300   13.6250    3.3830 C.ar  157  HIS157      0.1986
     82  NE2       30.0780   14.1960    2.4540 N.ar  157  HIS157     -0.2212
     83  N         23.9310   17.5460   -0.7840 N.3   160  LEU160     -0.1245
     84  CA        22.9950   16.4130   -0.8020 C.3   160  LEU160      0.1561
     85  C         21.6530   16.7540   -0.2010 C.2   160  LEU160      0.2260
     86  O         20.8190   15.8570   -0.0720 O.2   160  LEU160     -0.2867
     87  CB        23.5660   15.1630   -0.0930 C.3   160  LEU160      0.0270
     88  CG        24.7160   14.5150   -0.8370 C.3   160  LEU160      0.0019
     89  CD1       25.3430   13.4040    0.0250 C.3   160  LEU160      0.0001
     90  CD2       24.3200   14.0710   -2.2400 C.3   160  LEU160      0.0001
@<TRIPOS>BOND
     1    40    39    1
     2    40    41    1
     3    39    36    1
     4    41    35    1
     5    25    24    2
     6    36    35    1
     7    36    37    1
     8    35    29   am
     9    37    38    2
    10    24    23    1
    11    27    28    1
    12    29    28    1
    13    29    30    2
    14    28    31    1
    15    26    23    1
    16    33    32   ar
    17    23    22    1
    18    31    32    1
    19    32    34   ar
    20    13    12    2
    21    22    12   am
    22    12    11    1
    23    42    43    1
    24    45    44    2
    25    47    46    1
    26    90    88    1
    27    11    10    1
    28    11    14    1
    29     4     3    2
    30    43    44    1
    31    43    46    1
    32    44    49   am
    33    46    48    1
    34     3     2    1
    35    88    87    1
    36    88    89    1
    37    84    83    1
    38    84    85    1
    39    84    87    1
    40    14    15    1
    41    49    50    1
    42    85    86    2
    43    58    57    1
    44    50    51    1
    45     2     5    1
    46     2     1    1
    47    15    16   ar
    48    15    17   ar
    49     5     6    1
    50    16    18   ar
    51    51    52    2
    52    51    53   am
    53    53    54    1
    54    57    54    1
    55     8     7   ar
    56    80    78   ar
    57    80    82   ar
    58    76    75    2
    59    17    19   ar
    60     6     7    1
    61    18    20   ar
    62    54    55    1
    63    77    78    1
    64    77    74    1
    65    75    74    1
    66    78    79   ar
    67     7     9   ar
    68    82    81   ar
    69    74    73    1
    70    19    20   ar
    71    20    21    1
    72    79    81   ar
    73    55    56    2
    74    72    71    1
    75    64    65    1
    76    64    63    1
    77    70    69    2
    78    65    66    1
    79    69    68    1
    80    71    68    1
    81    63    60    1
    82    59    60    1
    83    68    67    1
    84    60    61    1
    85    62    61    2
