@<TRIPOS>MOLECULE
tmp/5w21A04.pdb
 78 75 0 0 0
SMALL
GASTEIGER

@<TRIPOS>ATOM
      1  N        -54.9050   22.8090   68.2930 N.3   483  VAL483     -0.1245
      2  CA       -55.5170   22.4290   69.5600 C.3   483  VAL483      0.1561
      3  C        -56.9480   21.9720   69.3160 C.2   483  VAL483      0.2260
      4  O        -57.6220   22.4170   68.3800 O.2   483  VAL483     -0.2867
      5  CB       -55.4560   23.5970   70.5660 C.3   483  VAL483      0.0252
      6  CG1      -54.0160   24.0450   70.7650 C.3   483  VAL483      0.0019
      7  CG2      -56.3270   24.7560   70.1000 C.3   483  VAL483      0.0019
      8  N        -59.8250   21.7780   71.8410 N.3   485  THR485     -0.1218
      9  CA       -60.4720   21.9680   73.1340 C.3   485  THR485      0.1862
     10  C        -61.8540   21.3320   73.1930 C.2   485  THR485      0.2287
     11  O        -62.3200   20.9970   74.2860 O.2   485  THR485     -0.2866
     12  CB       -60.5820   23.4600   73.4580 C.3   485  THR485      0.1770
     13  OG1      -61.3620   24.1150   72.4480 O.3   485  THR485     -0.2211
     14  CG2      -59.2020   24.0960   73.5120 C.3   485  THR485      0.0375
     15  N        -52.1040   30.7710   75.6480 N.3   550  LEU550     -0.1245
     16  CA       -53.3270   30.0290   75.9240 C.3   550  LEU550      0.1561
     17  C        -53.3050   29.3130   77.2660 C.2   550  LEU550      0.2260
     18  O        -54.3630   29.1530   77.8830 O.2   550  LEU550     -0.2867
     19  CB       -53.5890   29.0040   74.8140 C.3   550  LEU550      0.0270
     20  CG       -53.8140   29.5670   73.4090 C.3   550  LEU550      0.0019
     21  CD1      -54.0400   28.4400   72.4140 C.3   550  LEU550      0.0001
     22  CD2      -54.9830   30.5440   73.3970 C.3   550  LEU550      0.0001
     23  N        -53.6910   32.8140   80.0490 N.3   553  PRO553     -0.2116
     24  CA       -54.1310   33.9760   79.2590 C.3   553  PRO553      0.1372
     25  C        -53.9550   35.2960   79.9870 C.2   553  PRO553      0.2244
     26  O        -53.6090   36.3030   79.3570 O.2   553  PRO553     -0.2868
     27  CB       -55.6120   33.6710   78.9820 C.3   553  PRO553      0.0268
     28  CG       -55.7660   32.1970   79.2370 C.3   553  PRO553      0.0207
     29  CD       -54.7930   31.8790   80.3240 C.3   553  PRO553      0.0892
     30  N        -55.1900   32.2050   86.9410 N.3   559  GLN559     -0.1231
     31  CA       -56.2440   31.7180   86.0510 C.3   559  GLN559      0.1698
     32  C        -55.5980   30.7680   85.0470 C.2   559  GLN559      0.2592
     33  O        -55.1180   31.1790   83.9900 O.2   559  GLN559     -0.2718
     34  CB       -56.9530   32.8780   85.3610 C.3   559  GLN559      0.0381
     35  CG       -58.1400   32.4630   84.5060 C.3   559  GLN559      0.0905
     36  CD       -59.3160   31.9640   85.3290 C.2   559  GLN559      0.2608
     37  OE1      -59.4040   32.2230   86.5300 O.2   559  GLN559     -0.2717
     38  NE2      -60.2270   31.2460   84.6830 N.am  559  GLN559     -0.0878
     39  N        -55.5920   29.4820   85.3860 N.am  560  VAL560     -0.1966
     40  CA       -54.9310   28.4530   84.5930 C.3   560  VAL560      0.1727
     41  C        -55.9640   27.7430   83.7310 C.2   560  VAL560      0.2616
     42  O        -57.0590   27.4070   84.1970 O.2   560  VAL560     -0.2715
     43  CB       -54.1870   27.4540   85.4990 C.3   560  VAL560      0.0290
     44  CG1      -53.4760   26.4010   84.6640 C.3   560  VAL560      0.0023
     45  CG2      -53.2020   28.1870   86.3980 C.3   560  VAL560      0.0023
     46  N        -55.6120   27.5150   82.4660 N.am  561  ASN561     -0.1958
     47  CA       -56.4650   26.7940   81.5220 C.3   561  ASN561      0.1819
     48  C        -56.1020   25.3160   81.6040 C.2   561  ASN561      0.2621
     49  O        -55.2360   24.8250   80.8800 O.2   561  ASN561     -0.2715
     50  CB       -56.2860   27.3480   80.1140 C.3   561  ASN561      0.1195
     51  CG       -57.3020   26.7980   79.1320 C.2   561  ASN561      0.2630
     52  OD1      -57.2880   25.6120   78.8020 O.2   561  ASN561     -0.2716
     53  ND2      -58.1870   27.6650   78.6510 N.am  561  ASN561     -0.0877
     54  N        -56.7760   24.5950   82.5050 N.am  562  HIS562     -0.1959
     55  CA       -56.4730   23.1830   82.7110 C.3   562  HIS562      0.1787
     56  C        -56.9170   22.3080   81.5460 C.2   562  HIS562      0.2621
     57  O        -56.4670   21.1610   81.4470 O.2   562  HIS562     -0.2715
     58  CB       -57.1300   22.6800   83.9980 C.3   562  HIS562      0.0785
     59  CG       -56.4820   23.1840   85.2500 C.ar  562  HIS562      0.0821
     60  ND1      -56.5420   24.5040   85.6410 N.ar  562  HIS562     -0.2267
     61  CD2      -55.7640   22.5420   86.2010 C.ar  562  HIS562      0.1154
     62  CE1      -55.8880   24.6540   86.7790 C.ar  562  HIS562      0.1986
     63  NE2      -55.4050   23.4780   87.1400 N.ar  562  HIS562     -0.2212
     64  N        -57.7860   22.8140   80.6710 N.am  563  THR563     -0.1937
     65  CA       -58.3070   21.9960   79.5800 C.3   563  THR563      0.2028
     66  C        -57.2040   21.6270   78.5930 C.2   563  THR563      0.2642
     67  O        -56.9720   20.4450   78.3130 O.2   563  THR563     -0.2714
     68  CB       -59.4460   22.7300   78.8690 C.3   563  THR563      0.1808
     69  OG1      -58.9670   23.9800   78.3590 O.3   563  THR563     -0.2208
     70  CG2      -60.5960   22.9890   79.8320 C.3   563  THR563      0.0379
     71  N        -56.5070   22.6320   78.0550 N.am  564  ILE564     -0.1977
     72  CA       -55.4280   22.3580   77.1140 C.3   564  ILE564      0.1596
     73  C        -54.2470   21.6840   77.7960 C.2   564  ILE564      0.2287
     74  O        -53.4420   21.0280   77.1250 O.2   564  ILE564     -0.2864
     75  CB       -54.9820   23.6500   76.4070 C.3   564  ILE564      0.0276
     76  CG1      -54.5240   24.6900   77.4280 C.3   564  ILE564      0.0022
     77  CG2      -56.1080   24.2020   75.5470 C.3   564  ILE564      0.0022
     78  CD1      -54.1960   26.0280   76.8180 C.3   564  ILE564      0.0001
@<TRIPOS>BOND
     1     1     2    1
     2     4     3    2
     3     3     2    1
     4     2     5    1
     5     7     5    1
     6     5     6    1
     7     8     9    1
     8    21    20    1
     9    13    12    1
    10     9    10    1
    11     9    12    1
    12    10    11    2
    13    22    20    1
    14    20    19    1
    15    12    14    1
    16    19    16    1
    17    77    75    1
    18    15    16    1
    19    16    17    1
    20    75    72    1
    21    75    76    1
    22    78    76    1
    23    72    73    1
    24    72    71    1
    25    74    73    2
    26    17    18    2
    27    71    66   am
    28    67    66    2
    29    69    68    1
    30    66    65    1
    31    53    51   am
    32    52    51    2
    33    68    65    1
    34    68    70    1
    35    27    28    1
    36    27    24    1
    37    51    50    1
    38    28    29    1
    39    24    25    1
    40    24    23    1
    41    26    25    2
    42    65    64    1
    43    23    29    1
    44    50    47    1
    45    64    56   am
    46    49    48    2
    47    57    56    2
    48    47    48    1
    49    47    46    1
    50    56    55    1
    51    48    54   am
    52    46    41   am
    53    54    55    1
    54    55    58    1
    55    41    42    2
    56    41    40    1
    57    33    32    2
    58    58    59    1
    59    35    36    1
    60    35    34    1
    61    40    39    1
    62    40    43    1
    63    44    43    1
    64    38    36   am
    65    32    39   am
    66    32    31    1
    67    59    60   ar
    68    59    61   ar
    69    36    37    2
    70    34    31    1
    71    43    45    1
    72    60    62   ar
    73    31    30    1
    74    61    63   ar
    75    62    63   ar
