@<TRIPOS>MOLECULE
tmp/5w25A00.pdb
 113 104 0 0 0
SMALL
GASTEIGER

@<TRIPOS>ATOM
      1  N          0.8240    5.2140  -18.4010 N.3   174  GLU174     -0.1245
      2  CA         2.0670    4.4580  -18.3720 C.3   174  GLU174      0.1567
      3  C          2.2130    3.5130  -19.5570 C.2   174  GLU174      0.2260
      4  O          3.1630    2.7220  -19.5820 O.2   174  GLU174     -0.2867
      5  CB         2.1770    3.6440  -17.0680 C.3   174  GLU174      0.0388
      6  CG         2.3110    4.5740  -15.8660 C.3   174  GLU174      0.1160
      7  CD         3.7150    5.1720  -15.8270 C.2   174  GLU174      0.3649
      8  OE1        3.9200    6.2470  -15.2050 O.co2 174  GLU174     -0.2457
      9  OE2        4.6680    4.5910  -16.4120 O.co2 174  GLU174     -0.2457
     10  N          0.6150    4.1950  -11.8050 N.3   196  SER196     -0.1217
     11  CA         1.8060    4.5120  -11.0260 C.3   196  SER196      0.1889
     12  C          1.5440    5.7830  -10.2290 C.2   196  SER196      0.2288
     13  O          0.7070    6.6020  -10.6300 O.2   196  SER196     -0.2866
     14  CB         3.0320    4.6890  -11.9230 C.3   196  SER196      0.2089
     15  OG         2.9140    5.8540  -12.7240 O.3   196  SER196     -0.2183
     16  N          3.0790    8.3650  -10.3110 N.3   198  GLN198     -0.1245
     17  CA         3.9790    9.2990  -10.9820 C.3   198  GLN198      0.1566
     18  C          3.5180   10.7410  -10.8060 C.2   198  GLN198      0.2260
     19  O          4.3220   11.6260  -10.4930 O.2   198  GLN198     -0.2867
     20  CB         4.0830    8.9450  -12.4670 C.3   198  GLN198      0.0367
     21  CG         4.9450    9.8990  -13.2780 C.3   198  GLN198      0.0905
     22  CD         6.4150    9.7950  -12.9300 C.2   198  GLN198      0.2608
     23  OE1        6.9420    8.7010  -12.7340 O.2   198  GLN198     -0.2717
     24  NE2        7.0860   10.9370  -12.8470 N.am  198  GLN198     -0.0878
     25  N          3.7760   11.9320   -7.0130 N.3   201  LYS201     -0.1245
     26  CA         5.1310   12.1020   -6.5050 C.3   201  LYS201      0.1561
     27  C          5.8300   13.3130   -7.1060 C.2   201  LYS201      0.2260
     28  O          6.7860   13.8180   -6.5080 O.2   201  LYS201     -0.2867
     29  CB         5.9530   10.8360   -6.7540 C.3   201  LYS201      0.0271
     30  CG         6.3970   10.6920   -8.2060 C.3   201  LYS201      0.0035
     31  CD         7.4710    9.6080   -8.2450 C.3   201  LYS201      0.0206
     32  CE         7.4320    8.8600   -9.5740 C.3   201  LYS201      0.1093
     33  NZ         8.4720    7.8460   -9.5770 N.3   201  LYS201     -0.1314
     34  N         -2.4140   -1.9140  -13.8350 N.3   220  ARG220     -0.1245
     35  CA        -2.3430   -1.7260  -15.2800 C.3   220  ARG220      0.1563
     36  C         -3.0240   -2.9020  -15.9620 C.2   220  ARG220      0.2260
     37  O         -2.6200   -4.0520  -15.7690 O.2   220  ARG220     -0.2867
     38  CB        -0.8910   -1.6010  -15.7540 C.3   220  ARG220      0.0307
     39  CG        -0.1250   -0.4450  -15.1300 C.3   220  ARG220      0.0489
     40  CD         1.3240   -0.4250  -15.5860 C.3   220  ARG220      0.2205
     41  NE         2.1050    0.5730  -14.8630 N.pl3 220  ARG220     -0.0865
     42  CZ         3.4070    0.7770  -15.0390 C.cat 220  ARG220      0.5346
     43  NH1        4.0800    0.0500  -15.9200 N.pl3 220  ARG220      0.1354
     44  NH2        4.0350    1.7080  -14.3350 N.pl3 220  ARG220      0.1354
     45  N          5.6650   -1.6120   -6.6340 N.3   234  GLN234     -0.1245
     46  CA         6.8490   -0.8560   -7.0110 C.3   234  GLN234      0.1566
     47  C          7.5120   -0.2650   -5.7760 C.2   234  GLN234      0.2260
     48  O          6.8560    0.0020   -4.7660 O.2   234  GLN234     -0.2867
     49  CB         6.5140    0.2880   -7.9790 C.3   234  GLN234      0.0367
     50  CG         6.2310   -0.1310   -9.4060 C.3   234  GLN234      0.0905
     51  CD         5.9750    1.0630  -10.3050 C.2   234  GLN234      0.2608
     52  OE1        5.7650    2.1780   -9.8280 O.2   234  GLN234     -0.2717
     53  NE2        5.9960    0.8360  -11.6130 N.am  234  GLN234     -0.0878
     54  N          8.8010    3.0750   -5.2870 N.3   236  ASP236     -0.1239
     55  CA         8.7600    4.3830   -5.9230 C.3   236  ASP236      0.1674
     56  C          9.6920    5.3490   -5.2040 C.2   236  ASP236      0.2266
     57  O          9.7250    5.3950   -3.9720 O.2   236  ASP236     -0.2867
     58  CB         7.3320    4.9290   -5.9150 C.3   236  ASP236      0.1410
     59  CG         7.0750    5.7340   -7.1830 C.2   236  ASP236      0.3668
     60  OD1        7.4130    5.2740   -8.3060 O.co2 236  ASP236     -0.2456
     61  OD2        6.5170    6.8590   -7.0960 O.co2 236  ASP236     -0.2456
     62  N          9.0760    6.1530  -22.1850 N.3   452  HIS452     -0.1226
     63  CA         8.8850    5.8440  -20.7730 C.3   452  HIS452      0.1752
     64  C          7.5140    6.3430  -20.3350 C.2   452  HIS452      0.2596
     65  O          6.5600    5.5630  -20.2410 O.2   452  HIS452     -0.2718
     66  CB         9.9950    6.4770  -19.9340 C.3   452  HIS452      0.0759
     67  CG        10.1200    5.8960  -18.5610 C.ar  452  HIS452      0.0818
     68  ND1        9.6330    4.6490  -18.2330 N.ar  452  HIS452     -0.2268
     69  CD2       10.6790    6.3910  -17.4320 C.ar  452  HIS452      0.1154
     70  CE1        9.8860    4.4020  -16.9600 C.ar  452  HIS452      0.1986
     71  NE2       10.5200    5.4430  -16.4510 N.ar  452  HIS452     -0.2212
     72  N          7.4060    7.6430  -20.0700 N.am  453  HIS453     -0.1975
     73  CA         6.1150    8.2920  -19.9010 C.3   453  HIS453      0.1656
     74  C          6.2270    9.7200  -20.4130 C.2   453  HIS453      0.2291
     75  O          7.3270   10.2560  -20.5750 O.2   453  HIS453     -0.2864
     76  CB         5.6300    8.2600  -18.4430 C.3   453  HIS453      0.0771
     77  CG         6.6420    8.7400  -17.4490 C.ar  453  HIS453      0.0820
     78  ND1        7.3070    9.9410  -17.5780 N.ar  453  HIS453     -0.2267
     79  CD2        7.0890    8.1850  -16.2980 C.ar  453  HIS453      0.1154
     80  CE1        8.1270   10.1000  -16.5540 C.ar  453  HIS453      0.1986
     81  NE2        8.0130    9.0490  -15.7620 N.ar  453  HIS453     -0.2212
     82  N         13.4140    1.5730  -13.6280 N.3   489  GLY489     -0.1210
     83  CA        13.6270    2.6020  -14.6240 C.3   489  GLY489      0.1956
     84  C         13.0830    3.9490  -14.1990 C.2   489  GLY489      0.2612
     85  O         12.0250    4.0280  -13.5680 O.2   489  GLY489     -0.2717
     86  N         13.8000    5.0170  -14.5370 N.am  490  GLY490     -0.1956
     87  CA        13.3750    6.3540  -14.1770 C.3   490  GLY490      0.1869
     88  C         13.8600    7.4070  -15.1500 C.2   490  GLY490      0.2309
     89  O         14.3780    7.0750  -16.2210 O.2   490  GLY490     -0.2863
     90  N         12.4060   14.7010  -14.8110 N.3   493  ARG493     -0.1245
     91  CA        11.0720   15.0870  -15.2410 C.3   493  ARG493      0.1563
     92  C         11.0710   16.4770  -15.8680 C.2   493  ARG493      0.2260
     93  O         11.9800   17.2850  -15.6620 O.2   493  ARG493     -0.2867
     94  CB        10.0970   15.0600  -14.0630 C.3   493  ARG493      0.0307
     95  CG        10.3840   13.9900  -13.0250 C.3   493  ARG493      0.0489
     96  CD        10.2210   12.5910  -13.5850 C.3   493  ARG493      0.2205
     97  NE        10.3690   11.5830  -12.5400 N.pl3 493  ARG493     -0.0865
     98  CZ        10.3850   10.2740  -12.7610 C.cat 493  ARG493      0.5346
     99  NH1       10.5210    9.4320  -11.7470 N.pl3 493  ARG493      0.1354
    100  NH2       10.2690    9.8070  -13.9960 N.pl3 493  ARG493      0.1354
    101  N         12.8020    7.2240   -9.8380 N.3   535  ILE535     -0.1231
    102  CA        12.9390    5.8720  -10.3690 C.3   535  ILE535      0.1692
    103  C         11.9720    4.9640   -9.6200 C.2   535  ILE535      0.2591
    104  O         11.6170    5.2280   -8.4690 O.2   535  ILE535     -0.2718
    105  CB        14.4050    5.3820  -10.2490 C.3   535  ILE535      0.0266
    106  CG1       14.6110    4.0730  -11.0180 C.3   535  ILE535      0.0019
    107  CG2       14.7960    5.2210   -8.7890 C.3   535  ILE535      0.0020
    108  CD1       16.0340    3.5380  -10.9490 C.3   535  ILE535      0.0001
    109  N         11.5310    3.8990  -10.2850 N.am  536  ALA536     -0.1980
    110  CA        10.6520    2.9050   -9.6860 C.3   536  ALA536      0.1597
    111  C         11.1720    1.5210  -10.0350 C.2   536  ALA536      0.2287
    112  O         11.5080    1.2560  -11.1940 O.2   536  ALA536     -0.2864
    113  CB         9.2080    3.0630  -10.1700 C.3   536  ALA536      0.0319
@<TRIPOS>BOND
     1    62    63    1
     2    63    64    1
     3    63    66    1
     4    75    74    2
     5    74    73    1
     6    64    65    2
     7    64    72   am
     8    72    73    1
     9    66    67    1
    10    73    76    1
    11     4     3    2
    12     3     2    1
    13    67    68   ar
    14    67    69   ar
    15    76    77    1
    16     1     2    1
    17     2     5    1
    18    68    70   ar
    19    78    77   ar
    20    78    80   ar
    21    77    79   ar
    22    69    71   ar
    23     5     6    1
    24    70    71   ar
    25    80    81   ar
    26     9     7   ar
    27    79    81   ar
    28    89    88    2
    29    36    37    2
    30    36    35    1
    31    43    42    1
    32    92    93    2
    33    92    91    1
    34     6     7    1
    35     7     8   ar
    36    38    35    1
    37    38    39    1
    38    40    39    1
    39    40    41    1
    40    35    34    1
    41    91    90    1
    42    91    94    1
    43    88    87    1
    44    42    41    2
    45    42    44    1
    46    83    84    1
    47    83    82    1
    48    86    84   am
    49    86    87    1
    50    84    85    2
    51    94    95    1
    52   100    98    1
    53    96    95    1
    54    96    97    1
    55    21    22    1
    56    21    20    1
    57    22    24   am
    58    22    23    2
    59    98    97    2
    60    98    99    1
    61    15    14    1
    62    20    17    1
    63    14    11    1
    64    10    11    1
    65    53    51   am
    66   112   111    2
    67    11    12    1
    68   106   108    1
    69   106   105    1
    70    17    18    1
    71    17    16    1
    72    18    19    2
    73    13    12    2
    74   102   105    1
    75   102   101    1
    76   102   103    1
    77    51    52    2
    78    51    50    1
    79   109   110    1
    80   109   103   am
    81   105   107    1
    82   113   110    1
    83   111   110    1
    84   103   104    2
    85    33    32    1
    86    32    31    1
    87    50    49    1
    88    60    59   ar
    89    31    30    1
    90    30    29    1
    91    49    46    1
    92    59    61   ar
    93    59    58    1
    94    27    28    2
    95    27    26    1
    96    25    26    1
    97    46    45    1
    98    46    47    1
    99    29    26    1
   100    55    58    1
   101    55    54    1
   102    55    56    1
   103    47    48    2
   104    56    57    2
