@<TRIPOS>MOLECULE
tmp/5w27A01.pdb
 81 76 0 0 0
SMALL
GASTEIGER

@<TRIPOS>ATOM
      1  N          1.9780   -2.5640    6.3770 N.3    70  ARG70      -0.1231
      2  CA         2.0680   -3.1660    7.6970 C.3    70  ARG70       0.1694
      3  C          0.7350   -2.9260    8.4120 C.2    70  ARG70       0.2593
      4  O         -0.0880   -2.0920    7.9860 O.2    70  ARG70      -0.2718
      5  CB         3.1860   -2.4710    8.5060 C.3    70  ARG70       0.0321
      6  CG         4.5830   -2.4960    7.8810 C.3    70  ARG70       0.0489
      7  CD         5.1960   -3.8850    7.9120 C.3    70  ARG70       0.2205
      8  NE         6.5590   -3.8800    7.3570 N.pl3  70  ARG70      -0.0865
      9  CZ         6.8730   -3.8860    6.0630 C.cat  70  ARG70       0.5346
     10  NH1        8.1590   -3.8680    5.7090 N.pl3  70  ARG70       0.1354
     11  NH2        5.9440   -3.9130    5.1140 N.pl3  70  ARG70       0.1354
     12  N          0.5280   -3.6460    9.5120 N.am   71  GLY71      -0.1942
     13  CA        -0.6100   -3.3740   10.3980 C.3    71  GLY71       0.2014
     14  C         -1.9630   -3.8280    9.8660 C.2    71  GLY71       0.2639
     15  O         -2.9910   -3.2240   10.1790 O.2    71  GLY71      -0.2714
     16  N         -1.9360   -4.8930    9.0840 N.am   72  LEU72      -0.1963
     17  CA        -3.1290   -5.5130    8.4890 C.3    72  LEU72       0.1728
     18  C         -3.3900   -6.7970    9.2700 C.2    72  LEU72       0.2616
     19  O         -2.4820   -7.6370    9.4290 O.2    72  LEU72      -0.2715
     20  CB        -2.8840   -5.8000    7.0110 C.3    72  LEU72       0.0311
     21  CG        -3.8430   -6.6850    6.1950 C.3    72  LEU72       0.0022
     22  CD1       -5.2190   -6.1000    6.2580 C.3    72  LEU72       0.0001
     23  CD2       -3.4290   -6.8340    4.7420 C.3    72  LEU72       0.0001
     24  N         -4.6130   -6.9610    9.7660 N.am   73  LEU73      -0.1977
     25  CA        -4.9470   -8.0940   10.6140 C.3    73  LEU73       0.1596
     26  C         -6.1980   -8.7820   10.0840 C.2    73  LEU73       0.2287
     27  O         -7.2430   -8.1330    9.9400 O.2    73  LEU73      -0.2864
     28  CB        -5.1670   -7.6080   12.0430 C.3    73  LEU73       0.0297
     29  CG        -5.2410   -8.6700   13.1220 C.3    73  LEU73       0.0022
     30  CD1       -3.8960   -9.4040   13.2400 C.3    73  LEU73       0.0001
     31  CD2       -5.6020   -8.0400   14.4620 C.3    73  LEU73       0.0001
     32  N         -5.1840   -9.4730   22.7610 N.3   101  TRP101     -0.1241
     33  CA        -6.2620   -9.2490   21.7980 C.3   101  TRP101      0.1605
     34  C         -6.5990  -10.4900   20.9960 C.2   101  TRP101      0.2264
     35  O         -7.3750  -10.4250   20.0280 O.2   101  TRP101     -0.2867
     36  CB        -5.8250   -8.1360   20.8560 C.3   101  TRP101      0.0550
     37  CG        -5.1370   -7.0420   21.5920 C.ar  101  TRP101      0.0003
     38  CD1       -5.7160   -6.1150   22.4100 C.ar  101  TRP101      0.0946
     39  CD2       -3.7350   -6.7900   21.6240 C.ar  101  TRP101      0.0152
     40  NE1       -4.7580   -5.2750   22.9260 N.ar  101  TRP101     -0.2442
     41  CE2       -3.5300   -5.6770   22.4690 C.ar  101  TRP101      0.0810
     42  CE3       -2.6290   -7.3860   21.0100 C.ar  101  TRP101      0.0012
     43  CZ2       -2.2580   -5.1400   22.7090 C.ar  101  TRP101      0.0191
     44  CZ3       -1.3590   -6.8500   21.2550 C.ar  101  TRP101      0.0001
     45  CH2       -1.1900   -5.7450   22.1000 C.ar  101  TRP101      0.0015
     46  N         -2.4460  -14.7480   17.7490 N.3   104  GLN104     -0.1245
     47  CA        -2.0440  -14.1090   16.4930 C.3   104  GLN104      0.1566
     48  C         -0.7850  -14.6960   15.8590 C.2   104  GLN104      0.2260
     49  O          0.0740  -15.2830   16.5270 O.2   104  GLN104     -0.2867
     50  CB        -1.8430  -12.6230   16.7100 C.3   104  GLN104      0.0367
     51  CG        -3.0380  -11.9390   17.3620 C.3   104  GLN104      0.0905
     52  CD        -3.0290  -10.4100   17.3370 C.2   104  GLN104      0.2608
     53  OE1       -3.9890   -9.7800   17.7980 O.2   104  GLN104     -0.2717
     54  NE2       -1.9710   -9.8080   16.8150 N.am  104  GLN104     -0.0878
     55  N          1.8750  -13.9220   12.0760 N.3   106  MET106     -0.1245
     56  CA         2.1720  -13.0010   10.9830 C.3   106  MET106      0.1570
     57  C          2.9580  -13.7160    9.8860 C.2   106  MET106      0.2261
     58  O          3.7240  -14.6330   10.1600 O.2   106  MET106     -0.2867
     59  CB         3.0300  -11.8610   11.4640 C.3   106  MET106      0.0387
     60  CG         2.6030  -11.1920   12.7490 C.3   106  MET106      0.0595
     61  SD         3.6920   -9.7870   13.0590 S.3   106  MET106     -0.1393
     62  CE         5.2760  -10.1710   12.2940 C.3   106  MET106      0.0692
     63  N          3.2040   -7.2060    5.1940 N.3   114  VAL114     -0.1245
     64  CA         3.0580   -8.0450    6.3790 C.3   114  VAL114      0.1561
     65  C          1.5830   -8.1990    6.7410 C.2   114  VAL114      0.2260
     66  O          0.8500   -7.2250    6.9080 O.2   114  VAL114     -0.2867
     67  CB         3.8890   -7.5000    7.5680 C.3   114  VAL114      0.0252
     68  CG1        3.7320   -8.3970    8.7990 C.3   114  VAL114      0.0019
     69  CG2        5.3560   -7.3830    7.1820 C.3   114  VAL114      0.0019
     70  N         -1.2290  -10.0630    9.2410 N.3   116  GLY116     -0.1225
     71  CA        -1.4750  -10.7210   10.5180 C.3   116  GLY116      0.1811
     72  C         -2.6790  -11.6300   10.4650 C.2   116  GLY116      0.2280
     73  O         -3.5920  -11.4120    9.6770 O.2   116  GLY116     -0.2866
     74  N         -5.5320  -13.2530   13.3310 N.3   118  ASN118     -0.1240
     75  CA        -5.9750  -13.1650   14.7300 C.3   118  ASN118      0.1653
     76  C         -7.2200  -13.9940   14.9640 C.2   118  ASN118      0.2266
     77  O         -8.2170  -13.8580   14.2450 O.2   118  ASN118     -0.2867
     78  CB        -6.2340  -11.7210   15.1530 C.3   118  ASN118      0.1155
     79  CG        -6.6860  -11.6120   16.6050 C.2   118  ASN118      0.2627
     80  OD1       -6.1630  -12.2910   17.4840 O.2   118  ASN118     -0.2716
     81  ND2       -7.6390  -10.7420   16.8640 N.am  118  ASN118     -0.0877
@<TRIPOS>BOND
     1    23    21    1
     2    11     9    1
     3    63    64    1
     4    10     9    1
     5     9     8    2
     6    21    22    1
     7    21    20    1
     8     1     2    1
     9    64    65    1
    10    64    67    1
    11    65    66    2
    12    20    17    1
    13    69    67    1
    14     8     7    1
    15    67    68    1
    16     2     3    1
    17     2     5    1
    18     6     7    1
    19     6     5    1
    20     4     3    2
    21     3    12   am
    22    17    16    1
    23    17    18    1
    24    16    14   am
    25    70    71    1
    26    18    19    2
    27    18    24   am
    28    12    13    1
    29    73    72    2
    30    24    25    1
    31    14    15    2
    32    14    13    1
    33    57    58    2
    34    57    56    1
    35    27    26    2
    36    26    25    1
    37    72    71    1
    38    25    28    1
    39    56    59    1
    40    56    55    1
    41    59    60    1
    42    28    29    1
    43    62    61    1
    44    60    61    1
    45    29    30    1
    46    29    31    1
    47    74    75    1
    48    77    76    2
    49    75    76    1
    50    75    78    1
    51    78    79    1
    52    48    47    1
    53    48    49    2
    54    47    50    1
    55    47    46    1
    56    79    81   am
    57    79    80    2
    58    50    51    1
    59    54    52   am
    60    52    51    1
    61    52    53    2
    62    35    34    2
    63    36    37    1
    64    36    33    1
    65    34    33    1
    66    42    44   ar
    67    42    39   ar
    68    44    45   ar
    69    37    39   ar
    70    37    38   ar
    71    39    41   ar
    72    33    32    1
    73    45    43   ar
    74    38    40   ar
    75    41    43   ar
    76    41    40   ar
