@<TRIPOS>MOLECULE
tmp/5w27A00.pdb
 127 125 0 0 0
SMALL
GASTEIGER

@<TRIPOS>ATOM
      1  N        -15.3650   -0.2670    1.7620 N.3     8  GLN8       -0.1231
      2  CA       -15.6100   -1.1750    0.6420 C.3     8  GLN8        0.1698
      3  C        -14.3500   -1.9600    0.3050 C.2     8  GLN8        0.2592
      4  O        -14.3820   -3.1760    0.1040 O.2     8  GLN8       -0.2718
      5  CB       -16.0900   -0.4090   -0.5880 C.3     8  GLN8        0.0381
      6  CG       -16.4920   -1.3070   -1.7340 C.3     8  GLN8        0.0905
      7  CD       -16.9350   -0.5640   -2.9720 C.2     8  GLN8        0.2608
      8  OE1      -16.7950   -1.0690   -4.0930 O.2     8  GLN8       -0.2717
      9  NE2      -17.4740    0.6090   -2.7960 N.am    8  GLN8       -0.0878
     10  N        -13.2420   -1.2460    0.2350 N.am    9  LEU9       -0.1980
     11  CA       -11.9590   -1.8590   -0.0760 C.3     9  LEU9        0.1596
     12  C        -10.8150   -0.9390    0.3140 C.2     9  LEU9        0.2287
     13  O        -11.0100    0.2550    0.5360 O.2     9  LEU9       -0.2864
     14  CB       -11.8780   -2.2150   -1.5780 C.3     9  LEU9        0.0297
     15  CG       -12.2390   -1.0960   -2.5530 C.3     9  LEU9        0.0022
     16  CD1      -11.0790   -0.1520   -2.8260 C.3     9  LEU9        0.0001
     17  CD2      -12.7960   -1.6320   -3.8740 C.3     9  LEU9        0.0001
     18  N         -6.1910   -0.6880   -0.4570 N.3    11  SER11      -0.1217
     19  CA        -5.1890   -1.0630   -1.4360 C.3    11  SER11       0.1889
     20  C         -3.9290   -1.6440   -0.7570 C.2    11  SER11       0.2288
     21  O         -3.4990   -1.1840    0.3260 O.2    11  SER11      -0.2866
     22  CB        -4.8610    0.1170   -2.3190 C.3    11  SER11       0.2089
     23  OG        -5.9940    0.4700   -3.1250 O.3    11  SER11      -0.2183
     24  N        -12.3330   -9.6950   -8.9450 N.3    34  ALA34      -0.1245
     25  CA       -12.2460   -9.0200  -10.2370 C.3    34  ALA34       0.1562
     26  C        -10.8130   -8.9870  -10.7090 C.2    34  ALA34       0.2260
     27  O         -9.8890   -8.9100   -9.8960 O.2    34  ALA34      -0.2867
     28  CB       -12.8070   -7.6000  -10.1000 C.3    34  ALA34       0.0290
     29  N         -9.3900   -7.1250  -14.2170 N.3    36  GLN36      -0.1231
     30  CA        -9.8050   -6.4340  -15.4430 C.3    36  GLN36       0.1683
     31  C         -9.0140   -5.1500  -15.6320 C.2    36  GLN36       0.2434
     32  O         -8.2880   -4.7300  -14.7290 O.2    36  GLN36      -0.2733
     33  CB       -11.3100   -6.1370  -15.3990 C.3    36  GLN36       0.0380
     34  CG       -11.7550   -5.1200  -14.3460 C.3    36  GLN36       0.0905
     35  CD       -13.2600   -5.1930  -14.0650 C.2    36  GLN36       0.2608
     36  OE1      -13.7430   -6.1790  -13.5200 O.2    36  GLN36      -0.2717
     37  NE2      -14.0100   -4.1620  -14.4780 N.am   36  GLN36      -0.0878
     38  N         -9.1300   -4.5170  -16.8190 N.am   37  PRO37      -0.2718
     39  CA        -8.4470   -3.2340  -16.9650 C.3    37  PRO37       0.1535
     40  C         -9.0940   -2.1890  -16.0940 C.2    37  PRO37       0.2599
     41  O        -10.3230   -2.1360  -16.0020 O.2    37  PRO37      -0.2715
     42  CB        -8.6280   -2.8920  -18.4540 C.3    37  PRO37       0.0310
     43  CG        -8.8880   -4.1910  -19.1110 C.3    37  PRO37       0.0237
     44  CD        -9.6780   -4.9900  -18.1020 C.3    37  PRO37       0.0939
     45  N         -8.2680   -1.4050  -15.4170 N.am   38  GLY38      -0.1941
     46  CA        -8.7440   -0.3390  -14.5580 C.3    38  GLY38       0.2014
     47  C         -8.1740    0.9940  -15.0180 C.2    38  GLY38       0.2639
     48  O         -7.4640    1.0690  -16.0370 O.2    38  GLY38      -0.2714
     49  N         -8.4400    2.0190  -14.2090 N.am   39  VAL39      -0.1963
     50  CA        -8.1150    3.4200  -14.5290 C.3    39  VAL39       0.1727
     51  C         -6.6040    3.6170  -14.7330 C.2    39  VAL39       0.2616
     52  O         -6.1870    4.2240  -15.7210 O.2    39  VAL39      -0.2715
     53  CB        -8.6480    4.4030  -13.4380 C.3    39  VAL39       0.0290
     54  CG1       -8.2670    5.8610  -13.7440 C.3    39  VAL39       0.0023
     55  CG2      -10.1650    4.3110  -13.3110 C.3    39  VAL39       0.0023
     56  N         -5.7920    3.1130  -13.8050 N.am   40  HIS40      -0.1973
     57  CA        -4.3420    3.3520  -13.8190 C.3    40  HIS40       0.1656
     58  C         -3.5240    2.0950  -14.1320 C.2    40  HIS40       0.2291
     59  O         -2.3070    2.0930  -13.9280 O.2    40  HIS40      -0.2864
     60  CB        -3.8930    3.9710  -12.4880 C.3    40  HIS40       0.0771
     61  CG        -4.5690    5.2700  -12.1650 C.ar   40  HIS40       0.0820
     62  ND1       -5.5610    5.3820  -11.2090 N.ar   40  HIS40      -0.2267
     63  CD2       -4.4040    6.5110  -12.6830 C.ar   40  HIS40       0.1154
     64  CE1       -5.9710    6.6370  -11.1460 C.ar   40  HIS40       0.1986
     65  NE2       -5.2840    7.3420  -12.0290 N.ar   40  HIS40      -0.2212
     66  N         -6.6770   -3.8410  -12.6720 N.3    43  TRP43      -0.1241
     67  CA        -7.4200   -3.8930  -11.4190 C.3    43  TRP43       0.1605
     68  C         -7.5480   -5.3460  -10.9690 C.2    43  TRP43       0.2264
     69  O         -8.1120   -6.1670  -11.6860 O.2    43  TRP43      -0.2867
     70  CB        -8.8130   -3.3320  -11.6280 C.3    43  TRP43       0.0550
     71  CG        -9.7220   -3.4020  -10.4360 C.ar   43  TRP43       0.0003
     72  CD1      -10.6080   -4.3960  -10.1370 C.ar   43  TRP43       0.0946
     73  CD2       -9.8660   -2.4200   -9.4200 C.ar   43  TRP43       0.0152
     74  NE1      -11.3230   -4.0760   -9.0210 N.ar   43  TRP43      -0.2442
     75  CE2      -10.8530   -2.8840   -8.5270 C.ar   43  TRP43       0.0810
     76  CE3       -9.2520   -1.1890   -9.1680 C.ar   43  TRP43       0.0012
     77  CZ2      -11.2660   -2.1460   -7.4200 C.ar   43  TRP43       0.0191
     78  CZ3       -9.6510   -0.4630   -8.0590 C.ar   43  TRP43       0.0001
     79  CH2      -10.6530   -0.9480   -7.1980 C.ar   43  TRP43       0.0015
     80  N         -8.5900   -7.6210   -7.5640 N.3    45  GLN45      -0.1245
     81  CA        -9.3530   -7.4580   -6.3450 C.3    45  GLN45       0.1566
     82  C         -9.7130   -8.8170   -5.7480 C.2    45  GLN45       0.2260
     83  O        -10.2620   -9.6860   -6.4390 O.2    45  GLN45      -0.2867
     84  CB       -10.6200   -6.6790   -6.6590 C.3    45  GLN45       0.0367
     85  CG       -11.4480   -6.2470   -5.4570 C.3    45  GLN45       0.0905
     86  CD       -12.7320   -5.5570   -5.8790 C.2    45  GLN45       0.2608
     87  OE1      -13.0540   -5.4740   -7.0790 O.2    45  GLN45      -0.2717
     88  NE2      -13.4910   -5.0830   -4.9030 N.am   45  GLN45      -0.0878
     89  N         -7.3960   -4.5310   -2.9110 N.3    56  VAL56      -0.1245
     90  CA        -7.0190   -4.2730   -4.3010 C.3    56  VAL56       0.1561
     91  C         -5.4980   -4.3300   -4.3810 C.2    56  VAL56       0.2260
     92  O         -4.8220   -3.6200   -3.6640 O.2    56  VAL56      -0.2867
     93  CB        -7.5710   -2.9030   -4.7820 C.3    56  VAL56       0.0252
     94  CG1       -7.2640   -2.6520   -6.2490 C.3    56  VAL56       0.0019
     95  CG2       -9.0950   -2.8750   -4.6060 C.3    56  VAL56       0.0019
     96  N         -2.4950   -3.4610   -6.1510 N.3    58  VAL58      -0.1245
     97  CA        -2.2010   -2.3650   -7.0850 C.3    58  VAL58       0.1561
     98  C         -0.7280   -2.0440   -7.0980 C.2    58  VAL58       0.2260
     99  O         -0.0480   -2.2540   -6.1120 O.2    58  VAL58      -0.2867
    100  CB        -2.8500   -1.0030   -6.6340 C.3    58  VAL58       0.0252
    101  CG1       -4.3240   -1.1130   -6.4180 C.3    58  VAL58       0.0019
    102  CG2       -2.2040   -0.4400   -5.3570 C.3    58  VAL58       0.0019
    103  N         -0.1390    1.2760   -8.3310 N.3    60  TRP60      -0.1227
    104  CA        -0.5900    2.6180   -8.8420 C.3    60  TRP60       0.1737
    105  C          0.0390    3.7900   -8.1530 C.2    60  TRP60       0.2595
    106  O          0.0840    4.8820   -8.7100 O.2    60  TRP60      -0.2718
    107  CB        -2.0570    2.9900   -8.4790 C.3    60  TRP60       0.0564
    108  CG        -3.1570    2.2360   -8.9080 C.ar   60  TRP60       0.0003
    109  CD1       -4.4230    2.3300   -8.4320 C.ar   60  TRP60       0.0946
    110  CD2       -3.1680    1.2480   -9.8900 C.ar   60  TRP60       0.0152
    111  NE1       -5.2360    1.4480   -9.0670 N.ar   60  TRP60      -0.2442
    112  CE2       -4.4820    0.7620   -9.9730 C.ar   60  TRP60       0.0810
    113  CE3       -2.1980    0.7140  -10.7150 C.ar   60  TRP60       0.0012
    114  CZ2       -4.8370   -0.2130  -10.8500 C.ar   60  TRP60       0.0191
    115  CZ3       -2.5510   -0.2320  -11.5630 C.ar   60  TRP60       0.0001
    116  CH2       -3.8520   -0.6990  -11.6340 C.ar   60  TRP60       0.0015
    117  N          0.3830    3.5990   -6.8780 N.am   61  PHE61      -0.1976
    118  CA         0.5730    4.6960   -5.9640 C.3    61  PHE61       0.1639
    119  C          2.0300    4.8060   -5.5400 C.2    61  PHE61       0.2290
    120  O          2.5100    3.9990   -4.7370 O.2    61  PHE61      -0.2864
    121  CB        -0.3210    4.4930   -4.7390 C.3    61  PHE61       0.0560
    122  CG        -1.7830    4.3240   -5.0670 C.ar   61  PHE61      -0.0200
    123  CD1       -2.4640    5.3150   -5.7540 C.ar   61  PHE61      -0.0042
    124  CD2       -2.4770    3.1890   -4.6580 C.ar   61  PHE61      -0.0042
    125  CE1       -3.8140    5.1840   -6.0340 C.ar   61  PHE61      -0.0003
    126  CE2       -3.8200    3.0370   -4.9430 C.ar   61  PHE61      -0.0003
    127  CZ        -4.4960    4.0480   -5.6310 C.ar   61  PHE61      -0.0000
@<TRIPOS>BOND
     1    43    42    1
     2    43    44    1
     3    42    39    1
     4    44    38    1
     5    39    38    1
     6    39    40    1
     7    38    31   am
     8    40    41    2
     9    40    45   am
    10    48    47    2
    11    52    51    2
    12    31    30    1
    13    31    32    2
    14    30    33    1
    15    30    29    1
    16    45    46    1
    17    33    34    1
    18    47    46    1
    19    47    49   am
    20    51    50    1
    21    51    56   am
    22    50    49    1
    23    50    53    1
    24    37    35   am
    25    34    35    1
    26    58    59    2
    27    58    57    1
    28    35    36    2
    29    57    56    1
    30    57    60    1
    31    54    53    1
    32    53    55    1
    33    63    61   ar
    34    63    65   ar
    35    66    67    1
    36    60    61    1
    37    61    62   ar
    38    65    64   ar
    39    69    68    2
    40   116   115   ar
    41   116   114   ar
    42    70    67    1
    43    70    71    1
    44   115   113   ar
    45    67    68    1
    46    62    64   ar
    47   114   112   ar
    48   113   110   ar
    49    26    25    1
    50    26    27    2
    51    71    72   ar
    52    71    73   ar
    53    25    28    1
    54    25    24    1
    55    72    74   ar
    56   112   110   ar
    57   112   111   ar
    58   110   108   ar
    59    73    76   ar
    60    73    75   ar
    61    76    78   ar
    62   111   109   ar
    63    74    75   ar
    64   108   107    1
    65   108   109   ar
    66   104   107    1
    67   104   103    1
    68   104   105    1
    69   106   105    2
    70    75    77   ar
    71   105   117   am
    72    78    79   ar
    73    80    81    1
    74    77    79   ar
    75    98    97    1
    76    98    99    2
    77    97   100    1
    78    97    96    1
    79    87    86    2
    80   117   118    1
    81    84    81    1
    82    84    85    1
    83   100   101    1
    84   100   102    1
    85    83    82    2
    86    81    82    1
    87    94    93    1
    88   125   123   ar
    89   125   127   ar
    90   118   119    1
    91   118   121    1
    92    86    85    1
    93    86    88   am
    94   123   122   ar
    95   127   126   ar
    96   119   120    2
    97   122   121    1
    98   122   124   ar
    99   126   124   ar
   100    93    95    1
   101    93    90    1
   102    91    90    1
   103    91    92    2
   104    90    89    1
   105     8     7    2
   106    17    15    1
   107    23    22    1
   108     7     9   am
   109     7     6    1
   110    16    15    1
   111    15    14    1
   112    22    19    1
   113     6     5    1
   114    14    11    1
   115    19    20    1
   116    19    18    1
   117    20    21    2
   118     5     2    1
   119    11    10    1
   120    11    12    1
   121     4     3    2
   122    10     3   am
   123     3     2    1
   124    12    13    2
   125     2     1    1
