@<TRIPOS>MOLECULE
tmp/5w2aB00.pdb
 157 151 0 0 0
SMALL
GASTEIGER

@<TRIPOS>ATOM
      1  N        -21.1280  -35.5670   66.5150 N.3    77  ASP77      -0.1225
      2  CA       -21.4840  -36.0510   65.1760 C.3    77  ASP77       0.1805
      3  C        -22.4330  -35.0150   64.5990 C.2    77  ASP77       0.2598
      4  O        -23.4670  -34.7330   65.1960 O.2    77  ASP77      -0.2718
      5  CB       -22.1090  -37.4680   65.2600 C.3    77  ASP77       0.1424
      6  CG       -22.5530  -38.0430   63.8890 C.2    77  ASP77       0.3668
      7  OD1      -23.3080  -37.3730   63.1450 O.co2  77  ASP77      -0.2456
      8  OD2      -22.1790  -39.2040   63.5840 O.co2  77  ASP77      -0.2456
      9  N        -22.0640  -34.4310   63.4580 N.am   78  MET78      -0.1965
     10  CA       -22.9040  -33.4290   62.7880 C.3    78  MET78       0.1736
     11  C        -24.1640  -34.0700   62.2440 C.2    78  MET78       0.2616
     12  O        -24.1650  -35.2340   61.8410 O.2    78  MET78      -0.2715
     13  CB       -22.1750  -32.7550   61.6280 C.3    78  MET78       0.0427
     14  CG       -20.9370  -31.9600   62.0130 C.3    78  MET78       0.0599
     15  SD       -21.2760  -30.2330   62.4160 S.3    78  MET78      -0.1393
     16  CE       -20.2060  -30.1320   63.8460 C.3    78  MET78       0.0692
     17  N        -25.2270  -33.2870   62.2330 N.am   79  ASP79      -0.1957
     18  CA       -26.5420  -33.7810   61.9040 C.3    79  ASP79       0.1840
     19  C        -26.7360  -33.5610   60.4240 C.2    79  ASP79       0.2622
     20  O        -26.4480  -32.4730   59.9220 O.2    79  ASP79      -0.2715
     21  CB       -27.6080  -33.0310   62.7150 C.3    79  ASP79       0.1450
     22  CG       -27.4000  -33.1560   64.2400 C.2    79  ASP79       0.3671
     23  OD1      -27.0490  -34.2550   64.7300 O.co2  79  ASP79      -0.2456
     24  OD2      -27.6010  -32.1480   64.9550 O.co2  79  ASP79      -0.2456
     25  N        -27.2160  -34.6000   59.7370 N.am   80  ALA80      -0.1963
     26  CA       -27.4290  -34.6060   58.2740 C.3    80  ALA80       0.1728
     27  C        -26.3910  -33.7860   57.4910 C.2    80  ALA80       0.2616
     28  O        -26.7130  -33.0630   56.5520 O.2    80  ALA80      -0.2715
     29  CB       -28.8450  -34.1450   57.9600 C.3    80  ALA80       0.0334
     30  N        -25.1360  -33.9510   57.8890 N.am   81  PHE81      -0.1960
     31  CA       -24.0450  -33.0330   57.5580 C.3    81  PHE81       0.1771
     32  C        -24.0640  -32.4460   56.1520 C.2    81  PHE81       0.2619
     33  O        -24.1980  -31.2340   56.0140 O.2    81  PHE81      -0.2715
     34  CB       -22.6890  -33.6970   57.8400 C.3    81  PHE81       0.0574
     35  CG       -21.5040  -32.7700   57.7280 C.ar   81  PHE81      -0.0200
     36  CD1      -21.5720  -31.4510   58.1520 C.ar   81  PHE81      -0.0042
     37  CD2      -20.2930  -33.2430   57.2370 C.ar   81  PHE81      -0.0042
     38  CE1      -20.4680  -30.6280   58.0570 C.ar   81  PHE81      -0.0003
     39  CE2      -19.1840  -32.4190   57.1450 C.ar   81  PHE81      -0.0003
     40  CZ       -19.2720  -31.1100   57.5550 C.ar   81  PHE81      -0.0000
     41  N        -23.9360  -33.2820   55.1210 N.am   82  TYR82      -0.1974
     42  CA       -23.8520  -32.7550   53.7460 C.3    82  TYR82       0.1639
     43  C        -25.1660  -32.1000   53.3560 C.2    82  TYR82       0.2290
     44  O        -25.1740  -31.0510   52.7190 O.2    82  TYR82      -0.2864
     45  CB       -23.4460  -33.8140   52.6920 C.3    82  TYR82       0.0560
     46  CG       -22.0710  -34.4770   52.8490 C.ar   82  TYR82      -0.0198
     47  CD1      -21.1230  -34.0170   53.7820 C.ar   82  TYR82      -0.0009
     48  CD2      -21.7030  -35.5470   52.0280 C.ar   82  TYR82      -0.0009
     49  CE1      -19.8820  -34.6240   53.9150 C.ar   82  TYR82       0.0417
     50  CE2      -20.4580  -36.1580   52.1560 C.ar   82  TYR82       0.0417
     51  CZ       -19.5510  -35.6940   53.1040 C.ar   82  TYR82       0.1957
     52  OH       -18.3090  -36.2820   53.2380 O.3    82  TYR82      -0.2866
     53  N        -26.1560  -41.9370   46.8650 N.3   106  LEU106     -0.1231
     54  CA       -26.4340  -40.8510   47.7820 C.3   106  LEU106      0.1693
     55  C        -25.5180  -40.9760   48.9690 C.2   106  LEU106      0.2593
     56  O        -25.3760  -42.0650   49.5230 O.2   106  LEU106     -0.2718
     57  CB       -27.8880  -40.9040   48.2620 C.3   106  LEU106      0.0284
     58  CG       -28.9870  -40.8220   47.2000 C.3   106  LEU106      0.0019
     59  CD1      -30.3410  -40.9820   47.8570 C.3   106  LEU106      0.0001
     60  CD2      -28.9340  -39.5180   46.4260 C.3   106  LEU106      0.0001
     61  N        -24.9070  -39.8520   49.3480 N.am  107  SER107     -0.1938
     62  CA       -24.0570  -39.7590   50.5370 C.3   107  SER107      0.2055
     63  C        -24.9150  -39.7240   51.8130 C.2   107  SER107      0.2643
     64  O        -24.6610  -40.4730   52.7550 O.2   107  SER107     -0.2714
     65  CB       -23.1250  -38.5330   50.4430 C.3   107  SER107      0.2130
     66  OG       -23.8640  -37.3390   50.2680 O.3   107  SER107     -0.2179
     67  N        -25.9370  -38.8710   51.8240 N.am  108  THR108     -0.1950
     68  CA       -26.8500  -38.7400   52.9690 C.3   108  THR108      0.1897
     69  C        -28.2220  -38.2380   52.5090 C.2   108  THR108      0.2313
     70  O        -28.4990  -38.1580   51.3090 O.2   108  THR108     -0.2863
     71  CB       -26.2620  -37.8010   54.0520 C.3   108  THR108      0.1794
     72  OG1      -27.1480  -37.7160   55.1770 O.3   108  THR108     -0.2208
     73  CG2      -26.0280  -36.4060   53.5060 C.3   108  THR108      0.0378
     74  N        -33.6750  -35.1960   57.3020 N.3   111  TYR111     -0.1241
     75  CA       -34.6660  -35.9610   58.0650 C.3   111  TYR111      0.1605
     76  C        -36.0670  -35.9670   57.4490 C.2   111  TYR111      0.2264
     77  O        -36.8550  -36.8750   57.7120 O.2   111  TYR111     -0.2867
     78  CB       -34.7170  -35.4750   59.5090 C.3   111  TYR111      0.0534
     79  CG       -33.5010  -35.8780   60.2980 C.ar  111  TYR111     -0.0201
     80  CD1      -32.3710  -35.0590   60.3610 C.ar  111  TYR111     -0.0009
     81  CD2      -33.4730  -37.0960   60.9760 C.ar  111  TYR111     -0.0009
     82  CE1      -31.2540  -35.4410   61.0930 C.ar  111  TYR111      0.0417
     83  CE2      -32.3610  -37.4900   61.7030 C.ar  111  TYR111      0.0417
     84  CZ       -31.2630  -36.6640   61.7680 C.ar  111  TYR111      0.1957
     85  OH       -30.1910  -37.0990   62.4990 O.3   111  TYR111     -0.2866
     86  N        -35.6980  -38.7900   55.1120 N.3   114  ARG114     -0.1245
     87  CA       -35.5480  -40.0350   55.8500 C.3   114  ARG114      0.1563
     88  C        -36.9310  -40.6430   56.0560 C.2   114  ARG114      0.2260
     89  O        -37.1370  -41.8350   55.8270 O.2   114  ARG114     -0.2867
     90  CB       -34.8730  -39.7840   57.1990 C.3   114  ARG114      0.0307
     91  CG       -33.3650  -39.9730   57.1830 C.3   114  ARG114      0.0489
     92  CD       -32.6940  -39.1590   58.2770 C.3   114  ARG114      0.2205
     93  NE       -31.3350  -38.7680   57.9140 N.pl3 114  ARG114     -0.0865
     94  CZ       -30.2570  -39.0560   58.6350 C.cat 114  ARG114      0.5346
     95  NH1      -29.0590  -38.6600   58.2270 N.pl3 114  ARG114      0.1354
     96  NH2      -30.3760  -39.7410   59.7640 N.pl3 114  ARG114      0.1354
     97  N        -28.2950  -43.0000   53.5070 N.3   120  ALA120     -0.1231
     98  CA       -26.9250  -43.1280   53.0010 C.3   120  ALA120      0.1694
     99  C        -26.6620  -44.4820   52.3600 C.2   120  ALA120      0.2591
    100  O        -27.2520  -45.5000   52.7390 O.2   120  ALA120     -0.2718
    101  CB       -25.9210  -42.8890   54.1210 C.3   120  ALA120      0.0304
    102  N        -25.7670  -44.4640   51.3780 N.am  121  ALA121     -0.1980
    103  CA       -25.3970  -45.6390   50.5930 C.3   121  ALA121      0.1597
    104  C        -26.5680  -46.2720   49.8360 C.2   121  ALA121      0.2287
    105  O        -26.4850  -47.4480   49.4680 O.2   121  ALA121     -0.2864
    106  CB       -24.6720  -46.6770   51.4560 C.3   121  ALA121      0.0319
    107  N        -17.7600  -31.3520   48.0980 N.3   141  PHE141     -0.1241
    108  CA       -16.8380  -31.8550   49.1330 C.3   141  PHE141      0.1605
    109  C        -15.9030  -30.8030   49.7410 C.2   141  PHE141      0.2264
    110  O        -15.5200  -30.9220   50.9070 O.2   141  PHE141     -0.2867
    111  CB       -15.9920  -33.0050   48.5860 C.3   141  PHE141      0.0534
    112  CG       -16.7800  -34.2530   48.2770 C.ar  141  PHE141     -0.0203
    113  CD1      -17.2030  -35.1000   49.3020 C.ar  141  PHE141     -0.0042
    114  CD2      -17.0850  -34.5970   46.9570 C.ar  141  PHE141     -0.0042
    115  CE1      -17.9220  -36.2570   49.0160 C.ar  141  PHE141     -0.0003
    116  CE2      -17.8000  -35.7560   46.6700 C.ar  141  PHE141     -0.0003
    117  CZ       -18.2210  -36.5860   47.7000 C.ar  141  PHE141     -0.0000
    118  N        -14.0800  -38.5180   60.9560 N.3   166  SER166     -0.1217
    119  CA       -14.3100  -38.1060   59.5820 C.3   166  SER166      0.1889
    120  C        -14.4110  -36.5920   59.5860 C.2   166  SER166      0.2288
    121  O        -13.8530  -35.9380   60.4730 O.2   166  SER166     -0.2866
    122  CB       -15.5740  -38.7740   59.0140 C.3   166  SER166      0.2089
    123  OG       -16.7480  -38.0260   59.2930 O.3   166  SER166     -0.2183
    124  N        -17.4840  -35.0410   59.7690 N.3   168  ASP168     -0.1225
    125  CA       -18.6400  -34.7660   60.6510 C.3   168  ASP168      0.1805
    126  C        -18.4630  -35.2410   62.1060 C.2   168  ASP168      0.2597
    127  O        -19.2660  -34.8900   62.9720 O.2   168  ASP168     -0.2718
    128  CB       -19.9280  -35.3800   60.0440 C.3   168  ASP168      0.1424
    129  CG       -20.4360  -36.6160   60.8090 C.2   168  ASP168      0.3668
    130  OD1      -19.7690  -37.6730   60.8110 O.co2 168  ASP168     -0.2456
    131  OD2      -21.5190  -36.5220   61.4130 O.co2 168  ASP168     -0.2456
    132  N        -17.4060  -36.0080   62.3640 N.am  169  GLU169     -0.1979
    133  CA       -17.3190  -36.8700   63.5310 C.3   169  GLU169      0.1602
    134  C        -15.9940  -36.6610   64.2820 C.2   169  GLU169      0.2287
    135  O        -14.9570  -36.4080   63.6580 O.2   169  GLU169     -0.2864
    136  CB       -17.4480  -38.3150   63.0460 C.3   169  GLU169      0.0415
    137  CG       -17.8680  -39.3080   64.1010 C.3   169  GLU169      0.1163
    138  CD       -18.6200  -40.4820   63.5280 C.2   169  GLU169      0.3649
    139  OE1      -19.6430  -40.2470   62.8360 O.co2 169  GLU169     -0.2457
    140  OE2      -18.1880  -41.6280   63.7940 O.co2 169  GLU169     -0.2457
    141  N        -25.8210  -40.9720   69.1890 N.3   238  ASP238     -0.1239
    142  CA       -26.9220  -41.2280   68.2570 C.3   238  ASP238      0.1674
    143  C        -28.3200  -41.2660   68.9200 C.2   238  ASP238      0.2266
    144  O        -29.3300  -41.2900   68.2210 O.2   238  ASP238     -0.2867
    145  CB       -26.6440  -42.5580   67.5310 C.3   238  ASP238      0.1410
    146  CG       -27.3580  -42.6670   66.1900 C.2   238  ASP238      0.3668
    147  OD1      -26.9820  -41.9430   65.2400 O.co2 238  ASP238     -0.2456
    148  OD2      -28.2830  -43.4980   66.0810 O.co2 238  ASP238     -0.2456
    149  N        -30.3750  -37.7460   68.7980 N.3   241  LYS241     -0.1245
    150  CA       -30.0710  -37.1230   67.5260 C.3   241  LYS241      0.1561
    151  C        -31.3950  -36.8700   66.7980 C.2   241  LYS241      0.2260
    152  O        -32.2620  -37.7460   66.8330 O.2   241  LYS241     -0.2867
    153  CB       -29.2010  -38.0890   66.7270 C.3   241  LYS241      0.0271
    154  CG       -28.7220  -37.5910   65.3840 C.3   241  LYS241      0.0035
    155  CD       -27.7180  -38.5560   64.7650 C.3   241  LYS241      0.0206
    156  CE       -26.3080  -38.3680   65.3120 C.3   241  LYS241      0.1093
    157  NZ       -25.6720  -37.1110   64.8260 N.3   241  LYS241     -0.1314
@<TRIPOS>BOND
     1    60    58    1
     2   116   114   ar
     3   116   117   ar
     4    53    54    1
     5   114   112   ar
     6    58    59    1
     7    58    57    1
     8   117   115   ar
     9    54    57    1
    10    54    55    1
    11   107   108    1
    12   112   111    1
    13   112   113   ar
    14   111   108    1
    15    55    61   am
    16    55    56    2
    17   115   113   ar
    18   108   109    1
    19    61    62    1
    20   105   104    2
    21   109   110    2
    22   104   103    1
    23    66    65    1
    24    65    62    1
    25    62    63    1
    26   103   102    1
    27   103   106    1
    28    70    69    2
    29   102    99   am
    30    63    67   am
    31    63    64    2
    32    67    68    1
    33    48    50   ar
    34    48    46   ar
    35    50    51   ar
    36    99   100    2
    37    99    98    1
    38    69    68    1
    39    45    46    1
    40    45    42    1
    41    44    43    2
    42    46    47   ar
    43    68    71    1
    44    98    97    1
    45    98   101    1
    46    51    52    1
    47    51    49   ar
    48    43    42    1
    49    73    71    1
    50    42    41    1
    51    47    49   ar
    52    71    72    1
    53    86    87    1
    54    41    32   am
    55    89    88    2
    56    87    88    1
    57    87    90    1
    58    33    32    2
    59    32    31    1
    60    28    27    2
    61    39    37   ar
    62    39    40   ar
    63    91    90    1
    64    91    92    1
    65    37    35   ar
    66    74    75    1
    67    76    77    2
    68    76    75    1
    69    27    30   am
    70    27    26    1
    71    40    38   ar
    72    31    34    1
    73    31    30    1
    74    35    34    1
    75    35    36   ar
    76    93    92    1
    77    93    94    2
    78    29    26    1
    79    38    36   ar
    80    75    78    1
    81    95    94    1
    82    26    25    1
    83    94    96    1
    84   122   123    1
    85   122   119    1
    86    78    79    1
    87   119   120    1
    88   119   118    1
    89   120   121    2
    90    25    19   am
    91   124   125    1
    92    20    19    2
    93   128   125    1
    94   128   129    1
    95    79    80   ar
    96    79    81   ar
    97    80    82   ar
    98    19    18    1
    99   125   126    1
   100   129   130   ar
   101   129   131   ar
   102    81    83   ar
   103    82    84   ar
   104    13    14    1
   105    13    10    1
   106    83    84   ar
   107    84    85    1
   108    12    11    2
   109    18    17    1
   110    18    21    1
   111    14    15    1
   112   126   132   am
   113   126   127    2
   114    17    11   am
   115    11    10    1
   116   132   133    1
   117    15    16    1
   118    21    22    1
   119    10     9    1
   120   139   138   ar
   121   136   133    1
   122   136   137    1
   123     7     6   ar
   124     9     3   am
   125   138   140   ar
   126   138   137    1
   127   133   134    1
   128     8     6   ar
   129   135   134    2
   130     6     5    1
   131    22    23   ar
   132    22    24   ar
   133     3     2    1
   134     3     4    2
   135   155   156    1
   136   155   154    1
   137   157   156    1
   138     2     5    1
   139     2     1    1
   140   147   146   ar
   141   154   153    1
   142   148   146   ar
   143   146   145    1
   144   153   150    1
   145   151   152    2
   146   151   150    1
   147   150   149    1
   148   145   142    1
   149   144   143    2
   150   142   143    1
   151   142   141    1
