@<TRIPOS>MOLECULE
tmp/5w2eB00.pdb
 227 216 0 0 0
SMALL
GASTEIGER

@<TRIPOS>ATOM
      1  N         40.9180    5.5840    6.6160 N.3   188  PHE188     -0.1241
      2  CA        40.1500    4.4320    7.1000 C.3   188  PHE188      0.1605
      3  C         40.9600    3.3400    7.7830 C.2   188  PHE188      0.2264
      4  O         40.3680    2.3490    8.1840 O.2   188  PHE188     -0.2867
      5  CB        39.3050    3.8140    5.9780 C.3   188  PHE188      0.0534
      6  CG        38.1250    4.6270    5.5000 C.ar  188  PHE188     -0.0203
      7  CD1       37.0940    4.9640    6.3660 C.ar  188  PHE188     -0.0042
      8  CD2       38.0070    4.9940    4.1670 C.ar  188  PHE188     -0.0042
      9  CE1       35.9890    5.6900    5.9100 C.ar  188  PHE188     -0.0003
     10  CE2       36.9110    5.7400    3.7180 C.ar  188  PHE188     -0.0003
     11  CZ        35.9110    6.0810    4.5920 C.ar  188  PHE188     -0.0000
     12  N         40.4230    6.0860   16.1250 N.3   192  PRO192     -0.2116
     13  CA        40.4600    7.5330   16.4250 C.3   192  PRO192      0.1372
     14  C         41.7880    8.0230   17.0410 C.2   192  PRO192      0.2244
     15  O         42.2990    9.0550   16.6150 O.2   192  PRO192     -0.2868
     16  CB        39.2470    7.7280   17.3190 C.3   192  PRO192      0.0268
     17  CG        38.2870    6.6780   16.8370 C.3   192  PRO192      0.0207
     18  CD        39.1520    5.4810   16.5820 C.3   192  PRO192      0.0892
     19  N         44.5640    8.2770   14.3650 N.3   195  ARG195     -0.1245
     20  CA        44.2840    9.4390   13.5230 C.3   195  ARG195      0.1563
     21  C         44.8200   10.7440   14.1370 C.2   195  ARG195      0.2260
     22  O         45.4540   11.5260   13.4200 O.2   195  ARG195     -0.2867
     23  CB        42.7810    9.5430   13.2380 C.3   195  ARG195      0.0307
     24  CG        42.4740   10.3560   11.9830 C.3   195  ARG195      0.0489
     25  CD        40.9950   10.5490   11.7780 C.3   195  ARG195      0.2205
     26  NE        40.2310    9.3510   12.1260 N.pl3 195  ARG195     -0.0865
     27  CZ        39.8210    8.4320   11.2590 C.cat 195  ARG195      0.5346
     28  NH1       40.0860    8.5650    9.9620 N.pl3 195  ARG195      0.1354
     29  NH2       39.1290    7.3780   11.6790 N.pl3 195  ARG195      0.1354
     30  N         47.8240   13.1820   12.6790 N.3   199  LEU199     -0.1245
     31  CA        47.7260   14.6030   12.3550 C.3   199  LEU199      0.1561
     32  C         48.7220   15.4420   13.0820 C.2   199  LEU199      0.2260
     33  O         49.2780   16.3630   12.4800 O.2   199  LEU199     -0.2867
     34  CB        46.3200   15.1500   12.5630 C.3   199  LEU199      0.0270
     35  CG        45.2230   14.4770   11.7680 C.3   199  LEU199      0.0019
     36  CD1       43.8900   14.7620   12.3800 C.3   199  LEU199      0.0001
     37  CD2       45.2530   14.9120   10.3210 C.3   199  LEU199      0.0001
     38  N         45.3380   13.6490    4.1930 N.3   309  LEU309     -0.1245
     39  CA        44.4960   12.6320    4.7790 C.3   309  LEU309      0.1561
     40  C         43.1810   12.6100    4.0550 C.2   309  LEU309      0.2260
     41  O         42.4840   13.6200    3.9800 O.2   309  LEU309     -0.2867
     42  CB        44.3270   12.8720    6.2760 C.3   309  LEU309      0.0270
     43  CG        43.7410   11.7420    7.1060 C.3   309  LEU309      0.0019
     44  CD1       44.4230   10.4160    6.8180 C.3   309  LEU309      0.0001
     45  CD2       43.8170   12.0900    8.5660 C.3   309  LEU309      0.0001
     46  N         39.5260   10.5370    3.5400 N.3   311  ASN311     -0.1240
     47  CA        38.5290    9.6610    4.1390 C.3   311  ASN311      0.1653
     48  C         37.3160    9.8230    3.2630 C.2   311  ASN311      0.2266
     49  O         36.5680   10.7790    3.4460 O.2   311  ASN311     -0.2867
     50  CB        38.1980   10.1010    5.5670 C.3   311  ASN311      0.1155
     51  CG        38.6040    9.1190    6.6280 C.2   311  ASN311      0.2627
     52  OD1       39.6590    9.2860    7.2220 O.2   311  ASN311     -0.2716
     53  ND2       37.7790    8.1200    6.9330 N.am  311  ASN311     -0.0877
     54  N         36.1150   13.4630    2.2390 N.3   314  ASP314     -0.1239
     55  CA        36.7060   14.3890    3.1840 C.3   314  ASP314      0.1674
     56  C         38.2230   14.3710    3.0300 C.2   314  ASP314      0.2266
     57  O         38.8540   13.3240    3.1560 O.2   314  ASP314     -0.2867
     58  CB        36.2680   14.0360    4.6070 C.3   314  ASP314      0.1410
     59  CG        34.7580   14.0000    4.7670 C.2   314  ASP314      0.3668
     60  OD1       34.1350   15.0920    4.7940 O.co2 314  ASP314     -0.2456
     61  OD2       34.1930   12.8770    4.8420 O.co2 314  ASP314     -0.2456
     62  N         41.9860   16.5350    3.9310 N.3   316  VAL316     -0.1245
     63  CA        42.7760   17.4810    4.7040 C.3   316  VAL316      0.1561
     64  C         44.1700   17.4660    4.1620 C.2   316  VAL316      0.2260
     65  O         44.7230   16.3920    3.9530 O.2   316  VAL316     -0.2867
     66  CB        42.7270   17.2420    6.2120 C.3   316  VAL316      0.0252
     67  CG1       43.9810   17.7820    6.9140 C.3   316  VAL316      0.0019
     68  CG2       41.4780   17.8780    6.7870 C.3   316  VAL316      0.0019
     69  N         46.5070   23.4520   14.2790 N.3   355  LEU355     -0.1245
     70  CA        45.8840   22.1460   14.0150 C.3   355  LEU355      0.1561
     71  C         44.4800   22.0580   14.5790 C.2   355  LEU355      0.2260
     72  O         43.5890   21.5340   13.9190 O.2   355  LEU355     -0.2867
     73  CB        46.7500   20.9660   14.4950 C.3   355  LEU355      0.0270
     74  CG        46.1850   19.5560   14.2350 C.3   355  LEU355      0.0019
     75  CD1       46.0910   19.2360   12.7300 C.3   355  LEU355      0.0001
     76  CD2       46.9930   18.5040   14.9570 C.3   355  LEU355      0.0001
     77  N         41.3440   23.2010   12.1060 N.3   358  ILE358     -0.1245
     78  CA        40.9220   22.4970   10.9100 C.3   358  ILE358      0.1561
     79  C         39.7310   21.6220   11.2850 C.2   358  ILE358      0.2260
     80  O         39.7900   20.9270   12.3030 O.2   358  ILE358     -0.2867
     81  CB        42.0790   21.6830   10.2860 C.3   358  ILE358      0.0252
     82  CG1       43.2150   22.6040    9.8250 C.3   358  ILE358      0.0019
     83  CG2       41.5700   20.8230    9.1080 C.3   358  ILE358      0.0019
     84  CD1       44.5580   21.9170    9.5950 C.3   358  ILE358      0.0001
     85  N         37.2590   18.5780    9.6570 N.3   360  SER360     -0.1202
     86  CA        37.0220   17.5560    8.6290 C.3   360  SER360      0.2020
     87  C         36.3040   16.3820    9.2570 C.2   360  SER360      0.2619
     88  O         36.6710   15.9710   10.3630 O.2   360  SER360     -0.2717
     89  CB        38.3260   17.0950    8.0070 C.3   360  SER360      0.2103
     90  OG        38.0920   16.1060    7.0190 O.3   360  SER360     -0.2182
     91  N         35.2860   15.8350    8.5450 N.am  361  CYS361     -0.1969
     92  CA        34.3810   14.7690    9.0100 C.3   361  CYS361      0.1712
     93  C         33.5930   15.3020   10.2140 C.2   361  CYS361      0.2296
     94  O         33.2490   14.5360   11.1170 O.2   361  CYS361     -0.2864
     95  CB        35.1220   13.4730    9.3440 C.3   361  CYS361      0.0983
     96  SG        35.5000   12.4340    7.9110 S.3   361  CYS361     -0.0798
     97  N         34.6480   16.9970   12.5720 N.3   363  SER363     -0.1202
     98  CA        35.5780   16.9120   13.6920 C.3   363  SER363      0.2020
     99  C         36.7900   17.8150   13.5760 C.2   363  SER363      0.2619
    100  O         37.0960   18.3030   12.4990 O.2   363  SER363     -0.2717
    101  CB        36.0700   15.4810   13.8420 C.3   363  SER363      0.2103
    102  OG        34.9730   14.6020   13.9970 O.3   363  SER363     -0.2182
    103  N         37.5030   17.9690   14.7010 N.am  364  ASN364     -0.1960
    104  CA        38.7150   18.7600   14.9130 C.3   364  ASN364      0.1819
    105  C         39.4920   18.1660   16.1170 C.2   364  ASN364      0.2621
    106  O         38.9140   17.4300   16.9220 O.2   364  ASN364     -0.2715
    107  CB        38.3510   20.2140   15.1980 C.3   364  ASN364      0.1195
    108  CG        37.4440   20.3660   16.3920 C.2   364  ASN364      0.2630
    109  OD1       36.2210   20.2120   16.2870 O.2   364  ASN364     -0.2716
    110  ND2       38.0320   20.5940   17.5590 N.am  364  ASN364     -0.0877
    111  N         40.7710   18.5000   16.2500 N.am  365  VAL365     -0.1977
    112  CA        41.6510   18.0340   17.3330 C.3   365  VAL365      0.1596
    113  C         41.4650   18.9250   18.5710 C.2   365  VAL365      0.2287
    114  O         41.2200   20.1250   18.4270 O.2   365  VAL365     -0.2864
    115  CB        43.1350   18.0730   16.8660 C.3   365  VAL365      0.0276
    116  CG1       44.0950   17.5360   17.9260 C.3   365  VAL365      0.0022
    117  CG2       43.3220   17.3360   15.5460 C.3   365  VAL365      0.0022
    118  N         40.2050   13.5910   19.1910 N.3   379  LEU379     -0.1245
    119  CA        39.3100   14.1930   18.2040 C.3   379  LEU379      0.1561
    120  C         37.9520   14.4090   18.8710 C.2   379  LEU379      0.2260
    121  O         37.4230   13.5190   19.5600 O.2   379  LEU379     -0.2867
    122  CB        39.1270   13.3330   16.9310 C.3   379  LEU379      0.0270
    123  CG        40.2820   13.2600   15.9550 C.3   379  LEU379      0.0019
    124  CD1       40.0960   12.1160   15.0360 C.3   379  LEU379      0.0001
    125  CD2       40.4150   14.5160   15.1340 C.3   379  LEU379      0.0001
    126  N         31.6370    5.2310   21.0810 N.3   408  ILE408     -0.1231
    127  CA        32.8080    4.5330   20.5550 C.3   408  ILE408      0.1692
    128  C         33.7640    5.5010   19.8200 C.2   408  ILE408      0.2592
    129  O         34.9750    5.4280   20.0230 O.2   408  ILE408     -0.2718
    130  CB        32.3440    3.3230   19.6940 C.3   408  ILE408      0.0266
    131  CG1       31.9910    2.1350   20.5880 C.3   408  ILE408      0.0019
    132  CG2       33.3820    2.9140   18.7000 C.3   408  ILE408      0.0020
    133  CD1       30.7130    1.4420   20.2340 C.3   408  ILE408      0.0001
    134  N         33.2220    6.4100   18.9940 N.am  409  MET409     -0.1965
    135  CA        33.9850    7.4010   18.2160 C.3   409  MET409      0.1736
    136  C         34.5620    8.5410   19.0850 C.2   409  MET409      0.2616
    137  O         35.6810    9.0130   18.8210 O.2   409  MET409     -0.2715
    138  CB        33.0950    8.0270   17.1340 C.3   409  MET409      0.0427
    139  CG        32.7640    7.1140   15.9920 C.3   409  MET409      0.0599
    140  SD        31.9060    8.0460   14.6810 S.3   409  MET409     -0.1393
    141  CE        30.2540    7.6430   15.0260 C.3   409  MET409      0.0692
    142  N         33.7910    8.9890   20.1080 N.am  410  TYR410     -0.1974
    143  CA        34.1490   10.1280   20.9450 C.3   410  TYR410      0.1639
    144  C         34.2070    9.8450   22.4580 C.2   410  TYR410      0.2290
    145  O         33.9050   10.7420   23.2530 O.2   410  TYR410     -0.2864
    146  CB        33.2050   11.3110   20.6420 C.3   410  TYR410      0.0560
    147  CG        33.2460   11.7520   19.1960 C.ar  410  TYR410     -0.0198
    148  CD1       34.2640   12.5760   18.7260 C.ar  410  TYR410     -0.0009
    149  CD2       32.2780   11.3300   18.2940 C.ar  410  TYR410     -0.0009
    150  CE1       34.3200   12.9660   17.3860 C.ar  410  TYR410      0.0417
    151  CE2       32.3250   11.7040   16.9510 C.ar  410  TYR410      0.0417
    152  CZ        33.3520   12.5200   16.4980 C.ar  410  TYR410      0.1957
    153  OH        33.3960   12.8770   15.1670 O.3   410  TYR410     -0.2866
    154  N         28.3690    2.8670   12.0050 N.3   442  ILE442     -0.1231
    155  CA        29.4310    3.8470   12.1520 C.3   442  ILE442      0.1692
    156  C         29.9860    4.1400   10.7740 C.2   442  ILE442      0.2592
    157  O         30.5660    3.2400   10.1530 O.2   442  ILE442     -0.2718
    158  CB        30.5670    3.3930   13.1170 C.3   442  ILE442      0.0266
    159  CG1       30.0270    2.7880   14.4340 C.3   442  ILE442      0.0019
    160  CG2       31.5350    4.5560   13.3810 C.3   442  ILE442      0.0020
    161  CD1       31.0950    2.2150   15.3960 C.3   442  ILE442      0.0001
    162  N         29.7930    5.3980   10.3000 N.am  443  TYR443     -0.1976
    163  CA        30.2840    6.0050    9.0420 C.3   443  TYR443      0.1639
    164  C         30.4680    5.0260    7.8490 C.2   443  TYR443      0.2290
    165  O         31.3840    5.1910    7.0430 O.2   443  TYR443     -0.2864
    166  CB        31.6020    6.7710    9.3260 C.3   443  TYR443      0.0560
    167  CG        31.4570    8.2190    9.7570 C.ar  443  TYR443     -0.0198
    168  CD1       30.4860    8.6020   10.6830 C.ar  443  TYR443     -0.0009
    169  CD2       32.3480    9.1900    9.3110 C.ar  443  TYR443     -0.0009
    170  CE1       30.3650    9.9290   11.1000 C.ar  443  TYR443      0.0417
    171  CE2       32.2470   10.5150    9.7320 C.ar  443  TYR443      0.0417
    172  CZ        31.2550   10.8820   10.6280 C.ar  443  TYR443      0.1957
    173  OH        31.1570   12.1870   11.0510 O.3   443  TYR443     -0.2866
    174  N         28.0640   -2.7140   13.1400 N.3   447  TYR447     -0.1241
    175  CA        28.7240   -3.4410   14.2140 C.3   447  TYR447      0.1605
    176  C         27.7360   -3.9020   15.2690 C.2   447  TYR447      0.2264
    177  O         26.9210   -3.1110   15.7250 O.2   447  TYR447     -0.2867
    178  CB        29.7970   -2.5460   14.8790 C.3   447  TYR447      0.0534
    179  CG        30.8520   -2.0160   13.9350 C.ar  447  TYR447     -0.0201
    180  CD1       32.0180   -2.7330   13.6880 C.ar  447  TYR447     -0.0009
    181  CD2       30.6870   -0.7930   13.2860 C.ar  447  TYR447     -0.0009
    182  CE1       32.9830   -2.2580   12.8000 C.ar  447  TYR447      0.0417
    183  CE2       31.6370   -0.3170   12.3820 C.ar  447  TYR447      0.0417
    184  CZ        32.7810   -1.0540   12.1380 C.ar  447  TYR447      0.1957
    185  OH        33.7230   -0.5750   11.2610 O.3   447  TYR447     -0.2866
    186  N         40.7260    1.5210   21.4010 N.3   461  LEU461     -0.1245
    187  CA        40.5150    2.5550   20.3720 C.3   461  LEU461      0.1561
    188  C         41.0620    3.9500   20.7520 C.2   461  LEU461      0.2260
    189  O         41.3210    4.7780   19.8590 O.2   461  LEU461     -0.2867
    190  CB        39.0180    2.6630   20.0260 C.3   461  LEU461      0.0270
    191  CG        38.5290    1.9530   18.7530 C.3   461  LEU461      0.0019
    192  CD1       38.7200    0.4510   18.8390 C.3   461  LEU461      0.0001
    193  CD2       37.0700    2.2030   18.5530 C.3   461  LEU461      0.0001
    194  N         37.9630   -4.1620   11.4530 N.3   545  TRP545     -0.1227
    195  CA        37.2440   -2.9580   11.8570 C.3   545  TRP545      0.1737
    196  C         37.7870   -1.7640   11.0830 C.2   545  TRP545      0.2595
    197  O         37.0520   -1.1280   10.3160 O.2   545  TRP545     -0.2718
    198  CB        37.4390   -2.7080   13.3650 C.3   545  TRP545      0.0564
    199  CG        36.3560   -3.2450   14.2470 C.ar  545  TRP545      0.0003
    200  CD1       35.7180   -4.4490   14.1380 C.ar  545  TRP545      0.0946
    201  CD2       35.8610   -2.6340   15.4400 C.ar  545  TRP545      0.0152
    202  NE1       34.8180   -4.6000   15.1630 N.ar  545  TRP545     -0.2442
    203  CE2       34.8910   -3.5040   15.9850 C.ar  545  TRP545      0.0810
    204  CE3       36.1230   -1.4180   16.0920 C.ar  545  TRP545      0.0012
    205  CZ2       34.1930   -3.2000   17.1600 C.ar  545  TRP545      0.0191
    206  CZ3       35.4270   -1.1170   17.2490 C.ar  545  TRP545      0.0001
    207  CH2       34.4740   -2.0000   17.7710 C.ar  545  TRP545      0.0015
    208  N         39.0950   -1.4830   11.2910 N.am  546  PHE546     -0.1976
    209  CA        39.8470   -0.3660   10.7310 C.3   546  PHE546      0.1639
    210  C         40.7920   -0.7670    9.6130 C.2   546  PHE546      0.2290
    211  O         41.7930   -0.0940    9.4020 O.2   546  PHE546     -0.2864
    212  CB        40.6310    0.3500   11.8420 C.3   546  PHE546      0.0560
    213  CG        39.7760    0.8680   12.9570 C.ar  546  PHE546     -0.0200
    214  CD1       39.0950    2.0680   12.8270 C.ar  546  PHE546     -0.0042
    215  CD2       39.6470    0.1570   14.1380 C.ar  546  PHE546     -0.0042
    216  CE1       38.2910    2.5450   13.8590 C.ar  546  PHE546     -0.0003
    217  CE2       38.8420    0.6330   15.1690 C.ar  546  PHE546     -0.0003
    218  CZ        38.1790    1.8280   15.0270 C.ar  546  PHE546     -0.0000
    219  N         39.5820   -0.9110    6.6440 N.3   548  ALA548     -0.1231
    220  CA        38.9070   -0.0390    5.6780 C.3   548  ALA548      0.1694
    221  C         37.5160    0.4240    6.1390 C.2   548  ALA548      0.2592
    222  O         37.0080   -0.0080    7.1810 O.2   548  ALA548     -0.2718
    223  CB        38.7850   -0.7560    4.3320 C.3   548  ALA548      0.0304
    224  N         36.9370    1.3110    5.3290 N.am  549  GLY549     -0.1957
    225  CA        35.5910    1.8510    5.4710 C.3   549  GLY549      0.1869
    226  C         34.7150    1.2850    4.3700 C.2   549  GLY549      0.2309
    227  O         35.2230    0.9560    3.2890 O.2   549  GLY549     -0.2863
@<TRIPOS>BOND
     1    54    55    1
     2    56    57    2
     3    56    55    1
     4    55    58    1
     5    48    49    2
     6    48    47    1
     7   227   226    2
     8    46    47    1
     9    10     8   ar
    10    10    11   ar
    11    62    63    1
    12    65    64    2
    13    41    40    2
    14    40    39    1
    15    47    50    1
    16    64    63    1
    17     8     6   ar
    18    38    39    1
    19   223   220    1
    20   226   225    1
    21    11     9   ar
    22    58    59    1
    23    63    66    1
    24    59    60   ar
    25    59    61   ar
    26    39    42    1
    27   224   225    1
    28   224   221   am
    29     6     5    1
    30     6     7   ar
    31    50    51    1
    32   220   221    1
    33   220   219    1
    34     9     7   ar
    35     5     2    1
    36   221   222    2
    37    66    68    1
    38    66    67    1
    39    42    43    1
    40     1     2    1
    41    51    53   am
    42    51    52    2
    43    44    43    1
    44    90    89    1
    45   165   164    2
    46     2     3    1
    47    43    45    1
    48     3     4    2
    49   164   163    1
    50    96    95    1
    51    89    86    1
    52    91    92    1
    53    91    87   am
    54    86    87    1
    55    86    85    1
    56    92    95    1
    57    92    93    1
    58   163   166    1
    59   163   162    1
    60    83    81    1
    61    87    88    2
    62   169   171   ar
    63   169   167   ar
    64   166   167    1
    65   211   210    2
    66    84    82    1
    67   210   209    1
    68   171   172   ar
    69   167   168   ar
    70    82    81    1
    71    28    27    1
    72   157   156    2
    73    93    94    2
    74    81    78    1
    75   162   156   am
    76   197   196    2
    77    37    35    1
    78   172   173    1
    79   172   170   ar
    80   168   170   ar
    81   209   208    1
    82   209   212    1
    83   156   155    1
    84    78    79    1
    85    78    77    1
    86   196   208   am
    87   196   195    1
    88    27    29    1
    89    27    26    2
    90   185   184    1
    91    79    80    2
    92   194   195    1
    93    35    36    1
    94    35    34    1
    95    25    24    1
    96    25    26    1
    97   212   213    1
    98   195   198    1
    99    24    23    1
   100   154   155    1
   101   184   183   ar
   102   184   182   ar
   103   155   158    1
   104    31    34    1
   105    31    30    1
   106    31    32    1
   107   183   181   ar
   108    33    32    2
   109   100    99    2
   110    97    98    1
   111    75    74    1
   112   182   180   ar
   113   214   213   ar
   114   214   216   ar
   115   213   215   ar
   116   158   160    1
   117   158   159    1
   118   174   175    1
   119    23    20    1
   120   181   179   ar
   121   198   199    1
   122    22    21    2
   123    20    21    1
   124    20    19    1
   125    99    98    1
   126    99   103   am
   127   180   179   ar
   128    98   101    1
   129   101   102    1
   130   216   218   ar
   131    72    71    2
   132   179   178    1
   133    70    69    1
   134    70    73    1
   135    70    71    1
   136   200   199   ar
   137   200   202   ar
   138   215   217   ar
   139   175   178    1
   140   175   176    1
   141    74    73    1
   142    74    76    1
   143   199   201   ar
   144   159   161    1
   145   140   141    1
   146   140   139    1
   147   103   104    1
   148   104   107    1
   149   104   105    1
   150   218   217   ar
   151   124   123    1
   152   125   123    1
   153   202   203   ar
   154   153   152    1
   155   107   108    1
   156   176   177    2
   157   201   203   ar
   158   201   204   ar
   159   117   115    1
   160   123   122    1
   161   203   205   ar
   162   139   138    1
   163   204   206   ar
   164   105   111   am
   165   105   106    2
   166    12    13    1
   167    12    18    1
   168   111   112    1
   169   109   108    2
   170   108   110   am
   171    13    14    1
   172    13    16    1
   173   152   151   ar
   174   152   150   ar
   175    18    17    1
   176    15    14    2
   177    17    16    1
   178   115   112    1
   179   115   116    1
   180   122   119    1
   181   151   149   ar
   182   138   135    1
   183   205   207   ar
   184   206   207   ar
   185   112   113    1
   186   150   148   ar
   187   119   120    1
   188   119   118    1
   189   135   134    1
   190   135   136    1
   191   149   147   ar
   192   114   113    2
   193   193   191    1
   194   132   130    1
   195   148   147   ar
   196   191   192    1
   197   191   190    1
   198   137   136    2
   199   120   121    2
   200   134   128   am
   201   136   142   am
   202   147   146    1
   203   130   127    1
   204   130   131    1
   205   128   129    2
   206   128   127    1
   207   189   188    2
   208   190   187    1
   209   142   143    1
   210   133   131    1
   211   187   188    1
   212   187   186    1
   213   127   126    1
   214   146   143    1
   215   143   144    1
   216   144   145    2
