@<TRIPOS>MOLECULE
tmp/5w2iA01.pdb
 119 108 0 0 0
SMALL
GASTEIGER

@<TRIPOS>ATOM
      1  N         19.2070   22.9330   24.1490 N.3    14  GLN14      -0.1245
      2  CA        19.9080   22.2950   25.2570 C.3    14  GLN14       0.1566
      3  C         21.3120   21.8160   24.8610 C.2    14  GLN14       0.2260
      4  O         21.6130   21.6480   23.6850 O.2    14  GLN14      -0.2867
      5  CB        19.0930   21.1140   25.7600 C.3    14  GLN14       0.0367
      6  CG        17.9030   21.5050   26.6140 C.3    14  GLN14       0.0905
      7  CD        17.1130   20.2990   27.0330 C.2    14  GLN14       0.2608
      8  OE1       16.6570   19.5320   26.1940 O.2    14  GLN14      -0.2717
      9  NE2       16.9530   20.1120   28.3430 N.am   14  GLN14      -0.0878
     10  N         21.1610   16.6090   23.3130 N.3    18  ARG18      -0.1245
     11  CA        19.7240   16.9340   23.3490 C.3    18  ARG18       0.1563
     12  C         19.2910   18.0470   22.4050 C.2    18  ARG18       0.2260
     13  O         18.3470   17.8620   21.6250 O.2    18  ARG18      -0.2867
     14  CB        19.2810   17.2580   24.7730 C.3    18  ARG18       0.0307
     15  CG        19.2250   16.0030   25.6190 C.3    18  ARG18       0.0489
     16  CD        18.8400   16.3310   27.0390 C.3    18  ARG18       0.2205
     17  NE        19.8640   17.0750   27.7470 N.pl3  18  ARG18      -0.0865
     18  CZ        19.7490   17.4780   29.0080 C.cat  18  ARG18       0.5346
     19  NH1       18.6440   17.2110   29.7010 N.pl3  18  ARG18       0.1354
     20  NH2       20.7430   18.1530   29.5840 N.pl3  18  ARG18       0.1354
     21  N          4.1910   15.1890   30.9210 N.3    82  LYS82      -0.1245
     22  CA         5.1560   14.3090   30.3000 C.3    82  LYS82       0.1561
     23  C          4.4750   12.9740   30.0610 C.2    82  LYS82       0.2260
     24  O          3.7930   12.4510   30.9630 O.2    82  LYS82      -0.2867
     25  CB         6.3960   14.1280   31.2080 C.3    82  LYS82       0.0271
     26  CG         7.5130   13.3000   30.6050 C.3    82  LYS82       0.0035
     27  CD         8.7300   13.1740   31.5180 C.3    82  LYS82       0.0206
     28  CE         9.5630   14.4330   31.5590 C.3    82  LYS82       0.1093
     29  NZ        10.6690   14.3250   32.5510 N.3    82  LYS82      -0.1314
     30  N         10.9670    7.7400   30.9900 N.3    87  SER87      -0.1217
     31  CA        11.4430    9.0840   30.7080 C.3    87  SER87       0.1889
     32  C         12.9380    9.1380   30.4120 C.2    87  SER87       0.2288
     33  O         13.5250   10.2200   30.3200 O.2    87  SER87      -0.2866
     34  CB        11.0460   10.0430   31.8440 C.3    87  SER87       0.2089
     35  OG        11.6220    9.6780   33.0650 O.3    87  SER87      -0.2183
     36  N         21.8150    7.5750   34.5170 N.3    96  LYS96      -0.1245
     37  CA        20.7070    8.3590   33.9700 C.3    96  LYS96       0.1561
     38  C         19.3890    7.6190   34.1210 C.2    96  LYS96       0.2260
     39  O         18.3800    8.2210   34.4700 O.2    96  LYS96      -0.2867
     40  CB        20.9510    8.7090   32.4900 C.3    96  LYS96       0.0271
     41  CG        19.8180    9.4930   31.8300 C.3    96  LYS96       0.0035
     42  CD        19.5080   10.7940   32.5510 C.3    96  LYS96       0.0206
     43  CE        18.5640   11.6730   31.7490 C.3    96  LYS96       0.1093
     44  NZ        18.3570   13.0050   32.3900 N.3    96  LYS96      -0.1314
     45  N         18.4920    7.9900   37.7070 N.3    99  GLN99      -0.1231
     46  CA        18.0530    9.3560   37.9600 C.3    99  GLN99       0.1698
     47  C         16.6230    9.5450   37.5230 C.2    99  GLN99       0.2592
     48  O         15.7940   10.0520   38.2820 O.2    99  GLN99      -0.2718
     49  CB        18.8980   10.3970   37.2160 C.3    99  GLN99       0.0381
     50  CG        18.4060   11.8300   37.4510 C.3    99  GLN99       0.0905
     51  CD        18.4730   12.7200   36.2220 C.2    99  GLN99       0.2608
     52  OE1       17.9280   12.3960   35.1590 O.2    99  GLN99      -0.2717
     53  NE2       19.1120   13.8720   36.3720 N.am   99  GLN99      -0.0878
     54  N         16.3320    9.1500   36.2920 N.am  100  GLN100     -0.1979
     55  CA        15.0200    9.4250   35.7350 C.3   100  GLN100      0.1601
     56  C         13.9520    8.6160   36.4000 C.2   100  GLN100      0.2287
     57  O         12.9030    9.1480   36.7180 O.2   100  GLN100     -0.2864
     58  CB        14.9700    9.2990   34.1940 C.3   100  GLN100      0.0394
     59  CG        15.3000   10.6130   33.4890 C.3   100  GLN100      0.0908
     60  CD        14.4620   11.7770   34.0120 C.2   100  GLN100      0.2608
     61  OE1       13.2240   11.7360   34.0040 O.2   100  GLN100     -0.2717
     62  NE2       15.1340   12.7990   34.5180 N.am  100  GLN100     -0.0878
     63  N         13.2080   10.1940   39.7740 N.3   103  LYS103     -0.1245
     64  CA        12.4570   11.4460   39.7170 C.3   103  LYS103      0.1561
     65  C         10.9770   11.1470   39.8550 C.2   103  LYS103      0.2260
     66  O         10.2320   11.9320   40.4160 O.2   103  LYS103     -0.2867
     67  CB        12.7120   12.2090   38.4160 C.3   103  LYS103      0.0271
     68  CG        14.0680   12.8820   38.3760 C.3   103  LYS103      0.0035
     69  CD        14.0330   14.2270   39.0860 C.3   103  LYS103      0.0206
     70  CE        15.4220   14.8300   39.1230 C.3   103  LYS103      0.1093
     71  NZ        15.4170   16.2060   39.6870 N.3   103  LYS103     -0.1314
     72  N          7.0660   21.3410   39.6430 N.3   132  GLN132     -0.1245
     73  CA         7.3350   19.9530   39.3190 C.3   132  GLN132      0.1566
     74  C          7.0920   19.0110   40.5010 C.2   132  GLN132      0.2260
     75  O          6.8150   17.8340   40.2980 O.2   132  GLN132     -0.2867
     76  CB         8.7770   19.7920   38.8170 C.3   132  GLN132      0.0367
     77  CG         9.8140   20.4660   39.7140 C.3   132  GLN132      0.0905
     78  CD        11.1160   19.6970   39.8580 C.2   132  GLN132      0.2608
     79  OE1       11.9080   19.9780   40.7600 O.2   132  GLN132     -0.2717
     80  NE2       11.3500   18.7260   38.9760 N.am  132  GLN132     -0.0878
     81  N          5.0020   15.1220   40.7740 N.3   136  ARG136     -0.1245
     82  CA         5.8670   14.0410   41.3090 C.3   136  ARG136      0.1563
     83  C          5.3530   13.5010   42.6380 C.2   136  ARG136      0.2260
     84  O          5.7670   12.4090   43.0570 O.2   136  ARG136     -0.2867
     85  CB         7.3180   14.5300   41.4010 C.3   136  ARG136      0.0307
     86  CG         8.0330   14.5780   40.0490 C.3   136  ARG136      0.0489
     87  CD         9.3860   15.2740   40.1080 C.3   136  ARG136      0.2205
     88  NE        10.2460   14.6130   41.0980 N.pl3 136  ARG136     -0.0865
     89  CZ        11.3000   15.1540   41.6990 C.cat 136  ARG136      0.5346
     90  NH1       11.6850   16.3920   41.4250 N.pl3 136  ARG136      0.1354
     91  NH2       11.9800   14.4390   42.5810 N.pl3 136  ARG136      0.1354
     92  N         10.4000   11.2750   27.1700 N.3   186  ALA186     -0.1245
     93  CA        10.5280   12.5580   27.8820 C.3   186  ALA186      0.1562
     94  C          9.9030   13.7280   27.1320 C.2   186  ALA186      0.2260
     95  O         10.2880   14.8830   27.3250 O.2   186  ALA186     -0.2867
     96  CB        11.9810   12.8780   28.2630 C.3   186  ALA186      0.0290
     97  N          8.6350   19.2460   23.2120 N.3   208  ASP208     -0.1239
     98  CA         9.8480   18.8040   23.9030 C.3   208  ASP208      0.1674
     99  C         10.3990   17.5120   23.2830 C.2   208  ASP208      0.2266
    100  O         10.0340   16.4140   23.6740 O.2   208  ASP208     -0.2867
    101  CB         9.5930   18.7020   25.4170 C.3   208  ASP208      0.1410
    102  CG        10.8470   18.6810   26.2260 C.2   208  ASP208      0.3668
    103  OD1       11.9260   18.5350   25.6400 O.co2 208  ASP208     -0.2456
    104  OD2       10.7570   18.8000   27.4810 O.co2 208  ASP208     -0.2456
    105  N         13.7540   16.4600   22.5740 N.3   210  ALA210     -0.1231
    106  CA        15.1760   16.1510   22.7630 C.3   210  ALA210      0.1694
    107  C         15.4870   14.6500   22.8110 C.2   210  ALA210      0.2592
    108  O         16.6530   14.2710   22.7270 O.2   210  ALA210     -0.2718
    109  CB        15.6900   16.8380   24.0140 C.3   210  ALA210      0.0304
    110  N         14.4530   13.8070   22.9680 N.am  211  HIS211     -0.1976
    111  CA        14.6430   12.3630   23.0440 C.3   211  HIS211      0.1656
    112  C         13.6830   11.5830   22.1480 C.2   211  HIS211      0.2291
    113  O         13.0560   10.6070   22.5820 O.2   211  HIS211     -0.2864
    114  CB        14.5130   11.8710   24.5120 C.3   211  HIS211      0.0771
    115  CG        15.3470   12.6110   25.5070 C.ar  211  HIS211      0.0820
    116  ND1       16.5890   12.1700   25.9000 N.ar  211  HIS211     -0.2267
    117  CD2       15.0860   13.7090   26.2610 C.ar  211  HIS211      0.1154
    118  CE1       17.0870   12.9950   26.8020 C.ar  211  HIS211      0.1986
    119  NE2       16.1900   13.9270   27.0520 N.ar  211  HIS211     -0.2212
@<TRIPOS>BOND
     1    13    12    2
     2   112   113    2
     3   112   111    1
     4    12    11    1
     5   105   106    1
     6   108   107    2
     7   106   107    1
     8   106   109    1
     9   107   110   am
    10   110   111    1
    11   111   114    1
    12    97    98    1
    13    99   100    2
    14    99    98    1
    15    10    11    1
    16    11    14    1
    17     4     3    2
    18    98   101    1
    19     1     2    1
    20   114   115    1
    21    14    15    1
    22     3     2    1
    23     2     5    1
    24   101   102    1
    25   115   116   ar
    26   115   117   ar
    27    15    16    1
    28   103   102   ar
    29     5     6    1
    30   116   118   ar
    31     8     7    2
    32   102   104   ar
    33   117   119   ar
    34     6     7    1
    35   118   119   ar
    36     7     9   am
    37    16    17    1
    38    94    95    2
    39    94    93    1
    40    92    93    1
    41    17    18    2
    42    93    96    1
    43    18    20    1
    44    18    19    1
    45    23    22    1
    46    23    24    2
    47    22    21    1
    48    22    25    1
    49    33    32    2
    50    32    31    1
    51    26    25    1
    52    26    27    1
    53    31    30    1
    54    31    34    1
    55    27    28    1
    56    28    29    1
    57    43    44    1
    58    43    42    1
    59    41    40    1
    60    41    42    1
    61    34    35    1
    62    40    37    1
    63    59    60    1
    64    59    58    1
    65    37    38    1
    66    37    36    1
    67    61    60    2
    68    60    62   am
    69    38    39    2
    70    58    55    1
    71    52    51    2
    72    55    54    1
    73    55    56    1
    74    51    53   am
    75    51    50    1
    76    54    47   am
    77    56    57    2
    78    49    50    1
    79    49    46    1
    80    47    46    1
    81    47    48    2
    82    45    46    1
    83    68    67    1
    84    68    69    1
    85    67    64    1
    86    76    73    1
    87    76    77    1
    88    80    78   am
    89    69    70    1
    90    70    71    1
    91    73    72    1
    92    73    74    1
    93    77    78    1
    94    64    63    1
    95    64    65    1
    96    65    66    2
    97    78    79    2
    98    86    87    1
    99    86    85    1
   100    87    88    1
   101    75    74    2
   102    81    82    1
   103    88    89    2
   104    82    85    1
   105    82    83    1
   106    90    89    1
   107    89    91    1
   108    83    84    2
