@<TRIPOS>MOLECULE
tmp/5w2iA00.pdb
 133 122 0 0 0
SMALL
GASTEIGER

@<TRIPOS>ATOM
      1  N         13.0460   29.3730   27.9100 N.3     1  ILE1       -0.1245
      2  CA        11.9310   29.7250   26.9860 C.3     1  ILE1        0.1561
      3  C         11.6810   31.2280   27.0630 C.2     1  ILE1        0.2260
      4  O         11.3360   31.7430   28.1260 O.2     1  ILE1       -0.2867
      5  CB        10.6250   28.9800   27.3540 C.3     1  ILE1        0.0252
      6  CG1       10.8490   27.4610   27.3840 C.3     1  ILE1        0.0019
      7  CG2        9.5020   29.3370   26.3820 C.3     1  ILE1        0.0019
      8  CD1       11.0300   26.8210   26.0240 C.3     1  ILE1        0.0001
      9  N          7.6620   31.7440   20.4690 N.3     9  VAL9       -0.1245
     10  CA         8.5690   31.5620   21.5880 C.3     9  VAL9        0.1561
     11  C          9.9170   31.1280   20.9970 C.2     9  VAL9        0.2260
     12  O          9.9740   30.5140   19.9260 O.2     9  VAL9       -0.2867
     13  CB         8.0610   30.5020   22.6020 C.3     9  VAL9        0.0252
     14  CG1        6.7550   30.9320   23.2440 C.3     9  VAL9        0.0019
     15  CG2        7.8990   29.1300   21.9510 C.3     9  VAL9        0.0019
     16  N         13.0210   28.8160   22.0410 N.3    11  LYS11      -0.1245
     17  CA        13.5110   27.7800   22.9500 C.3    11  LYS11       0.1561
     18  C         14.9860   27.5780   22.7210 C.2    11  LYS11       0.2260
     19  O         15.4060   27.1580   21.6310 O.2    11  LYS11      -0.2867
     20  CB        12.8040   26.4380   22.7240 C.3    11  LYS11       0.0271
     21  CG        13.2950   25.3810   23.7080 C.3    11  LYS11       0.0035
     22  CD        12.6100   24.0480   23.5840 C.3    11  LYS11       0.0206
     23  CE        13.3120   23.0380   24.4840 C.3    11  LYS11       0.1093
     24  NZ        12.6130   21.7360   24.5150 N.3    11  LYS11      -0.1314
     25  N         19.2070   22.9330   24.1490 N.3    14  GLN14      -0.1245
     26  CA        19.9080   22.2950   25.2570 C.3    14  GLN14       0.1566
     27  C         21.3120   21.8160   24.8610 C.2    14  GLN14       0.2260
     28  O         21.6130   21.6480   23.6850 O.2    14  GLN14      -0.2867
     29  CB        19.0930   21.1140   25.7600 C.3    14  GLN14       0.0367
     30  CG        17.9030   21.5050   26.6140 C.3    14  GLN14       0.0905
     31  CD        17.1130   20.2990   27.0330 C.2    14  GLN14       0.2608
     32  OE1       16.6570   19.5320   26.1940 O.2    14  GLN14      -0.2717
     33  NE2       16.9530   20.1120   28.3430 N.am   14  GLN14      -0.0878
     34  N          3.8170   22.5550   17.6930 N.3    47  PRO47      -0.2116
     35  CA         3.9040   23.9840   17.3960 C.3    47  PRO47       0.1372
     36  C          4.4260   24.1820   15.9660 C.2    47  PRO47       0.2244
     37  O          5.2530   23.4000   15.5140 O.2    47  PRO47      -0.2868
     38  CB         4.9460   24.4900   18.3830 C.3    47  PRO47       0.0268
     39  CG         5.0600   23.4300   19.4410 C.3    47  PRO47       0.0207
     40  CD         4.8110   22.1460   18.6970 C.3    47  PRO47       0.0892
     41  N          9.4400   28.8830   17.5980 N.3    66  LEU66      -0.1231
     42  CA         8.2320   28.0820   17.5830 C.3    66  LEU66       0.1693
     43  C          6.9970   28.9590   17.7950 C.2    66  LEU66       0.2592
     44  O          7.0720   29.9370   18.5100 O.2    66  LEU66      -0.2718
     45  CB         8.2660   27.0790   18.7460 C.3    66  LEU66       0.0284
     46  CG         9.4510   26.0980   18.8180 C.3    66  LEU66       0.0019
     47  CD1        9.3660   25.2590   20.0850 C.3    66  LEU66       0.0001
     48  CD2        9.4400   25.2400   17.5770 C.3    66  LEU66       0.0001
     49  N          5.8650   28.5390   17.2320 N.am   67  GLU67      -0.1966
     50  CA         4.5480   29.0560   17.6000 C.3    67  GLU67       0.1733
     51  C          4.3270   29.0570   19.1150 C.2    67  GLU67       0.2616
     52  O          4.6070   28.0610   19.7790 O.2    67  GLU67      -0.2715
     53  CB         3.4760   28.1730   16.9630 C.3    67  GLU67       0.0429
     54  CG         2.0470   28.4870   17.3860 C.3    67  GLU67       0.1163
     55  CD         1.0350   27.5100   16.8150 C.2    67  GLU67       0.3649
     56  OE1        1.4240   26.5240   16.1400 O.co2  67  GLU67      -0.2457
     57  OE2       -0.1740   27.7240   17.0480 O.co2  67  GLU67      -0.2457
     58  N          3.8740   30.1830   19.6610 N.am   68  ASP68      -0.1957
     59  CA         3.4430   30.2520   21.0560 C.3    68  ASP68       0.1840
     60  C          2.0020   29.7540   21.0610 C.2    68  ASP68       0.2622
     61  O          1.0930   30.4520   20.6100 O.2    68  ASP68      -0.2715
     62  CB         3.5470   31.6770   21.6140 C.3    68  ASP68       0.1450
     63  CG         3.1120   31.7710   23.0750 C.2    68  ASP68       0.3671
     64  OD1        2.5140   30.8010   23.5850 O.co2  68  ASP68      -0.2456
     65  OD2        3.3470   32.8330   23.7020 O.co2  68  ASP68      -0.2456
     66  N          1.8290   28.5200   21.5460 N.am   69  VAL69      -0.1963
     67  CA         0.5450   27.8060   21.5750 C.3    69  VAL69       0.1727
     68  C         -0.4940   28.5250   22.4270 C.2    69  VAL69       0.2616
     69  O         -1.6970   28.2850   22.2680 O.2    69  VAL69      -0.2715
     70  CB         0.7740   26.3330   22.0360 C.3    69  VAL69       0.0290
     71  CG1       -0.5310   25.6090   22.3020 C.3    69  VAL69       0.0023
     72  CG2        1.5960   25.6060   20.9740 C.3    69  VAL69       0.0023
     73  N         -0.0400   29.4230   23.3010 N.am   70  THR70      -0.1951
     74  CA        -0.9320   30.1600   24.1960 C.3    70  THR70       0.1897
     75  C         -1.3870   31.5230   23.6420 C.2    70  THR70       0.2313
     76  O         -2.2390   32.1840   24.2430 O.2    70  THR70      -0.2863
     77  CB        -0.2730   30.4060   25.5740 C.3    70  THR70       0.1794
     78  OG1        0.7480   31.4190   25.4540 O.3    70  THR70      -0.2208
     79  CG2        0.3190   29.1010   26.1670 C.3    70  THR70       0.0378
     80  N         -2.6560   26.6150   31.5650 N.3    78  ILE78      -0.1245
     81  CA        -1.6310   25.8240   30.8840 C.3    78  ILE78       0.1561
     82  C         -1.2070   24.6800   31.7850 C.2    78  ILE78       0.2260
     83  O         -0.9550   24.8950   32.9710 O.2    78  ILE78      -0.2867
     84  CB        -0.3880   26.6870   30.5530 C.3    78  ILE78       0.0252
     85  CG1       -0.7800   27.9470   29.8060 C.3    78  ILE78       0.0019
     86  CG2        0.6120   25.9000   29.7280 C.3    78  ILE78       0.0019
     87  CD1        0.2370   29.0560   29.9740 C.3    78  ILE78       0.0001
     88  N          1.5360   21.1770   31.5240 N.3    80  ASP80      -0.1239
     89  CA         2.4890   20.3910   30.7550 C.3    80  ASP80       0.1674
     90  C          2.4830   19.0190   31.4150 C.2    80  ASP80       0.2266
     91  O          2.7140   18.9150   32.6230 O.2    80  ASP80      -0.2867
     92  CB         3.8680   21.0510   30.8250 C.3    80  ASP80       0.1410
     93  CG         4.9600   20.2660   30.1200 C.2    80  ASP80       0.3668
     94  OD1        4.8890   19.0220   30.0820 O.co2  80  ASP80      -0.2456
     95  OD2        5.9580   20.9010   29.6910 O.co2  80  ASP80      -0.2456
     96  N          4.0600   18.0220   34.9150 N.3   115  LEU115     -0.1245
     97  CA         5.2820   18.7970   35.1420 C.3   115  LEU115      0.1561
     98  C          4.9940   20.1260   35.7870 C.2   115  LEU115      0.2260
     99  O          5.8300   20.6770   36.4930 O.2   115  LEU115     -0.2867
    100  CB         6.0420   19.0160   33.8430 C.3   115  LEU115      0.0270
    101  CG         6.4960   17.7560   33.1110 C.3   115  LEU115      0.0019
    102  CD1        7.2810   18.1050   31.8450 C.3   115  LEU115      0.0001
    103  CD2        7.2830   16.8720   34.0610 C.3   115  LEU115      0.0001
    104  N          6.2400   15.7990   25.9540 N.3   188  SER188     -0.1217
    105  CA         5.0730   16.2600   26.7000 C.3   188  SER188      0.1889
    106  C          3.8820   16.6060   25.8120 C.2   188  SER188      0.2288
    107  O          4.0250   16.8410   24.6130 O.2   188  SER188     -0.2866
    108  CB         5.4340   17.5210   27.5000 C.3   188  SER188      0.2089
    109  OG         6.2400   17.2090   28.6130 O.3   188  SER188     -0.2183
    110  N          1.1660   19.6990   25.9110 N.3   190  LEU190     -0.1245
    111  CA         0.8570   21.0000   26.4760 C.3   190  LEU190      0.1561
    112  C         -0.6350   21.2400   26.2730 C.2   190  LEU190      0.2260
    113  O         -1.1180   21.2760   25.1200 O.2   190  LEU190     -0.2867
    114  CB         1.6620   22.0970   25.7810 C.3   190  LEU190      0.0270
    115  CG         1.5740   23.4850   26.4150 C.3   190  LEU190      0.0019
    116  CD1        2.1730   23.4640   27.8060 C.3   190  LEU190      0.0001
    117  CD2        2.2760   24.4960   25.5120 C.3   190  LEU190      0.0001
    118  N          5.0300   18.7340   22.6200 N.3   207  ILE207     -0.1231
    119  CA         6.2650   19.5130   22.7070 C.3   207  ILE207      0.1692
    120  C          7.4250   18.7000   23.3370 C.2   207  ILE207      0.2592
    121  O          7.1860   17.6220   23.9310 O.2   207  ILE207     -0.2718
    122  CB         6.0790   20.8180   23.5280 C.3   207  ILE207      0.0266
    123  CG1        5.7110   20.5540   24.9960 C.3   207  ILE207      0.0019
    124  CG2        5.0390   21.7280   22.8620 C.3   207  ILE207      0.0020
    125  CD1        5.8220   21.7630   25.8870 C.3   207  ILE207      0.0001
    126  N          8.6350   19.2460   23.2120 N.am  208  ASP208     -0.1974
    127  CA         9.8480   18.8040   23.9030 C.3   208  ASP208      0.1709
    128  C         10.3990   17.5120   23.2830 C.2   208  ASP208      0.2293
    129  O         10.0340   16.4140   23.6740 O.2   208  ASP208     -0.2864
    130  CB         9.5930   18.7020   25.4170 C.3   208  ASP208      0.1436
    131  CG        10.8470   18.6810   26.2260 C.2   208  ASP208      0.3671
    132  OD1       11.9260   18.5350   25.6400 O.co2 208  ASP208     -0.2456
    133  OD2       10.7570   18.8000   27.4810 O.co2 208  ASP208     -0.2456
@<TRIPOS>BOND
     1    37    36    2
     2    36    35    1
     3    56    55   ar
     4    55    57   ar
     5    55    54    1
     6    53    54    1
     7    53    50    1
     8    49    50    1
     9    49    43   am
    10    35    34    1
    11    35    38    1
    12    48    46    1
    13    42    41    1
    14    42    43    1
    15    42    45    1
    16    50    51    1
    17    34    40    1
    18    43    44    2
    19    38    39    1
    20    40    39    1
    21    45    46    1
    22    46    47    1
    23    51    58   am
    24    51    52    2
    25    58    59    1
    26    12    11    2
    27     9    10    1
    28    61    60    2
    29    72    70    1
    30    11    10    1
    31    59    60    1
    32    59    62    1
    33    60    66   am
    34    66    67    1
    35    67    70    1
    36    67    68    1
    37    10    13    1
    38    62    63    1
    39    19    18    2
    40    15    13    1
    41    70    71    1
    42    16    17    1
    43    69    68    2
    44    68    73   am
    45    13    14    1
    46   118   119    1
    47   119   120    1
    48   119   122    1
    49    18    17    1
    50    20    17    1
    51    20    21    1
    52   124   122    1
    53    63    64   ar
    54    63    65   ar
    55   126   120   am
    56   126   127    1
    57   128   129    2
    58   128   127    1
    59    73    74    1
    60   120   121    2
    61   122   123    1
    62    22    21    1
    63    22    23    1
    64    75    74    1
    65    75    76    2
    66    28    27    2
    67   127   130    1
    68    25    26    1
    69    74    77    1
    70    23    24    1
    71   107   106    2
    72    27    26    1
    73   123   125    1
    74   113   112    2
    75    26    29    1
    76   130   131    1
    77    78    77    1
    78   117   115    1
    79    77    79    1
    80   132   131   ar
    81    29    30    1
    82   114   115    1
    83   114   111    1
    84   106   105    1
    85   110   111    1
    86   104   105    1
    87     8     6    1
    88    32    31    2
    89   131   133   ar
    90   112   111    1
    91     7     5    1
    92   115   116    1
    93    30    31    1
    94   105   108    1
    95     2     3    1
    96     2     5    1
    97     2     1    1
    98    31    33   am
    99     3     4    2
   100     5     6    1
   101   108   109    1
   102    95    93   ar
   103    86    84    1
   104    85    87    1
   105    85    84    1
   106    94    93   ar
   107    93    92    1
   108    84    81    1
   109    89    92    1
   110    89    90    1
   111    89    88    1
   112    81    80    1
   113    81    82    1
   114    90    91    2
   115    82    83    2
   116   102   101    1
   117   101   100    1
   118   101   103    1
   119   100    97    1
   120    96    97    1
   121    97    98    1
   122    98    99    2
