@<TRIPOS>MOLECULE
tmp/5w2pA02.pdb
 94 92 0 0 0
SMALL
GASTEIGER

@<TRIPOS>ATOM
      1  N         35.5010  -21.0220  -26.4440 N.3    90  GLY90      -0.1225
      2  CA        35.2550  -22.3910  -26.8750 C.3    90  GLY90       0.1811
      3  C         34.7600  -23.2790  -25.7500 C.2    90  GLY90       0.2280
      4  O         33.8910  -24.1330  -25.9580 O.2    90  GLY90      -0.2866
      5  N         30.9980  -22.4330  -25.2080 N.3    93  TRP93      -0.1241
      6  CA        30.1100  -22.9660  -26.2330 C.3    93  TRP93       0.1605
      7  C         29.9190  -24.4660  -26.0650 C.2    93  TRP93       0.2264
      8  O         28.7900  -24.9630  -26.1480 O.2    93  TRP93      -0.2867
      9  CB        30.6510  -22.6510  -27.6230 C.3    93  TRP93       0.0550
     10  CG        29.5640  -22.4780  -28.6270 C.ar   93  TRP93       0.0003
     11  CD1       29.3230  -23.2590  -29.7240 C.ar   93  TRP93       0.0946
     12  CD2       28.5570  -21.4570  -28.6290 C.ar   93  TRP93       0.0152
     13  NE1       28.2300  -22.7790  -30.4080 N.ar   93  TRP93      -0.2442
     14  CE2       27.7400  -21.6780  -29.7540 C.ar   93  TRP93       0.0810
     15  CE3       28.2640  -20.3790  -27.7790 C.ar   93  TRP93       0.0012
     16  CZ2       26.6560  -20.8580  -30.0600 C.ar   93  TRP93       0.0191
     17  CZ3       27.1820  -19.5690  -28.0810 C.ar   93  TRP93       0.0001
     18  CH2       26.3940  -19.8120  -29.2130 C.ar   93  TRP93       0.0015
     19  N         27.0230  -26.6850  -27.5660 N.3    98  SER98      -0.1203
     20  CA        27.3720  -26.1940  -28.8970 C.3    98  SER98       0.2005
     21  C         26.1320  -25.8720  -29.7490 C.2    98  SER98       0.2461
     22  O         25.9990  -26.3900  -30.8630 O.2    98  SER98      -0.2732
     23  CB        28.2850  -27.1780  -29.6200 C.3    98  SER98       0.2103
     24  OG        29.4550  -27.4300  -28.8650 O.3    98  SER98      -0.2182
     25  N         25.2430  -25.0060  -29.2680 N.am   99  PRO99      -0.2717
     26  CA        24.0000  -24.7570  -30.0120 C.3    99  PRO99       0.1535
     27  C         24.2580  -24.1080  -31.3620 C.2    99  PRO99       0.2598
     28  O         25.2530  -23.4120  -31.5700 O.2    99  PRO99      -0.2715
     29  CB        23.2160  -23.8160  -29.0910 C.3    99  PRO99       0.0310
     30  CG        24.2730  -23.1260  -28.2710 C.3    99  PRO99       0.0237
     31  CD        25.3680  -24.1380  -28.0830 C.3    99  PRO99       0.0939
     32  N         23.3450  -24.3670  -32.2970 N.am  100  GLU100     -0.1964
     33  CA        23.2840  -23.6290  -33.5470 C.3   100  GLU100      0.1733
     34  C         22.2930  -22.4990  -33.3360 C.2   100  GLU100      0.2616
     35  O         21.1000  -22.7420  -33.1380 O.2   100  GLU100     -0.2715
     36  CB        22.8660  -24.5270  -34.7070 C.3   100  GLU100      0.0429
     37  CG        23.9600  -25.4390  -35.1990 C.3   100  GLU100      0.1163
     38  CD        23.4650  -26.3930  -36.2630 C.2   100  GLU100      0.3649
     39  OE1       23.0270  -25.9130  -37.3300 O.co2 100  GLU100     -0.2457
     40  OE2       23.4980  -27.6200  -36.0280 O.co2 100  GLU100     -0.2457
     41  N         22.7940  -21.2690  -33.3140 N.am  101  VAL101     -0.1977
     42  CA        21.9520  -20.1010  -33.1270 C.3   101  VAL101      0.1596
     43  C         21.9700  -19.2970  -34.4180 C.2   101  VAL101      0.2287
     44  O         22.8040  -19.5030  -35.3030 O.2   101  VAL101     -0.2864
     45  CB        22.4110  -19.2340  -31.9280 C.3   101  VAL101      0.0276
     46  CG1       22.4110  -20.0540  -30.6440 C.3   101  VAL101      0.0022
     47  CG2       23.7840  -18.6450  -32.1820 C.3   101  VAL101      0.0022
     48  N         23.1790  -16.4270  -36.3180 N.3   103  PRO103     -0.2116
     49  CA        24.2710  -15.4490  -36.1280 C.3   103  PRO103      0.1372
     50  C         23.7860  -14.0120  -36.0670 C.2   103  PRO103      0.2244
     51  O         24.3780  -13.1900  -35.3530 O.2   103  PRO103     -0.2868
     52  CB        25.1710  -15.6800  -37.3510 C.3   103  PRO103      0.0268
     53  CG        24.7790  -17.0410  -37.8760 C.3   103  PRO103      0.0207
     54  CD        23.3270  -17.1930  -37.5670 C.3   103  PRO103      0.0892
     55  N         34.2380  -13.7260  -33.7940 N.3   154  LEU154     -0.1231
     56  CA        34.6550  -14.4190  -35.0090 C.3   154  LEU154      0.1693
     57  C         34.6730  -15.9270  -34.7970 C.2   154  LEU154      0.2592
     58  O         34.2760  -16.6920  -35.6810 O.2   154  LEU154     -0.2718
     59  CB        36.0380  -13.9180  -35.4340 C.3   154  LEU154      0.0284
     60  CG        36.6520  -14.4680  -36.7270 C.3   154  LEU154      0.0019
     61  CD1       35.7360  -14.1980  -37.9090 C.3   154  LEU154      0.0001
     62  CD2       38.0380  -13.8750  -36.9650 C.3   154  LEU154      0.0001
     63  N         35.1220  -16.3680  -33.6250 N.am  155  GLN155     -0.1966
     64  CA        35.1670  -17.7980  -33.3450 C.3   155  GLN155      0.1733
     65  C         33.7670  -18.3960  -33.3050 C.2   155  GLN155      0.2616
     66  O         33.5460  -19.4860  -33.8390 O.2   155  GLN155     -0.2715
     67  CB        35.9050  -18.0350  -32.0250 C.3   155  GLN155      0.0408
     68  CG        35.5280  -19.3030  -31.2480 C.3   155  GLN155      0.0908
     69  CD        36.1350  -19.3130  -29.8390 C.2   155  GLN155      0.2608
     70  OE1       35.9600  -18.3660  -29.0630 O.2   155  GLN155     -0.2717
     71  NE2       36.8460  -20.3780  -29.5070 N.am  155  GLN155     -0.0878
     72  N         32.8030  -17.6980  -32.6870 N.am  156  LEU156     -0.1963
     73  CA        31.4760  -18.2680  -32.4750 C.3   156  LEU156      0.1728
     74  C         30.4370  -17.8040  -33.4890 C.2   156  LEU156      0.2616
     75  O         29.3240  -18.3450  -33.4960 O.2   156  LEU156     -0.2715
     76  CB        30.9750  -17.9530  -31.0540 C.3   156  LEU156      0.0311
     77  CG        31.8850  -18.4060  -29.9040 C.3   156  LEU156      0.0022
     78  CD1       31.3810  -17.8680  -28.5670 C.3   156  LEU156      0.0001
     79  CD2       31.9950  -19.9310  -29.8670 C.3   156  LEU156      0.0001
     80  N         30.7560  -16.8180  -34.3300 N.am  157  GLY157     -0.1955
     81  CA        29.8400  -16.3740  -35.3660 C.3   157  GLY157      0.1869
     82  C         28.7540  -15.4210  -34.8980 C.2   157  GLY157      0.2309
     83  O         27.5830  -15.6080  -35.2440 O.2   157  GLY157     -0.2863
     84  N         26.8940  -11.9620  -35.0500 N.3   159  ARG159     -0.1245
     85  CA        26.7290  -10.8910  -36.0260 C.3   159  ARG159      0.1563
     86  C         25.6880   -9.8580  -35.6080 C.2   159  ARG159      0.2260
     87  O         25.3370   -8.9830  -36.4150 O.2   159  ARG159     -0.2867
     88  CB        26.3910  -11.4930  -37.3930 C.3   159  ARG159      0.0307
     89  CG        27.5320  -12.3290  -37.9150 C.3   159  ARG159      0.0489
     90  CD        27.3300  -12.8210  -39.3460 C.3   159  ARG159      0.2205
     91  NE        28.5620  -13.4590  -39.8000 N.pl3 159  ARG159     -0.0865
     92  CZ        28.7550  -14.7740  -39.8450 C.cat 159  ARG159      0.5346
     93  NH1       27.7870  -15.6070  -39.4860 N.pl3 159  ARG159      0.1354
     94  NH2       29.9230  -15.2550  -40.2470 N.pl3 159  ARG159      0.1354
@<TRIPOS>BOND
     1    94    92    1
     2    92    91    2
     3    92    93    1
     4    91    90    1
     5    90    89    1
     6    89    88    1
     7    61    60    1
     8    53    54    1
     9    53    52    1
    10    54    48    1
    11    88    85    1
    12    52    49    1
    13    39    38   ar
    14    62    60    1
    15    60    59    1
    16    87    86    2
    17    48    49    1
    18    38    40   ar
    19    38    37    1
    20    49    50    1
    21    50    51    2
    22    85    86    1
    23    85    84    1
    24    58    57    2
    25    59    56    1
    26    81    82    1
    27    81    80    1
    28    44    43    2
    29    83    82    2
    30    37    36    1
    31    56    57    1
    32    56    55    1
    33    57    63   am
    34    36    33    1
    35    43    42    1
    36    80    74   am
    37    66    65    2
    38    63    64    1
    39    33    34    1
    40    33    32    1
    41    75    74    2
    42    74    73    1
    43    64    65    1
    44    64    67    1
    45    34    41   am
    46    34    35    2
    47    41    42    1
    48    65    72   am
    49    42    45    1
    50    72    73    1
    51    73    76    1
    52    32    27   am
    53    47    45    1
    54    67    68    1
    55    45    46    1
    56    28    27    2
    57    27    26    1
    58    68    69    1
    59    76    77    1
    60    22    21    2
    61    13    14   ar
    62    13    11   ar
    63    16    14   ar
    64    16    18   ar
    65    26    25    1
    66    26    29    1
    67    77    79    1
    68    77    78    1
    69    69    71   am
    70    69    70    2
    71    14    12   ar
    72    21    25   am
    73    21    20    1
    74    11    10   ar
    75    23    20    1
    76    23    24    1
    77    25    31    1
    78    18    17   ar
    79    29    30    1
    80    20    19    1
    81    12    10   ar
    82    12    15   ar
    83    10     9    1
    84    30    31    1
    85    17    15   ar
    86     9     6    1
    87     2     1    1
    88     2     3    1
    89     6     7    1
    90     6     5    1
    91     8     7    2
    92     4     3    2
