@<TRIPOS>MOLECULE
tmp/5w2pA00.pdb
 148 146 0 0 0
SMALL
GASTEIGER

@<TRIPOS>ATOM
      1  N         47.6320  -11.7690  -25.1880 N.3    80  TYR80      -0.1227
      2  CA        47.2490  -12.6460  -24.0890 C.3    80  TYR80       0.1736
      3  C         45.7330  -12.6470  -23.8760 C.2    80  TYR80       0.2595
      4  O         45.1160  -13.7130  -23.7620 O.2    80  TYR80      -0.2718
      5  CB        47.9830  -12.2460  -22.8060 C.3    80  TYR80       0.0548
      6  CG        47.5940  -13.1210  -21.6300 C.ar   80  TYR80      -0.0200
      7  CD1       48.3180  -14.2630  -21.3160 C.ar   80  TYR80      -0.0009
      8  CD2       46.4860  -12.8210  -20.8530 C.ar   80  TYR80      -0.0009
      9  CE1       47.9620  -15.0750  -20.2540 C.ar   80  TYR80       0.0417
     10  CE2       46.1170  -13.6340  -19.7940 C.ar   80  TYR80       0.0417
     11  CZ        46.8650  -14.7610  -19.5010 C.ar   80  TYR80       0.1957
     12  OH        46.5070  -15.5710  -18.4270 O.3    80  TYR80      -0.2866
     13  N         45.1110  -11.4660  -23.8070 N.am   81  VAL81      -0.1980
     14  CA        43.6850  -11.4470  -23.4800 C.3    81  VAL81       0.1595
     15  C         42.8670  -12.0660  -24.6070 C.2    81  VAL81       0.2287
     16  O         41.7830  -12.6140  -24.3670 O.2    81  VAL81      -0.2864
     17  CB        43.1820  -10.0260  -23.1470 C.3    81  VAL81       0.0276
     18  CG1       43.8410   -9.4930  -21.8400 C.3    81  VAL81       0.0022
     19  CG2       43.3510   -9.0700  -24.3410 C.3    81  VAL81       0.0022
     20  N         42.3780   -3.2210  -20.0800 N.3   114  LEU114     -0.1231
     21  CA        43.4860   -2.5730  -20.7760 C.3   114  LEU114      0.1693
     22  C         43.5620   -2.9820  -22.2430 C.2   114  LEU114      0.2592
     23  O         43.4790   -2.1340  -23.1330 O.2   114  LEU114     -0.2718
     24  CB        44.8030   -2.8820  -20.0550 C.3   114  LEU114      0.0284
     25  CG        46.0570   -2.2100  -20.5920 C.3   114  LEU114      0.0019
     26  CD1       45.8710   -0.6860  -20.6330 C.3   114  LEU114      0.0001
     27  CD2       47.2430   -2.5770  -19.7130 C.3   114  LEU114      0.0001
     28  N         43.6960   -4.2760  -22.5290 N.am  115  GLY115     -0.1957
     29  CA        43.7610   -4.7480  -23.9030 C.3   115  GLY115      0.1869
     30  C         45.0560   -5.5030  -24.1720 C.2   115  GLY115      0.2309
     31  O         45.6620   -6.0580  -23.2490 O.2   115  GLY115     -0.2863
     32  N         48.1410   -4.9770  -24.3680 N.3   117  ALA117     -0.1231
     33  CA        49.1710   -3.9660  -24.1220 C.3   117  ALA117      0.1694
     34  C         50.5850   -4.5020  -24.3010 C.2   117  ALA117      0.2591
     35  O         51.4840   -3.7410  -24.6820 O.2   117  ALA117     -0.2718
     36  CB        49.0140   -3.3910  -22.7120 C.3   117  ALA117      0.0304
     37  N         50.8200   -5.7880  -24.0050 N.am  118  GLU118     -0.1979
     38  CA        52.1650   -6.3350  -24.1820 C.3   118  GLU118      0.1602
     39  C         52.5900   -6.3070  -25.6460 C.2   118  GLU118      0.2287
     40  O         53.7880   -6.2730  -25.9500 O.2   118  GLU118     -0.2864
     41  CB        52.2410   -7.7670  -23.6230 C.3   118  GLU118      0.0415
     42  CG        51.7820   -8.8620  -24.5910 C.3   118  GLU118      0.1163
     43  CD        50.2810   -9.0560  -24.6020 C.2   118  GLU118      0.3649
     44  OE1       49.5590   -8.1660  -24.0990 O.co2 118  GLU118     -0.2457
     45  OE2       49.8120  -10.0980  -25.1240 O.co2 118  GLU118     -0.2457
     46  N         41.2440  -10.5770  -18.6350 N.3   197  GLU197     -0.1231
     47  CA        42.2320   -9.6720  -18.0570 C.3   197  GLU197      0.1699
     48  C         43.6030  -10.3320  -18.1230 C.2   197  GLU197      0.2593
     49  O         43.7190  -11.5620  -18.1400 O.2   197  GLU197     -0.2718
     50  CB        41.8840   -9.3150  -16.6030 C.3   197  GLU197      0.0402
     51  CG        42.6890   -8.1520  -16.0260 C.3   197  GLU197      0.1161
     52  CD        42.6340   -6.9430  -16.9400 C.2   197  GLU197      0.3649
     53  OE1       41.6010   -6.2430  -16.9300 O.co2 197  GLU197     -0.2457
     54  OE2       43.6060   -6.7130  -17.6940 O.co2 197  GLU197     -0.2457
     55  N         44.6450   -9.4980  -18.1140 N.am  198  GLY198     -0.1943
     56  CA        45.9960   -9.9890  -18.2310 C.3   198  GLY198      0.1998
     57  C         46.5290  -10.5570  -16.9290 C.2   198  GLY198      0.2481
     58  O         45.8660  -10.5620  -15.8860 O.2   198  GLY198     -0.2729
     59  N         47.7710  -11.0290  -16.9780 N.am  199  PRO199     -0.2715
     60  CA        48.3650  -11.7040  -15.8250 C.3   199  PRO199      0.1536
     61  C         49.0770  -10.7390  -14.8800 C.2   199  PRO199      0.2598
     62  O         49.2970   -9.5640  -15.1890 O.2   199  PRO199     -0.2715
     63  CB        49.3700  -12.6630  -16.4830 C.3   199  PRO199      0.0310
     64  CG        49.8640  -11.8650  -17.6610 C.3   199  PRO199      0.0237
     65  CD        48.6480  -11.0990  -18.1650 C.3   199  PRO199      0.0939
     66  N         49.4420  -11.2760  -13.7120 N.am  200  ILE200     -0.1964
     67  CA        50.2280  -10.5480  -12.7180 C.3   200  ILE200      0.1727
     68  C         51.6670  -10.4510  -13.1990 C.2   200  ILE200      0.2616
     69  O         52.3090  -11.4730  -13.4640 O.2   200  ILE200     -0.2715
     70  CB        50.1730  -11.2510  -11.3510 C.3   200  ILE200      0.0290
     71  CG1       48.7280  -11.3600  -10.8600 C.3   200  ILE200      0.0022
     72  CG2       51.0870  -10.5230  -10.3350 C.3   200  ILE200      0.0023
     73  CD1       48.5370  -12.3230   -9.6830 C.3   200  ILE200      0.0001
     74  N         52.1880   -9.2270  -13.2900 N.am  201  GLU201     -0.1977
     75  CA        53.6060   -9.0000  -13.5580 C.3   201  GLU201      0.1602
     76  C         54.0680   -7.8280  -12.7070 C.2   201  GLU201      0.2287
     77  O         53.3040   -7.2870  -11.9010 O.2   201  GLU201     -0.2864
     78  CB        53.8700   -8.7640  -15.0500 C.3   201  GLU201      0.0415
     79  CG        54.0540  -10.0660  -15.8390 C.3   201  GLU201      0.1163
     80  CD        54.2090   -9.8290  -17.3380 C.2   201  GLU201      0.3649
     81  OE1       54.6800   -8.7380  -17.7240 O.co2 201  GLU201     -0.2457
     82  OE2       53.8640  -10.7300  -18.1340 O.co2 201  GLU201     -0.2457
     83  N         52.3630   -4.0240  -13.3400 N.3   204  PRO204     -0.2116
     84  CA        51.0420   -3.8830  -12.7030 C.3   204  PRO204      0.1372
     85  C         51.1130   -3.8020  -11.1870 C.2   204  PRO204      0.2244
     86  O         50.4250   -2.9730  -10.5770 O.2   204  PRO204     -0.2868
     87  CB        50.2900   -5.1350  -13.1850 C.3   204  PRO204      0.0268
     88  CG        50.9560   -5.4980  -14.4840 C.3   204  PRO204      0.0207
     89  CD        52.3920   -5.1480  -14.3030 C.3   204  PRO204      0.0892
     90  N         49.7250   -0.2980   -9.2040 N.3   208  PHE208     -0.1241
     91  CA        48.6660   -0.2570   -8.1990 C.3   208  PHE208      0.1605
     92  C         49.2220   -0.0950   -6.7850 C.2   208  PHE208      0.2264
     93  O         48.5590    0.5070   -5.9300 O.2   208  PHE208     -0.2867
     94  CB        47.7990   -1.5090   -8.2990 C.3   208  PHE208      0.0534
     95  CG        46.8980   -1.5150   -9.5080 C.ar  208  PHE208     -0.0203
     96  CD1       45.6210   -0.9640   -9.4470 C.ar  208  PHE208     -0.0042
     97  CD2       47.3390   -2.0360  -10.7130 C.ar  208  PHE208     -0.0042
     98  CE1       44.7880   -0.9490  -10.5720 C.ar  208  PHE208     -0.0003
     99  CE2       46.5180   -2.0200  -11.8410 C.ar  208  PHE208     -0.0003
    100  CZ        45.2350   -1.4850  -11.7610 C.ar  208  PHE208     -0.0000
    101  N         45.9460   -9.1420   -6.1630 N.3   237  PHE237     -0.1227
    102  CA        45.6840   -9.6140   -7.5180 C.3   237  PHE237      0.1736
    103  C         45.3130  -11.0910   -7.4810 C.2   237  PHE237      0.2596
    104  O         46.0070  -11.8950   -6.8560 O.2   237  PHE237     -0.2718
    105  CB        46.9150   -9.4470   -8.4010 C.3   237  PHE237      0.0547
    106  CG        47.0520   -8.0880   -9.0430 C.ar  237  PHE237     -0.0202
    107  CD1       45.9460   -7.4180   -9.5420 C.ar  237  PHE237     -0.0042
    108  CD2       48.3090   -7.5000   -9.1550 C.ar  237  PHE237     -0.0042
    109  CE1       46.0840   -6.1700  -10.1520 C.ar  237  PHE237     -0.0003
    110  CE2       48.4650   -6.2470   -9.7500 C.ar  237  PHE237     -0.0003
    111  CZ        47.3530   -5.5770  -10.2430 C.ar  237  PHE237     -0.0000
    112  N         44.2420  -11.4500   -8.1710 N.am  238  GLY238     -0.1942
    113  CA        43.9810  -12.8490   -8.4480 C.3   238  GLY238      0.2014
    114  C         43.5370  -12.9600   -9.8880 C.2   238  GLY238      0.2638
    115  O         42.4720  -12.4380  -10.2360 O.2   238  GLY238     -0.2714
    116  N         44.3370  -13.6180  -10.7320 N.am  239  GLU239     -0.1977
    117  CA        44.0250  -13.7090  -12.1510 C.3   239  GLU239      0.1602
    118  C         42.7070  -14.4480  -12.3830 C.2   239  GLU239      0.2287
    119  O         42.3350  -15.3550  -11.6270 O.2   239  GLU239     -0.2864
    120  CB        45.1590  -14.4210  -12.8840 C.3   239  GLU239      0.0415
    121  CG        46.4890  -13.6680  -12.8110 C.3   239  GLU239      0.1163
    122  CD        47.6450  -14.4710  -13.3960 C.2   239  GLU239      0.3649
    123  OE1       47.3910  -15.4930  -14.0600 O.co2 239  GLU239     -0.2457
    124  OE2       48.8060  -14.0690  -13.2040 O.co2 239  GLU239     -0.2457
    125  N         41.5550   -9.9040   -6.9800 N.3   343  HIS343     -0.1226
    126  CA        41.0190   -8.9080   -7.8990 C.3   343  HIS343      0.1752
    127  C         41.6170   -9.1590   -9.2780 C.2   343  HIS343      0.2597
    128  O         42.8450   -9.1500   -9.4280 O.2   343  HIS343     -0.2718
    129  CB        41.3690   -7.5030   -7.3880 C.3   343  HIS343      0.0759
    130  CG        40.5810   -6.3940   -8.0180 C.ar  343  HIS343      0.0818
    131  ND1       39.7220   -6.5840   -9.0830 N.ar  343  HIS343     -0.2268
    132  CD2       40.5490   -5.0680   -7.7410 C.ar  343  HIS343      0.1154
    133  CE1       39.1940   -5.4230   -9.4310 C.ar  343  HIS343      0.1986
    134  NE2       39.6770   -4.4870   -8.6300 N.ar  343  HIS343     -0.2212
    135  N         40.7560   -9.3800  -10.2810 N.am  344  SER344     -0.1938
    136  CA        41.1800   -9.5300  -11.6750 C.3   344  SER344      0.2055
    137  C         40.7090   -8.3680  -12.5620 C.2   344  SER344      0.2642
    138  O         40.5190   -8.5410  -13.7700 O.2   344  SER344     -0.2714
    139  CB        40.6850  -10.8590  -12.2470 C.3   344  SER344      0.2130
    140  OG        39.3180  -11.0720  -11.9160 O.3   344  SER344     -0.2179
    141  N         40.5080   -7.1850  -11.9750 N.am  345  ILE345     -0.1977
    142  CA        40.1880   -5.9540  -12.7070 C.3   345  ILE345      0.1596
    143  C         39.0870   -6.1670  -13.7450 C.2   345  ILE345      0.2287
    144  O         37.9200   -6.3790  -13.3940 O.2   345  ILE345     -0.2864
    145  CB        41.4440   -5.3520  -13.3670 C.3   345  ILE345      0.0276
    146  CG1       42.6240   -5.3810  -12.3950 C.3   345  ILE345      0.0022
    147  CG2       41.1890   -3.8920  -13.7840 C.3   345  ILE345      0.0022
    148  CD1       42.3640   -4.6120  -11.1120 C.3   345  ILE345      0.0001
@<TRIPOS>BOND
     1    40    39    2
     2    39    38    1
     3     1     2    1
     4    45    43   ar
     5    35    34    2
     6    15    16    2
     7    15    14    1
     8    43    42    1
     9    43    44   ar
    10    42    41    1
    11    32    33    1
    12    19    17    1
    13    34    33    1
    14    34    37   am
    15    38    37    1
    16    38    41    1
    17    30    29    1
    18    30    31    2
    19    33    36    1
    20     2     3    1
    21     2     5    1
    22    29    28    1
    23     3    13   am
    24     3     4    2
    25    13    14    1
    26    14    17    1
    27    17    18    1
    28    23    22    2
    29     5     6    1
    30    28    22   am
    31    22    21    1
    32     6     7   ar
    33     6     8   ar
    34     7     9   ar
    35     8    10   ar
    36    21    20    1
    37    21    24    1
    38    26    25    1
    39    25    24    1
    40    25    27    1
    41     9    11   ar
    42    10    11   ar
    43    11    12    1
    44    46    47    1
    45    56    55    1
    46    56    57    1
    47    65    64    1
    48    65    59    1
    49    49    48    2
    50    82    80   ar
    51    48    55   am
    52    48    47    1
    53    47    50    1
    54    81    80   ar
    55    54    52   ar
    56    64    63    1
    57    80    79    1
    58    59    57   am
    59    59    60    1
    60    52    53   ar
    61    52    51    1
    62    57    58    2
    63    50    51    1
    64    63    60    1
    65    79    78    1
    66    60    61    1
    67    62    61    2
    68    78    75    1
    69    61    66   am
    70    88    89    1
    71    88    87    1
    72    89    83    1
    73   123   122   ar
    74   147   145    1
    75   138   137    2
    76   143   144    2
    77   143   142    1
    78    66    67    1
    79    75    74    1
    80    75    76    1
    81    69    68    2
    82   122   124   ar
    83   122   121    1
    84   145   142    1
    85   145   146    1
    86    83    84    1
    87    74    68   am
    88    68    67    1
    89    87    84    1
    90   120   121    1
    91   120   117    1
    92    67    70    1
    93    76    77    2
    94   142   141    1
    95    84    85    1
    96   137   141   am
    97   137   136    1
    98   146   148    1
    99   118   117    1
   100   118   119    2
   101   139   140    1
   102   139   136    1
   103   117   116    1
   104    99   100   ar
   105    99    97   ar
   106   100    98   ar
   107   136   135    1
   108    70    71    1
   109    70    72    1
   110    85    86    2
   111    71    73    1
   112   116   114   am
   113    97    95   ar
   114    98    96   ar
   115   135   127   am
   116   111   109   ar
   117   111   110   ar
   118   115   114    2
   119   109   107   ar
   120   114   113    1
   121   110   108   ar
   122   107   106   ar
   123    95    96   ar
   124    95    94    1
   125   133   131   ar
   126   133   134   ar
   127   128   127    2
   128   127   126    1
   129    90    91    1
   130   108   106   ar
   131   131   130   ar
   132   106   105    1
   133   134   132   ar
   134   113   112    1
   135   105   102    1
   136    94    91    1
   137    91    92    1
   138   112   103   am
   139   130   132   ar
   140   130   129    1
   141   126   129    1
   142   126   125    1
   143   102   103    1
   144   102   101    1
   145   103   104    2
   146    92    93    2
