@<TRIPOS>MOLECULE
tmp/5w2pA01.pdb
 95 88 0 0 0
SMALL
GASTEIGER

@<TRIPOS>ATOM
      1  N         40.2360   -4.5900  -18.9440 N.3   113  GLY113     -0.1210
      2  CA        40.7160   -3.3800  -18.3060 C.3   113  GLY113      0.1956
      3  C         41.6380   -2.5630  -19.1770 C.2   113  GLY113      0.2611
      4  O         41.6760   -1.3330  -19.0510 O.2   113  GLY113     -0.2717
      5  N         42.3780   -3.2210  -20.0800 N.am  114  LEU114     -0.1979
      6  CA        43.4860   -2.5730  -20.7760 C.3   114  LEU114      0.1596
      7  C         43.5620   -2.9820  -22.2430 C.2   114  LEU114      0.2287
      8  O         43.4790   -2.1340  -23.1330 O.2   114  LEU114     -0.2864
      9  CB        44.8030   -2.8820  -20.0550 C.3   114  LEU114      0.0297
     10  CG        46.0570   -2.2100  -20.5920 C.3   114  LEU114      0.0022
     11  CD1       45.8710   -0.6860  -20.6330 C.3   114  LEU114      0.0001
     12  CD2       47.2430   -2.5770  -19.7130 C.3   114  LEU114      0.0001
     13  N         48.1410   -4.9770  -24.3680 N.3   117  ALA117     -0.1231
     14  CA        49.1710   -3.9660  -24.1220 C.3   117  ALA117      0.1694
     15  C         50.5850   -4.5020  -24.3010 C.2   117  ALA117      0.2591
     16  O         51.4840   -3.7410  -24.6820 O.2   117  ALA117     -0.2718
     17  CB        49.0140   -3.3910  -22.7120 C.3   117  ALA117      0.0304
     18  N         50.8200   -5.7880  -24.0050 N.am  118  GLU118     -0.1979
     19  CA        52.1650   -6.3350  -24.1820 C.3   118  GLU118      0.1602
     20  C         52.5900   -6.3070  -25.6460 C.2   118  GLU118      0.2287
     21  O         53.7880   -6.2730  -25.9500 O.2   118  GLU118     -0.2864
     22  CB        52.2410   -7.7670  -23.6230 C.3   118  GLU118      0.0415
     23  CG        51.7820   -8.8620  -24.5910 C.3   118  GLU118      0.1163
     24  CD        50.2810   -9.0560  -24.6020 C.2   118  GLU118      0.3649
     25  OE1       49.5590   -8.1660  -24.0990 O.co2 118  GLU118     -0.2457
     26  OE2       49.8120  -10.0980  -25.1240 O.co2 118  GLU118     -0.2457
     27  N         54.4990   -2.8460  -26.4930 N.3   121  VAL121     -0.1245
     28  CA        55.9280   -2.7950  -26.2050 C.3   121  VAL121      0.1561
     29  C         56.7070   -3.6720  -27.1800 C.2   121  VAL121      0.2260
     30  O         57.7930   -3.2990  -27.6390 O.2   121  VAL121     -0.2867
     31  CB        56.1820   -3.1980  -24.7440 C.3   121  VAL121      0.0252
     32  CG1       57.6390   -2.9680  -24.3820 C.3   121  VAL121      0.0019
     33  CG2       55.2410   -2.4250  -23.8280 C.3   121  VAL121      0.0019
     34  N         37.6240   -0.2920  -16.0530 N.3   168  ALA168     -0.1245
     35  CA        38.4900   -0.8430  -15.0220 C.3   168  ALA168      0.1562
     36  C         37.8190   -2.0270  -14.3370 C.2   168  ALA168      0.2260
     37  O         37.4040   -2.9880  -15.0060 O.2   168  ALA168     -0.2867
     38  CB        38.8780    0.2460  -14.0130 C.3   168  ALA168      0.0290
     39  N         41.2440  -10.5770  -18.6350 N.3   197  GLU197     -0.1245
     40  CA        42.2320   -9.6720  -18.0570 C.3   197  GLU197      0.1567
     41  C         43.6030  -10.3320  -18.1230 C.2   197  GLU197      0.2260
     42  O         43.7190  -11.5620  -18.1400 O.2   197  GLU197     -0.2867
     43  CB        41.8840   -9.3150  -16.6030 C.3   197  GLU197      0.0388
     44  CG        42.6890   -8.1520  -16.0260 C.3   197  GLU197      0.1160
     45  CD        42.6340   -6.9430  -16.9400 C.2   197  GLU197      0.3649
     46  OE1       41.6010   -6.2430  -16.9300 O.co2 197  GLU197     -0.2457
     47  OE2       43.6060   -6.7130  -17.6940 O.co2 197  GLU197     -0.2457
     48  N         52.1880   -9.2270  -13.2900 N.3   201  GLU201     -0.1245
     49  CA        53.6060   -9.0000  -13.5580 C.3   201  GLU201      0.1567
     50  C         54.0680   -7.8280  -12.7070 C.2   201  GLU201      0.2260
     51  O         53.3040   -7.2870  -11.9010 O.2   201  GLU201     -0.2867
     52  CB        53.8700   -8.7640  -15.0500 C.3   201  GLU201      0.0388
     53  CG        54.0540  -10.0660  -15.8390 C.3   201  GLU201      0.1160
     54  CD        54.2090   -9.8290  -17.3380 C.2   201  GLU201      0.3649
     55  OE1       54.6800   -8.7380  -17.7240 O.co2 201  GLU201     -0.2457
     56  OE2       53.8640  -10.7300  -18.1340 O.co2 201  GLU201     -0.2457
     57  N         55.2450   -4.6190  -13.4040 N.3   203  LEU203     -0.1231
     58  CA        54.7280   -3.2700  -13.6180 C.3   203  LEU203      0.1678
     59  C         53.3190   -3.1150  -13.0690 C.2   203  LEU203      0.2434
     60  O         53.0670   -2.1210  -12.3630 O.2   203  LEU203     -0.2733
     61  CB        54.7870   -2.9040  -15.1020 C.3   203  LEU203      0.0284
     62  CG        54.2960   -1.4930  -15.4490 C.3   203  LEU203      0.0019
     63  CD1       54.9770   -0.4170  -14.5630 C.3   203  LEU203      0.0001
     64  CD2       54.5130   -1.2140  -16.9390 C.3   203  LEU203      0.0001
     65  N         52.3630   -4.0240  -13.3400 N.am  204  PRO204     -0.2729
     66  CA        51.0420   -3.8830  -12.7030 C.3   204  PRO204      0.1401
     67  C         51.1130   -3.8020  -11.1870 C.2   204  PRO204      0.2269
     68  O         50.4250   -2.9730  -10.5770 O.2   204  PRO204     -0.2865
     69  CB        50.2900   -5.1350  -13.1850 C.3   204  PRO204      0.0296
     70  CG        50.9560   -5.4980  -14.4840 C.3   204  PRO204      0.0237
     71  CD        52.3920   -5.1480  -14.3030 C.3   204  PRO204      0.0939
     72  N         52.3990   -0.3210  -10.2870 N.3   207  ALA207     -0.1231
     73  CA        51.4600    0.7590  -10.5820 C.3   207  ALA207      0.1694
     74  C         50.3480    0.8380   -9.5380 C.2   207  ALA207      0.2592
     75  O         50.0410    1.9200   -9.0260 O.2   207  ALA207     -0.2718
     76  CB        50.8760    0.5720  -11.9880 C.3   207  ALA207      0.0304
     77  N         49.7250   -0.2980   -9.2040 N.am  208  PHE208     -0.1976
     78  CA        48.6660   -0.2570   -8.1990 C.3   208  PHE208      0.1639
     79  C         49.2220   -0.0950   -6.7850 C.2   208  PHE208      0.2290
     80  O         48.5590    0.5070   -5.9300 O.2   208  PHE208     -0.2864
     81  CB        47.7990   -1.5090   -8.2990 C.3   208  PHE208      0.0560
     82  CG        46.8980   -1.5150   -9.5080 C.ar  208  PHE208     -0.0200
     83  CD1       45.6210   -0.9640   -9.4470 C.ar  208  PHE208     -0.0042
     84  CD2       47.3390   -2.0360  -10.7130 C.ar  208  PHE208     -0.0042
     85  CE1       44.7880   -0.9490  -10.5720 C.ar  208  PHE208     -0.0003
     86  CE2       46.5180   -2.0200  -11.8410 C.ar  208  PHE208     -0.0003
     87  CZ        45.2350   -1.4850  -11.7610 C.ar  208  PHE208     -0.0000
     88  N         40.5080   -7.1850  -11.9750 N.3   345  ILE345     -0.1245
     89  CA        40.1880   -5.9540  -12.7070 C.3   345  ILE345      0.1561
     90  C         39.0870   -6.1670  -13.7450 C.2   345  ILE345      0.2260
     91  O         37.9200   -6.3790  -13.3940 O.2   345  ILE345     -0.2867
     92  CB        41.4440   -5.3520  -13.3670 C.3   345  ILE345      0.0252
     93  CG1       42.6240   -5.3810  -12.3950 C.3   345  ILE345      0.0019
     94  CG2       41.1890   -3.8920  -13.7840 C.3   345  ILE345      0.0019
     95  CD1       42.3640   -4.6120  -11.1120 C.3   345  ILE345      0.0001
@<TRIPOS>BOND
     1    30    29    2
     2    29    28    1
     3    27    28    1
     4    28    31    1
     5    21    20    2
     6    20    19    1
     7    26    24   ar
     8    31    32    1
     9    31    33    1
    10    16    15    2
    11    24    23    1
    12    24    25   ar
    13    23    22    1
    14    13    14    1
    15    15    14    1
    16    15    18   am
    17    19    18    1
    18    19    22    1
    19    14    17    1
    20     8     7    2
    21     7     6    1
    22     6     5    1
    23     6     9    1
    24    11    10    1
    25    10     9    1
    26    10    12    1
    27     5     3   am
    28     3     4    2
    29     3     2    1
    30     1     2    1
    31    39    40    1
    32    42    41    2
    33    56    54   ar
    34    41    40    1
    35    40    43    1
    36    55    54   ar
    37    47    45   ar
    38    54    53    1
    39    45    46   ar
    40    45    44    1
    41    64    62    1
    42    43    44    1
    43    34    35    1
    44    53    52    1
    45    62    61    1
    46    62    63    1
    47    61    58    1
    48    52    49    1
    49    35    36    1
    50    35    38    1
    51    37    36    2
    52    70    71    1
    53    70    69    1
    54    71    65    1
    55    94    92    1
    56    90    91    2
    57    90    89    1
    58    58    57    1
    59    58    59    1
    60    49    48    1
    61    49    50    1
    62    92    89    1
    63    92    93    1
    64    65    59   am
    65    65    66    1
    66    69    66    1
    67    59    60    2
    68    50    51    2
    69    89    88    1
    70    66    67    1
    71    93    95    1
    72    76    73    1
    73    86    87   ar
    74    86    84   ar
    75    87    85   ar
    76    67    68    2
    77    84    82   ar
    78    73    72    1
    79    73    74    1
    80    85    83   ar
    81    74    77   am
    82    74    75    2
    83    82    83   ar
    84    82    81    1
    85    77    78    1
    86    81    78    1
    87    78    79    1
    88    79    80    2
