@<TRIPOS>MOLECULE
tmp/5w2sA00.pdb
 148 146 0 0 0
SMALL
GASTEIGER

@<TRIPOS>ATOM
      1  N         24.9830  -19.7520  -49.4840 N.3    80  TYR80      -0.1227
      2  CA        25.9270  -19.6770  -48.3740 C.3    80  TYR80       0.1736
      3  C         26.6890  -20.9870  -48.2050 C.2    80  TYR80       0.2595
      4  O         27.9240  -20.9930  -48.1550 O.2    80  TYR80      -0.2718
      5  CB        25.2090  -19.3030  -47.0750 C.3    80  TYR80       0.0548
      6  CG        26.1610  -19.1340  -45.9080 C.ar   80  TYR80      -0.0200
      7  CD1       26.4840  -20.2080  -45.0870 C.ar   80  TYR80      -0.0009
      8  CD2       26.7440  -17.9010  -45.6320 C.ar   80  TYR80      -0.0009
      9  CE1       27.3630  -20.0620  -44.0250 C.ar   80  TYR80       0.0417
     10  CE2       27.6230  -17.7450  -44.5670 C.ar   80  TYR80       0.0417
     11  CZ        27.9280  -18.8310  -43.7690 C.ar   80  TYR80       0.1957
     12  OH        28.7970  -18.6950  -42.7090 O.3    80  TYR80      -0.2866
     13  N         25.9690  -22.1130  -48.1220 N.am   81  VAL81      -0.1980
     14  CA        26.6480  -23.3840  -47.8830 C.3    81  VAL81       0.1595
     15  C         27.6030  -23.7080  -49.0250 C.2    81  VAL81       0.2287
     16  O         28.6360  -24.3580  -48.8150 O.2    81  VAL81      -0.2864
     17  CB        25.6310  -24.5220  -47.6390 C.3    81  VAL81       0.0276
     18  CG1       24.8820  -24.2830  -46.3320 C.3    81  VAL81       0.0022
     19  CG2       24.6620  -24.6890  -48.8140 C.3    81  VAL81       0.0022
     20  N         20.1080  -28.3870  -44.4590 N.3   114  LEU114     -0.1231
     21  CA        18.9930  -27.7970  -45.1870 C.3   114  LEU114      0.1693
     22  C         19.3270  -27.6060  -46.6630 C.2   114  LEU114      0.2592
     23  O         18.6740  -28.1920  -47.5320 O.2   114  LEU114     -0.2718
     24  CB        18.5940  -26.4640  -44.5440 C.3   114  LEU114      0.0284
     25  CG        17.2770  -25.8460  -45.0240 C.3   114  LEU114      0.0019
     26  CD1       16.1590  -26.8950  -45.0950 C.3   114  LEU114      0.0001
     27  CD2       16.8740  -24.6770  -44.1360 C.3   114  LEU114      0.0001
     28  N         20.3400  -26.7930  -46.9600 N.am  115  GLY115     -0.1957
     29  CA        20.7290  -26.5160  -48.3230 C.3   115  GLY115      0.1869
     30  C         20.8110  -25.0260  -48.5490 C.2   115  GLY115      0.2309
     31  O         20.9930  -24.2440  -47.6090 O.2   115  GLY115     -0.2863
     32  N         18.8060  -22.6370  -48.7730 N.3   117  ALA117     -0.1231
     33  CA        17.4090  -22.2730  -48.5460 C.3   117  ALA117      0.1694
     34  C         17.1580  -20.7840  -48.7350 C.2   117  ALA117      0.2591
     35  O         16.0800  -20.3980  -49.2010 O.2   117  ALA117     -0.2718
     36  CB        16.9740  -22.7000  -47.1460 C.3   117  ALA117      0.0304
     37  N         18.1240  -19.9340  -48.3790 N.am  118  GLU118     -0.1979
     38  CA        17.9240  -18.4960  -48.5220 C.3   118  GLU118      0.1602
     39  C         17.7390  -18.0850  -49.9790 C.2   118  GLU118      0.2287
     40  O         17.1280  -17.0450  -50.2480 O.2   118  GLU118     -0.2864
     41  CB        19.0940  -17.7340  -47.8860 C.3   118  GLU118      0.0415
     42  CG        20.3520  -17.6380  -48.7410 C.3   118  GLU118      0.1163
     43  CD        21.2170  -18.8900  -48.6850 C.2   118  GLU118      0.3649
     44  OE1       22.2750  -18.9100  -49.3500 O.co2 118  GLU118     -0.2457
     45  OE2       20.8390  -19.8560  -47.9840 O.co2 118  GLU118     -0.2457
     46  N         27.0010  -25.7800  -43.1170 N.3   197  GLU197     -0.1231
     47  CA        25.7290  -25.3580  -42.5490 C.3   197  GLU197      0.1699
     48  C         25.6550  -23.8400  -42.5580 C.2   197  GLU197      0.2593
     49  O         26.6790  -23.1530  -42.4630 O.2   197  GLU197     -0.2718
     50  CB        25.5480  -25.8950  -41.1240 C.3   197  GLU197      0.0402
     51  CG        24.1540  -25.6930  -40.5490 C.3   197  GLU197      0.1161
     52  CD        23.0820  -26.3280  -41.4110 C.2   197  GLU197      0.3649
     53  OE1       22.4450  -25.6050  -42.2140 O.co2 197  GLU197     -0.2457
     54  OE2       22.9160  -27.5600  -41.3080 O.co2 197  GLU197     -0.2457
     55  N         24.4230  -23.3260  -42.6600 N.am  198  GLY198     -0.1943
     56  CA        24.2010  -21.9110  -42.7550 C.3   198  GLY198      0.1998
     57  C         24.4690  -21.1970  -41.4420 C.2   198  GLY198      0.2481
     58  O         24.8530  -21.8080  -40.4400 O.2   198  GLY198     -0.2729
     59  N         24.2640  -19.8690  -41.4430 N.am  199  PRO199     -0.2715
     60  CA        24.5360  -19.0720  -40.2390 C.3   199  PRO199      0.1536
     61  C         23.3510  -18.9790  -39.2880 C.2   199  PRO199      0.2598
     62  O         22.2500  -19.4510  -39.5940 O.2   199  PRO199     -0.2715
     63  CB        24.8770  -17.6970  -40.8180 C.3   199  PRO199      0.0310
     64  CG        23.9800  -17.6060  -42.0180 C.3   199  PRO199      0.0237
     65  CD        23.8630  -19.0180  -42.5790 C.3   199  PRO199      0.0939
     66  N         23.5790  -18.3460  -38.1370 N.am  200  ILE200     -0.1964
     67  CA        22.5340  -18.1120  -37.1460 C.3   200  ILE200      0.1727
     68  C         21.7070  -16.9060  -37.5660 C.2   200  ILE200      0.2616
     69  O         22.2570  -15.8550  -37.9190 O.2   200  ILE200     -0.2715
     70  CB        23.1490  -17.8910  -35.7530 C.3   200  ILE200      0.0290
     71  CG1       24.0320  -19.0740  -35.3460 C.3   200  ILE200      0.0022
     72  CG2       22.0640  -17.6410  -34.7220 C.3   200  ILE200      0.0023
     73  CD1       24.9860  -18.7580  -34.2010 C.3   200  ILE200      0.0001
     74  N         20.3830  -17.0440  -37.5100 N.am  201  GLU201     -0.1977
     75  CA        19.4900  -15.9310  -37.8130 C.3   201  GLU201      0.1602
     76  C         18.1720  -16.1760  -37.0700 C.2   201  GLU201      0.2287
     77  O         18.0210  -17.1690  -36.3510 O.2   201  GLU201     -0.2864
     78  CB        19.4000  -15.7570  -39.3470 C.3   201  GLU201      0.0415
     79  CG        18.1960  -15.0360  -39.9260 C.3   201  GLU201      0.1163
     80  CD        18.2260  -13.5290  -39.7250 C.2   201  GLU201      0.3649
     81  OE1       19.2180  -12.8890  -40.1340 O.co2 201  GLU201     -0.2457
     82  OE2       17.2650  -12.9900  -39.1380 O.co2 201  GLU201     -0.2457
     83  N         15.7270  -19.5780  -37.7250 N.3   204  PRO204     -0.2116
     84  CA        16.3040  -20.7930  -37.1220 C.3   204  PRO204      0.1372
     85  C         16.2030  -20.8120  -35.6030 C.2   204  PRO204      0.2244
     86  O         15.8720  -21.8520  -35.0160 O.2   204  PRO204     -0.2868
     87  CB        17.7610  -20.7570  -37.6050 C.3   204  PRO204      0.0268
     88  CG        17.7090  -20.0030  -38.8840 C.3   204  PRO204      0.0207
     89  CD        16.6610  -18.9490  -38.6810 C.3   204  PRO204      0.0892
     90  N         13.7840  -23.6810  -33.5250 N.3   208  PHE208     -0.1241
     91  CA        14.3720  -24.6150  -32.5720 C.3   208  PHE208      0.1605
     92  C         14.0220  -24.2730  -31.1280 C.2   208  PHE208      0.2264
     93  O         13.8840  -25.1800  -30.2980 O.2   208  PHE208     -0.2867
     94  CB        15.8920  -24.6550  -32.7470 C.3   208  PHE208      0.0534
     95  CG        16.3530  -25.5440  -33.8710 C.ar  208  PHE208     -0.0203
     96  CD1       16.5320  -26.9040  -33.6730 C.ar  208  PHE208     -0.0042
     97  CD2       16.6110  -25.0160  -35.1260 C.ar  208  PHE208     -0.0042
     98  CE1       16.9590  -27.7220  -34.7070 C.ar  208  PHE208     -0.0003
     99  CE2       17.0380  -25.8240  -36.1620 C.ar  208  PHE208     -0.0003
    100  CZ        17.2130  -27.1810  -35.9530 C.ar  208  PHE208     -0.0000
    101  N         23.4400  -22.2960  -30.3920 N.3   237  PHE237     -0.1227
    102  CA        23.9250  -22.2920  -31.7640 C.3   237  PHE237      0.1736
    103  C         25.3920  -21.8830  -31.7950 C.2   237  PHE237      0.2596
    104  O         25.8040  -20.9390  -31.1130 O.2   237  PHE237     -0.2718
    105  CB        23.0990  -21.3340  -32.6160 C.3   237  PHE237      0.0547
    106  CG        21.9260  -21.9800  -33.3000 C.ar  237  PHE237     -0.0202
    107  CD1       21.9940  -23.2950  -33.7270 C.ar  237  PHE237     -0.0042
    108  CD2       20.7510  -21.2710  -33.5060 C.ar  237  PHE237     -0.0042
    109  CE1       20.9180  -23.8880  -34.3550 C.ar  237  PHE237     -0.0003
    110  CE2       19.6650  -21.8630  -34.1320 C.ar  237  PHE237     -0.0003
    111  CZ        19.7500  -23.1730  -34.5550 C.ar  237  PHE237     -0.0000
    112  N         26.1830  -22.6120  -32.5750 N.am  238  GLY238     -0.1942
    113  CA        27.5440  -22.2160  -32.8700 C.3   238  GLY238      0.2014
    114  C         27.8940  -22.5560  -34.3040 C.2   238  GLY238      0.2638
    115  O         27.9540  -23.7340  -34.6610 O.2   238  GLY238     -0.2714
    116  N         28.1080  -21.5410  -35.1380 N.am  239  GLU239     -0.1977
    117  CA        28.3470  -21.7810  -36.5550 C.3   239  GLU239      0.1602
    118  C         29.6450  -22.5570  -36.7580 C.2   239  GLU239      0.2287
    119  O         30.6140  -22.4090  -36.0030 O.2   239  GLU239     -0.2864
    120  CB        28.3950  -20.4570  -37.3140 C.3   239  GLU239      0.0415
    121  CG        27.0820  -19.6880  -37.2650 C.3   239  GLU239      0.1163
    122  CD        27.2130  -18.2690  -37.7930 C.2   239  GLU239      0.3649
    123  OE1       28.2670  -17.9540  -38.3890 O.co2 239  GLU239     -0.2457
    124  OE2       26.2630  -17.4750  -37.6110 O.co2 239  GLU239     -0.2457
    125  N         26.2610  -25.8350  -31.3480 N.3   343  HIS343     -0.1226
    126  CA        25.6650  -26.7970  -32.2630 C.3   343  HIS343      0.1752
    127  C         25.5810  -26.1680  -33.6500 C.2   343  HIS343      0.2597
    128  O         25.0140  -25.0810  -33.8040 O.2   343  HIS343     -0.2718
    129  CB        24.2840  -27.2080  -31.7500 C.3   343  HIS343      0.0759
    130  CG        23.7370  -28.4500  -32.3810 C.ar  343  HIS343      0.0818
    131  ND1       24.3580  -29.0950  -33.4290 N.ar  343  HIS343     -0.2268
    132  CD2       22.6210  -29.1680  -32.1050 C.ar  343  HIS343      0.1154
    133  CE1       23.6460  -30.1530  -33.7760 C.ar  343  HIS343      0.1986
    134  NE2       22.5870  -30.2190  -32.9890 N.ar  343  HIS343     -0.2212
    135  N         26.1580  -26.8390  -34.6510 N.am  344  SER344     -0.1938
    136  CA        26.0950  -26.3780  -36.0350 C.3   344  SER344      0.2055
    137  C         25.3320  -27.3480  -36.9340 C.2   344  SER344      0.2642
    138  O         25.5500  -27.3620  -38.1520 O.2   344  SER344     -0.2714
    139  CB        27.4990  -26.1300  -36.5940 C.3   344  SER344      0.2130
    140  OG        28.4000  -27.1630  -36.2360 O.3   344  SER344     -0.2179
    141  N         24.4540  -28.1670  -36.3500 N.am  345  ILE345     -0.1977
    142  CA        23.5250  -29.0250  -37.0830 C.3   345  ILE345      0.1596
    143  C         24.2660  -29.8740  -38.1110 C.2   345  ILE345      0.2287
    144  O         25.0190  -30.7860  -37.7510 O.2   345  ILE345     -0.2864
    145  CB        22.4110  -28.1890  -37.7460 C.3   345  ILE345      0.0276
    146  CG1       21.9520  -27.0680  -36.8090 C.3   345  ILE345      0.0022
    147  CG2       21.2160  -29.0720  -38.1260 C.3   345  ILE345      0.0022
    148  CD1       21.3240  -27.5600  -35.5230 C.3   345  ILE345      0.0001
@<TRIPOS>BOND
     1    40    39    2
     2    39    38    1
     3     1     2    1
     4    44    43   ar
     5    35    34    2
     6    15    16    2
     7    15    14    1
     8    19    17    1
     9    32    33    1
    10    42    43    1
    11    42    41    1
    12    34    33    1
    13    34    37   am
    14    43    45   ar
    15    30    29    1
    16    30    31    2
    17    33    36    1
    18    38    37    1
    19    38    41    1
    20     2     3    1
    21     2     5    1
    22    29    28    1
    23     3     4    2
    24     3    13   am
    25    13    14    1
    26    14    17    1
    27    17    18    1
    28    23    22    2
    29     5     6    1
    30    28    22   am
    31    22    21    1
    32     6     8   ar
    33     6     7   ar
    34     8    10   ar
    35    21    24    1
    36    21    20    1
    37    26    25    1
    38     7     9   ar
    39    25    24    1
    40    25    27    1
    41    10    11   ar
    42     9    11   ar
    43    11    12    1
    44    46    47    1
    45    56    55    1
    46    56    57    1
    47    55    48   am
    48    65    64    1
    49    65    59    1
    50    48    47    1
    51    48    49    2
    52    47    50    1
    53    53    52   ar
    54    64    63    1
    55    59    57   am
    56    59    60    1
    57    57    58    2
    58    52    54   ar
    59    52    51    1
    60    50    51    1
    61    63    60    1
    62    60    61    1
    63    81    80   ar
    64    79    80    1
    65    79    78    1
    66    80    82   ar
    67    62    61    2
    68    78    75    1
    69    61    66   am
    70    88    89    1
    71    88    87    1
    72    89    83    1
    73   123   122   ar
    74   138   137    2
    75    66    67    1
    76   147   145    1
    77   143   144    2
    78   143   142    1
    79    69    68    2
    80    75    74    1
    81    75    76    1
    82   122   124   ar
    83   122   121    1
    84   145   142    1
    85   145   146    1
    86    83    84    1
    87    87    84    1
    88    68    74   am
    89    68    67    1
    90   120   121    1
    91   120   117    1
    92    67    70    1
    93    84    85    1
    94   142   141    1
    95    76    77    2
    96   137   141   am
    97   137   136    1
    98   146   148    1
    99   118   117    1
   100   118   119    2
   101   139   140    1
   102   139   136    1
   103   117   116    1
   104    99   100   ar
   105    99    97   ar
   106   136   135    1
   107   100    98   ar
   108    70    71    1
   109    70    72    1
   110    85    86    2
   111    71    73    1
   112   116   114   am
   113    97    95   ar
   114    98    96   ar
   115   115   114    2
   116   135   127   am
   117   111   109   ar
   118   111   110   ar
   119   109   107   ar
   120   114   113    1
   121   110   108   ar
   122    95    96   ar
   123    95    94    1
   124   128   127    2
   125   133   131   ar
   126   133   134   ar
   127   107   106   ar
   128   127   126    1
   129    90    91    1
   130   108   106   ar
   131   131   130   ar
   132   106   105    1
   133   134   132   ar
   134   113   112    1
   135    94    91    1
   136   105   102    1
   137   112   103   am
   138    91    92    1
   139   130   132   ar
   140   130   129    1
   141   126   129    1
   142   126   125    1
   143   103   102    1
   144   103   104    2
   145   102   101    1
   146    92    93    2
