@<TRIPOS>MOLECULE
tmp/5w2uA02.pdb
 163 153 0 0 0
SMALL
GASTEIGER

@<TRIPOS>ATOM
      1  N         15.8340   12.9940   63.2210 N.3    37  ARG37      -0.1231
      2  CA        16.2490   14.4290   63.1560 C.3    37  ARG37       0.1694
      3  C         16.7640   14.6180   61.7410 C.2    37  ARG37       0.2591
      4  O         16.7930   13.6410   60.9560 O.2    37  ARG37      -0.2718
      5  CB        17.3290   14.8290   64.2360 C.3    37  ARG37       0.0321
      6  CG        16.7610   15.6080   65.4250 C.3    37  ARG37       0.0489
      7  CD        17.8160   16.5310   66.0410 C.3    37  ARG37       0.2205
      8  NE        18.1000   17.5710   65.0830 N.pl3  37  ARG37      -0.0865
      9  CZ        19.2670   18.2110   64.9240 C.cat  37  ARG37       0.5346
     10  NH1       20.3280   17.9580   65.7260 N.pl3  37  ARG37       0.1354
     11  NH2       19.3700   19.1000   63.9410 N.pl3  37  ARG37       0.1354
     12  N         17.2080   15.8410   61.4260 N.am   38  GLU38      -0.1979
     13  CA        17.7510   16.1370   60.0880 C.3    38  GLU38       0.1602
     14  C         16.7380   15.7940   58.9620 C.2    38  GLU38       0.2287
     15  O         17.0860   15.1130   58.0100 O.2    38  GLU38      -0.2864
     16  CB        19.1310   15.4420   59.8760 C.3    38  GLU38       0.0415
     17  CG        20.2350   15.9010   60.8580 C.3    38  GLU38       0.1163
     18  CD        20.2260   15.1240   62.2060 C.2    38  GLU38       0.3649
     19  OE1       19.8090   13.9340   62.2150 O.co2  38  GLU38      -0.2457
     20  OE2       20.6300   15.6960   63.2890 O.co2  38  GLU38      -0.2457
     21  N         24.3260   11.9380   67.4270 N.3    70  ASP70      -0.1225
     22  CA        24.0910   12.0950   65.9850 C.3    70  ASP70       0.1805
     23  C         24.3870   10.8790   65.1460 C.2    70  ASP70       0.2597
     24  O         23.8560   10.7700   64.0920 O.2    70  ASP70      -0.2718
     25  CB        24.9220   13.2720   65.5050 C.3    70  ASP70       0.1424
     26  CG        24.5920   14.5120   66.3000 C.2    70  ASP70       0.3668
     27  OD1       23.3720   14.8610   66.4970 O.co2  70  ASP70      -0.2456
     28  OD2       25.5370   15.1530   66.7190 O.co2  70  ASP70      -0.2456
     29  N         25.2770    9.9920   65.5840 N.am   71  ARG71      -0.1979
     30  CA        25.8440    9.0270   64.6510 C.3    71  ARG71       0.1597
     31  C         25.8910    7.7030   65.3730 C.2    71  ARG71       0.2287
     32  O         26.5540    7.5750   66.3630 O.2    71  ARG71      -0.2864
     33  CB        27.2470    9.4770   64.2310 C.3    71  ARG71       0.0334
     34  CG        27.2840   10.6820   63.2620 C.3    71  ARG71       0.0492
     35  CD        28.7280   11.0660   62.8390 C.3    71  ARG71       0.2205
     36  NE        29.6050   11.0560   64.0280 N.pl3  71  ARG71      -0.0865
     37  CZ        29.6380   11.9990   64.9710 C.cat  71  ARG71       0.5346
     38  NH1       30.4200   11.8150   66.0390 N.pl3  71  ARG71       0.1354
     39  NH2       28.8400   13.0780   64.8980 N.pl3  71  ARG71       0.1354
     40  N         20.8110    4.3920   62.6950 N.3    75  ARG75      -0.1245
     41  CA        20.2550    5.4440   61.8610 C.3    75  ARG75       0.1563
     42  C         20.0930    5.0150   60.4200 C.2    75  ARG75       0.2260
     43  O         20.8310    4.1210   59.9400 O.2    75  ARG75      -0.2867
     44  CB        21.0740    6.7020   61.9720 C.3    75  ARG75       0.0307
     45  CG        21.1760    7.2300   63.4430 C.3    75  ARG75       0.0489
     46  CD        21.4000    8.7380   63.4780 C.3    75  ARG75       0.2205
     47  NE        20.1110    9.4530   63.3420 N.pl3  75  ARG75      -0.0865
     48  CZ        20.0330   10.7790   63.4310 C.cat  75  ARG75       0.5346
     49  NH1       21.1750   11.4740   63.6390 N.pl3  75  ARG75       0.1354
     50  NH2       18.8580   11.4200   63.3280 N.pl3  75  ARG75       0.1354
     51  N         24.0990    7.9960   58.7300 N.3    98  TRP98      -0.1227
     52  CA        23.8130    9.0860   59.6640 C.3    98  TRP98       0.1737
     53  C         24.0760   10.4380   59.0530 C.2    98  TRP98       0.2596
     54  O         24.1570   11.4250   59.7720 O.2    98  TRP98      -0.2718
     55  CB        24.5970    8.9110   60.9840 C.3    98  TRP98       0.0564
     56  CG        26.0520    8.4110   60.8350 C.ar   98  TRP98       0.0003
     57  CD1       26.5390    7.2020   61.2470 C.ar   98  TRP98       0.0946
     58  CD2       27.1570    9.1150   60.2660 C.ar   98  TRP98       0.0152
     59  NE1       27.8860    7.1040   60.9760 N.ar   98  TRP98      -0.2442
     60  CE2       28.2970    8.2570   60.3640 C.ar   98  TRP98       0.0810
     61  CE3       27.3020   10.3800   59.6800 C.ar   98  TRP98       0.0012
     62  CZ2       29.5970    8.6340   59.9120 C.ar   98  TRP98       0.0191
     63  CZ3       28.5750   10.7640   59.2180 C.ar   98  TRP98       0.0001
     64  CH2       29.7210    9.8850   59.3170 C.ar   98  TRP98       0.0015
     65  N         24.1740   10.4880   57.7180 N.am   99  SER99      -0.1952
     66  CA        24.2640   11.7390   56.9750 C.3    99  SER99       0.1924
     67  C         23.7620   11.4010   55.5820 C.2    99  SER99       0.2314
     68  O         24.1600   10.3380   55.0340 O.2    99  SER99      -0.2863
     69  CB        25.6960   12.3050   56.9150 C.3    99  SER99       0.2116
     70  OG        25.7220   13.5500   56.2200 O.3    99  SER99      -0.2180
     71  N         34.7090   12.3610   59.9780 N.3   142  ILE142     -0.1245
     72  CA        33.2320   12.4750   59.8500 C.3   142  ILE142      0.1561
     73  C         32.8930   13.0050   58.4390 C.2   142  ILE142      0.2260
     74  O         32.4240   14.1500   58.2780 O.2   142  ILE142     -0.2867
     75  CB        32.5930   13.3680   60.9650 C.3   142  ILE142      0.0252
     76  CG1       33.1960   13.0840   62.3890 C.3   142  ILE142      0.0019
     77  CG2       31.0500   13.2510   60.9730 C.3   142  ILE142      0.0019
     78  CD1       32.6040   13.9560   63.5120 C.3   142  ILE142      0.0001
     79  N         30.6400   13.8370   55.6040 N.3   144  ARG144     -0.1245
     80  CA        29.2470   14.2730   55.8310 C.3   144  ARG144      0.1563
     81  C         28.7570   15.1240   54.6240 C.2   144  ARG144      0.2260
     82  O         29.5810   15.6380   53.8420 O.2   144  ARG144     -0.2867
     83  CB        29.1370   15.0470   57.1540 C.3   144  ARG144      0.0307
     84  CG        30.0200   16.3250   57.2170 C.3   144  ARG144      0.0489
     85  CD        30.3680   16.5820   58.6940 C.3   144  ARG144      0.2205
     86  NE        31.1310   17.8060   58.8930 N.pl3 144  ARG144     -0.0865
     87  CZ        32.4720   17.8620   58.9910 C.cat 144  ARG144      0.5346
     88  NH1       33.2170   16.7410   58.9170 N.pl3 144  ARG144      0.1354
     89  NH2       33.0650   19.0520   59.1960 N.pl3 144  ARG144      0.1354
     90  N         22.2180   16.8890   54.1250 N.3   147  GLU147     -0.1245
     91  CA        20.9860   16.7240   54.9760 C.3   147  GLU147      0.1567
     92  C         19.7810   17.4670   54.3810 C.2   147  GLU147      0.2260
     93  O         18.8070   17.8570   55.1190 O.2   147  GLU147     -0.2867
     94  CB        21.2120   17.1480   56.4870 C.3   147  GLU147      0.0388
     95  CG        22.6490   16.9100   57.0740 C.3   147  GLU147      0.1160
     96  CD        23.0120   15.3980   57.1790 C.2   147  GLU147      0.3649
     97  OE1       22.1910   14.5240   56.7410 O.co2 147  GLU147     -0.2457
     98  OE2       24.1360   15.0540   57.6740 O.co2 147  GLU147     -0.2457
     99  N         35.2510   20.2710   62.0420 N.3   166  ALA166     -0.1245
    100  CA        34.1170   21.1720   62.2580 C.3   166  ALA166      0.1562
    101  C         34.5250   22.5390   62.8420 C.2   166  ALA166      0.2260
    102  O         33.6720   23.4660   62.9710 O.2   166  ALA166     -0.2867
    103  CB        33.0950   20.5100   63.2100 C.3   166  ALA166      0.0290
    104  N         29.4200   23.2580   55.3780 N.3   196  GLU196     -0.1231
    105  CA        28.6520   22.1090   55.8370 C.3   196  GLU196      0.1699
    106  C         27.2210   22.2250   55.4150 C.2   196  GLU196      0.2592
    107  O         26.7080   23.3590   55.2580 O.2   196  GLU196     -0.2718
    108  CB        28.6900   22.0460   57.3540 C.3   196  GLU196      0.0402
    109  CG        30.0780   21.7030   57.8720 C.3   196  GLU196      0.1161
    110  CD        30.0910   21.5250   59.3440 C.2   196  GLU196      0.3649
    111  OE1       29.1590   22.0470   60.0240 O.co2 196  GLU196     -0.2457
    112  OE2       31.0070   20.8350   59.8050 O.co2 196  GLU196     -0.2457
    113  N         26.5450   21.0840   55.2640 N.am  197  GLU197     -0.1979
    114  CA        25.0740   21.0970   55.1460 C.3   197  GLU197      0.1602
    115  C         24.4430   22.0860   54.1150 C.2   197  GLU197      0.2287
    116  O         23.5520   22.8650   54.4430 O.2   197  GLU197     -0.2864
    117  CB        24.4800   21.2990   56.5580 C.3   197  GLU197      0.0415
    118  CG        25.0010   20.2150   57.5190 C.3   197  GLU197      0.1163
    119  CD        24.5350   20.3900   58.9340 C.2   197  GLU197      0.3649
    120  OE1       24.2280   21.5590   59.3220 O.co2 197  GLU197     -0.2457
    121  OE2       24.4320   19.3270   59.6390 O.co2 197  GLU197     -0.2457
    122  N         26.5240   26.2340   55.6760 N.3   212  ARG212     -0.1245
    123  CA        26.7900   26.5700   57.0730 C.3   212  ARG212      0.1563
    124  C         28.3110   26.6030   57.1900 C.2   212  ARG212      0.2260
    125  O         28.9710   25.6190   56.9190 O.2   212  ARG212     -0.2867
    126  CB        26.1890   25.4710   57.9870 C.3   212  ARG212      0.0307
    127  CG        26.7180   25.3590   59.4390 C.3   212  ARG212      0.0489
    128  CD        26.1100   24.1580   60.1190 C.3   212  ARG212      0.2205
    129  NE        26.5960   23.9490   61.4990 N.pl3 212  ARG212     -0.0865
    130  CZ        26.0280   23.1050   62.3650 C.cat 212  ARG212      0.5346
    131  NH1       24.9250   22.4300   62.0090 N.pl3 212  ARG212      0.1354
    132  NH2       26.5630   22.9030   63.5790 N.pl3 212  ARG212      0.1354
    133  N         30.6930   26.3680   59.7620 N.3   214  ASN214     -0.1240
    134  CA        30.6460   26.1070   61.2140 C.3   214  ASN214      0.1653
    135  C         31.8260   26.8100   61.9780 C.2   214  ASN214      0.2266
    136  O         31.7610   27.0450   63.1760 O.2   214  ASN214     -0.2867
    137  CB        30.6850   24.6040   61.5210 C.3   214  ASN214      0.1155
    138  CG        30.1460   24.3020   62.8930 C.2   214  ASN214      0.2627
    139  OD1       28.9690   24.5930   63.1610 O.2   214  ASN214     -0.2716
    140  ND2       30.9810   23.6900   63.7740 N.am  214  ASN214     -0.0877
    141  N         18.2590   27.7750   68.8460 N.3   290  ARG290     -0.1245
    142  CA        17.3900   27.4530   67.7180 C.3   290  ARG290      0.1563
    143  C         15.9320   27.6870   68.1370 C.2   290  ARG290      0.2260
    144  O         15.1940   26.7160   68.4210 O.2   290  ARG290     -0.2867
    145  CB        17.6600   25.9890   67.3440 C.3   290  ARG290      0.0307
    146  CG        19.1050   25.7820   66.8810 C.3   290  ARG290      0.0489
    147  CD        19.5570   24.3260   66.8080 C.3   290  ARG290      0.2205
    148  NE        20.8800   24.2730   66.1790 N.pl3 290  ARG290     -0.0865
    149  CZ        21.5200   23.1590   65.8610 C.cat 290  ARG290      0.5346
    150  NH1       20.9530   21.9690   66.1150 N.pl3 290  ARG290      0.1354
    151  NH2       22.7180   23.2260   65.2770 N.pl3 290  ARG290      0.1354
    152  N         17.1280   22.8000   62.1000 N.3   324  TYR324     -0.1241
    153  CA        17.5620   22.7840   60.6620 C.3   324  TYR324      0.1605
    154  C         16.4440   23.2990   59.7400 C.2   324  TYR324      0.2264
    155  O         15.2240   23.1180   60.0140 O.2   324  TYR324     -0.2867
    156  CB        17.9180   21.3580   60.2720 C.3   324  TYR324      0.0534
    157  CG        19.3020   20.9790   60.6730 C.ar  324  TYR324     -0.0201
    158  CD1       19.9910   21.6980   61.7040 C.ar  324  TYR324     -0.0009
    159  CD2       19.9590   19.8850   60.0550 C.ar  324  TYR324     -0.0009
    160  CE1       21.2980   21.3670   62.0500 C.ar  324  TYR324      0.0417
    161  CE2       21.2910   19.5290   60.4240 C.ar  324  TYR324      0.0417
    162  CZ        21.9410   20.2830   61.4140 C.ar  324  TYR324      0.1957
    163  OH        23.2360   19.9770   61.7340 O.3   324  TYR324     -0.2866
@<TRIPOS>BOND
     1    82    81    2
     2   115   116    2
     3   115   114    1
     4    90    91    1
     5    92    91    1
     6    92    93    2
     7    81    80    1
     8    91    94    1
     9    68    67    2
    10   114   113    1
    11   114   117    1
    12   107   106    2
    13   113   106   am
    14   104   105    1
    15   106   105    1
    16    67    66    1
    17    79    80    1
    18   122   123    1
    19    80    83    1
    20   105   108    1
    21    70    69    1
    22    94    95    1
    23   117   118    1
    24    97    96   ar
    25    69    66    1
    26   125   124    2
    27    66    65    1
    28   123   124    1
    29   123   126    1
    30    95    96    1
    31    83    84    1
    32    96    98   ar
    33    84    85    1
    34   108   109    1
    35   118   119    1
    36    65    53   am
    37   109   110    1
    38   126   127    1
    39    15    14    2
    40    74    73    2
    41    73    72    1
    42    85    86    1
    43    51    52    1
    44    86    87    2
    45    88    87    1
    46   119   120   ar
    47   119   121   ar
    48    14    13    1
    49    87    89    1
    50    53    52    1
    51    53    54    2
    52    63    64   ar
    53    63    61   ar
    54    64    62   ar
    55   110   112   ar
    56   110   111   ar
    57   127   128    1
    58    52    55    1
    59    61    58   ar
    60   154   155    2
    61   154   153    1
    62   133   134    1
    63    72    71    1
    64    72    75    1
    65    16    13    1
    66    16    17    1
    67    62    60   ar
    68    43    42    2
    69   159   161   ar
    70   159   157   ar
    71    13    12    1
    72   128   129    1
    73    58    60   ar
    74    58    56   ar
    75   156   153    1
    76   156   157    1
    77    60    59   ar
    78    42    41    1
    79   161   162   ar
    80   153   152    1
    81   157   158   ar
    82    56    55    1
    83    56    57   ar
    84    17    18    1
    85     4     3    2
    86    75    77    1
    87    75    76    1
    88    59    57   ar
    89   134   137    1
    90   134   135    1
    91   162   163    1
    92   162   160   ar
    93    12     3   am
    94   129   130    2
    95   137   138    1
    96   158   160   ar
    97     3     2    1
    98    41    44    1
    99    41    40    1
   100    44    45    1
   101   135   136    2
   102   131   130    1
   103    99   100    1
   104    18    19   ar
   105    18    20   ar
   106   100   101    1
   107   100   103    1
   108   130   132    1
   109    76    78    1
   110    35    34    1
   111    35    36    1
   112   101   102    2
   113   138   139    2
   114   138   140   am
   115     2     1    1
   116     2     5    1
   117    34    33    1
   118    50    48    1
   119    47    48    2
   120    47    46    1
   121    48    49    1
   122    45    46    1
   123    11     9    1
   124    36    37    2
   125    24    23    2
   126    33    30    1
   127     5     6    1
   128    30    31    1
   129    30    29    1
   130    39    37    1
   131     9     8    2
   132     9    10    1
   133    37    38    1
   134     8     7    1
   135    23    29   am
   136    23    22    1
   137   151   149    1
   138    31    32    2
   139     6     7    1
   140    25    22    1
   141    25    26    1
   142   149   150    1
   143   149   148    2
   144    22    21    1
   145   148   147    1
   146    26    27   ar
   147    26    28   ar
   148   147   146    1
   149   146   145    1
   150   145   142    1
   151   142   143    1
   152   142   141    1
   153   143   144    2
