@<TRIPOS>MOLECULE
tmp/5w2uA00.pdb
 77 75 0 0 0
SMALL
GASTEIGER

@<TRIPOS>ATOM
      1  N         15.9190   33.9110   67.4060 N.3   286  SER286     -0.1202
      2  CA        16.9400   34.0920   68.4750 C.3   286  SER286      0.2020
      3  C         18.3450   34.1060   67.8630 C.2   286  SER286      0.2619
      4  O         18.6350   33.3480   66.8950 O.2   286  SER286     -0.2717
      5  CB        16.7860   32.9960   69.5500 C.3   286  SER286      0.2103
      6  OG        17.9490   32.8340   70.3740 O.3   286  SER286     -0.2182
      7  N         19.2440   34.9510   68.4190 N.am  287  ILE287     -0.1965
      8  CA        20.6510   34.9720   67.9760 C.3   287  ILE287      0.1727
      9  C         21.3770   33.9450   68.8120 C.2   287  ILE287      0.2616
     10  O         22.5350   33.5750   68.4990 O.2   287  ILE287     -0.2715
     11  CB        21.3230   36.3590   68.1360 C.3   287  ILE287      0.0290
     12  CG1       21.3860   36.7930   69.6670 C.3   287  ILE287      0.0022
     13  CG2       20.5990   37.3790   67.2510 C.3   287  ILE287      0.0023
     14  CD1       22.1490   38.0810   69.9180 C.3   287  ILE287      0.0001
     15  N         20.7000   33.4520   69.8410 N.am  288  ALA288     -0.1963
     16  CA        21.3710   32.5620   70.8370 C.3   288  ALA288      0.1728
     17  C         21.0850   31.0760   70.6670 C.2   288  ALA288      0.2616
     18  O         21.9320   30.2430   70.9710 O.2   288  ALA288     -0.2715
     19  CB        20.9790   32.9780   72.2750 C.3   288  ALA288      0.0334
     20  N         19.8680   30.7090   70.2840 N.am  289  SER289     -0.1950
     21  CA        19.5380   29.3000   70.2650 C.3   289  SER289      0.1924
     22  C         18.5920   29.0330   69.0820 C.2   289  SER289      0.2314
     23  O         18.1750   29.9690   68.3830 O.2   289  SER289     -0.2863
     24  CB        18.8870   28.9450   71.5620 C.3   289  SER289      0.2116
     25  OG        17.6540   29.6550   71.6480 O.3   289  SER289     -0.2180
     26  N         15.5580   28.9550   68.3110 N.3   291  SER291     -0.1217
     27  CA        14.1640   29.3630   68.6770 C.3   291  SER291      0.1889
     28  C         13.6350   30.2810   67.6320 C.2   291  SER291      0.2288
     29  O         14.3350   31.2350   67.2000 O.2   291  SER291     -0.2866
     30  CB        13.9970   30.2020   70.0000 C.3   291  SER291      0.2089
     31  OG        14.9050   29.8250   70.9040 O.3   291  SER291     -0.2183
     32  N          9.3170   33.0500   68.5020 N.3   318  ASN318     -0.1225
     33  CA        10.5640   32.9010   69.2760 C.3   318  ASN318      0.1785
     34  C         10.3370   32.2070   70.6140 C.2   318  ASN318      0.2598
     35  O         11.2800   31.9290   71.3310 O.2   318  ASN318     -0.2718
     36  CB        11.2260   34.2690   69.5160 C.3   318  ASN318      0.1169
     37  CG        12.6820   34.1170   69.9410 C.2   318  ASN318      0.2627
     38  OD1       13.2210   34.9370   70.6860 O.2   318  ASN318     -0.2716
     39  ND2       13.3000   33.0400   69.5290 N.am  318  ASN318     -0.0877
     40  N          9.0920   31.9100   70.9490 N.am  319  THR319     -0.1939
     41  CA         8.7820   31.1060   72.1410 C.3   319  THR319      0.2028
     42  C          8.5600   29.6260   71.7510 C.2   319  THR319      0.2642
     43  O          8.0820   28.8070   72.5740 O.2   319  THR319     -0.2714
     44  CB         7.5220   31.6550   72.8450 C.3   319  THR319      0.1808
     45  OG1        6.5180   31.8490   71.8280 O.3   319  THR319     -0.2208
     46  CG2        7.7950   33.0350   73.5230 C.3   319  THR319      0.0379
     47  N          8.8990   29.2710   70.5040 N.am  320  ASP320     -0.1957
     48  CA         8.8650   27.8600   70.0520 C.3   320  ASP320      0.1840
     49  C         10.2110   27.4350   69.4690 C.2   320  ASP320      0.2622
     50  O         10.9500   28.2750   68.8670 O.2   320  ASP320     -0.2715
     51  CB         7.7070   27.6280   69.0760 C.3   320  ASP320      0.1450
     52  CG         6.3480   27.6180   69.7850 C.2   320  ASP320      0.3671
     53  OD1        6.1340   26.7280   70.6730 O.co2 320  ASP320     -0.2456
     54  OD2        5.4950   28.4700   69.4090 O.co2 320  ASP320     -0.2456
     55  N         10.5570   26.1740   69.7060 N.am  321  TRP321     -0.1974
     56  CA        11.7820   25.5930   69.1420 C.3   321  TRP321      0.1640
     57  C         11.7380   25.4200   67.5870 C.2   321  TRP321      0.2290
     58  O         10.7140   24.9930   67.0240 O.2   321  TRP321     -0.2864
     59  CB        12.0910   24.2640   69.7940 C.3   321  TRP321      0.0576
     60  CG        12.2100   24.3590   71.2940 C.ar  321  TRP321      0.0006
     61  CD1       11.3980   23.7650   72.2080 C.ar  321  TRP321      0.0946
     62  CD2       13.1750   25.1160   72.0330 C.ar  321  TRP321      0.0152
     63  NE1       11.8130   24.0670   73.4850 N.ar  321  TRP321     -0.2442
     64  CE2       12.8960   24.8980   73.4210 C.ar  321  TRP321      0.0810
     65  CE3       14.2610   25.9550   71.6700 C.ar  321  TRP321      0.0012
     66  CZ2       13.6440   25.5040   74.4530 C.ar  321  TRP321      0.0191
     67  CZ3       15.0390   26.5730   72.7260 C.ar  321  TRP321      0.0001
     68  CH2       14.7030   26.3330   74.0890 C.ar  321  TRP321      0.0015
     69  N         17.6760   21.1340   75.0460 N.3   352  LYS352     -0.1245
     70  CA        16.9180   22.1960   75.6920 C.3   352  LYS352      0.1561
     71  C         15.8080   21.7010   76.6270 C.2   352  LYS352      0.2260
     72  O         15.5650   22.2830   77.6400 O.2   352  LYS352     -0.2867
     73  CB        16.3370   23.0960   74.6270 C.3   352  LYS352      0.0271
     74  CG        17.4070   23.8120   73.8470 C.3   352  LYS352      0.0035
     75  CD        18.2920   24.5540   74.8270 C.3   352  LYS352      0.0206
     76  CE        19.0130   25.6820   74.1360 C.3   352  LYS352      0.1093
     77  NZ        20.0630   26.2650   75.0250 N.3   352  LYS352     -0.1314
@<TRIPOS>BOND
     1     4     3    2
     2    58    57    2
     3    29    28    2
     4    13    11    1
     5     1     2    1
     6    57    56    1
     7    28    27    1
     8     3     7   am
     9     3     2    1
    10     8    11    1
    11     8     7    1
    12     8     9    1
    13    11    12    1
    14    26    27    1
    15    23    22    2
    16     2     5    1
    17    10     9    2
    18    32    33    1
    19    27    30    1
    20     9    15   am
    21    50    49    2
    22    51    52    1
    23    51    48    1
    24    22    21    1
    25    56    55    1
    26    56    59    1
    27    33    36    1
    28    33    34    1
    29    54    52   ar
    30    49    55   am
    31    49    48    1
    32    36    37    1
    33    39    37   am
    34     5     6    1
    35    12    14    1
    36    52    53   ar
    37    59    60    1
    38    15    16    1
    39    37    38    2
    40    30    31    1
    41    48    47    1
    42    21    20    1
    43    21    24    1
    44    20    17   am
    45    47    42   am
    46    34    40   am
    47    34    35    2
    48    17    16    1
    49    17    18    2
    50    16    19    1
    51    40    41    1
    52    60    62   ar
    53    60    61   ar
    54    24    25    1
    55    65    62   ar
    56    65    67   ar
    57    42    41    1
    58    42    43    2
    59    45    44    1
    60    62    64   ar
    61    41    44    1
    62    61    63   ar
    63    67    68   ar
    64    44    46    1
    65    64    63   ar
    66    64    66   ar
    67    74    73    1
    68    74    75    1
    69    68    66   ar
    70    76    75    1
    71    76    77    1
    72    73    70    1
    73    69    70    1
    74    70    71    1
    75    71    72    2
