@<TRIPOS>MOLECULE
tmp/5w2zA00.pdb
 225 208 0 0 0
SMALL
GASTEIGER

@<TRIPOS>ATOM
      1  N         31.1760  -73.1330   21.5680 N.3    25  VAL25      -0.1245
      2  CA        30.5280  -72.4510   20.4370 C.3    25  VAL25       0.1561
      3  C         29.0840  -72.9660   20.3440 C.2    25  VAL25       0.2260
      4  O         28.8590  -74.1830   20.1620 O.2    25  VAL25      -0.2867
      5  CB        31.2120  -72.7040   19.0860 C.3    25  VAL25       0.0252
      6  CG1       30.5740  -71.8410   17.9990 C.3    25  VAL25       0.0019
      7  CG2       32.6810  -72.3890   19.1740 C.3    25  VAL25       0.0019
      8  N         20.8880  -72.8170   12.5500 N.3    29  PHE29      -0.1241
      9  CA        20.7530  -72.5100   11.1360 C.3    29  PHE29       0.1605
     10  C         19.4680  -71.7360   10.9240 C.2    29  PHE29       0.2264
     11  O         18.4100  -72.1500   11.4280 O.2    29  PHE29      -0.2867
     12  CB        20.7910  -73.7830   10.2970 C.3    29  PHE29       0.0534
     13  CG        22.0580  -74.5940   10.4650 C.ar   29  PHE29      -0.0203
     14  CD1       22.2090  -75.4890   11.5370 C.ar   29  PHE29      -0.0042
     15  CD2       23.1020  -74.4880    9.5440 C.ar   29  PHE29      -0.0042
     16  CE1       23.3710  -76.2410   11.6870 C.ar   29  PHE29      -0.0003
     17  CE2       24.2600  -75.2470    9.6980 C.ar   29  PHE29      -0.0003
     18  CZ        24.3930  -76.1200   10.7660 C.ar   29  PHE29      -0.0000
     19  N         14.3940  -83.6930    7.6100 N.3    50  VAL50      -0.1245
     20  CA        14.8570  -82.3000    7.7070 C.3    50  VAL50       0.1561
     21  C         15.9720  -82.0490    6.6720 C.2    50  VAL50       0.2260
     22  O         16.8050  -82.9300    6.4300 O.2    50  VAL50      -0.2867
     23  CB        15.3860  -81.9510    9.1170 C.3    50  VAL50       0.0252
     24  CG1       15.5910  -80.4650    9.2540 C.3    50  VAL50       0.0019
     25  CG2       14.4350  -82.3980   10.2050 C.3    50  VAL50       0.0019
     26  N         18.7920  -78.9420    5.9020 N.3    52  ILE52      -0.1245
     27  CA        19.3600  -77.7400    6.4650 C.3    52  ILE52       0.1561
     28  C         20.2870  -77.1520    5.4380 C.2    52  ILE52       0.2260
     29  O         21.1200  -77.8870    4.8850 O.2    52  ILE52      -0.2867
     30  CB        20.1410  -78.0710    7.7390 C.3    52  ILE52       0.0252
     31  CG1       19.1890  -78.6110    8.7980 C.3    52  ILE52       0.0019
     32  CG2       20.8050  -76.8290    8.2750 C.3    52  ILE52       0.0019
     33  CD1       19.8070  -79.7380    9.5710 C.3    52  ILE52       0.0001
     34  N         24.1930  -70.9690    8.4260 N.3    57  VAL57      -0.1245
     35  CA        24.7420  -71.1230    9.7690 C.3    57  VAL57       0.1561
     36  C         24.9130  -69.7720   10.5120 C.2    57  VAL57       0.2260
     37  O         25.0510  -68.7330    9.8890 O.2    57  VAL57      -0.2867
     38  CB        26.0370  -71.9660    9.7280 C.3    57  VAL57       0.0252
     39  CG1       27.1960  -71.1830    9.1330 C.3    57  VAL57       0.0019
     40  CG2       26.3840  -72.5000   11.1130 C.3    57  VAL57       0.0019
     41  N         26.7870  -68.5560   14.2780 N.3    59  THR59      -0.1218
     42  CA        27.3870  -68.7730   15.5840 C.3    59  THR59       0.1862
     43  C         27.7200  -67.4150   16.1950 C.2    59  THR59       0.2287
     44  O         28.7710  -67.2480   16.8280 O.2    59  THR59      -0.2866
     45  CB        28.6480  -69.6520   15.4910 C.3    59  THR59       0.1770
     46  OG1       29.5030  -69.1360   14.4720 O.3    59  THR59      -0.2211
     47  CG2       28.3080  -71.0520   15.1280 C.3    59  THR59       0.0375
     48  N         33.6230  -66.2610   11.2870 N.3    64  ARG64      -0.1245
     49  CA        33.7590  -67.7180   11.5430 C.3    64  ARG64       0.1563
     50  C         32.6890  -68.4880   10.7770 C.2    64  ARG64       0.2260
     51  O         32.8990  -69.6190   10.3470 O.2    64  ARG64      -0.2867
     52  CB        33.6610  -68.0570   13.0360 C.3    64  ARG64       0.0307
     53  CG        34.2150  -69.4210   13.4370 C.3    64  ARG64       0.0489
     54  CD        33.2220  -70.1320   14.3370 C.3    64  ARG64       0.2205
     55  NE        33.2610  -69.6720   15.7330 N.pl3  64  ARG64      -0.0865
     56  CZ        32.3830  -68.8370   16.3040 C.cat  64  ARG64       0.5346
     57  NH1       31.3840  -68.3250   15.6150 N.pl3  64  ARG64       0.1354
     58  NH2       32.5030  -68.4910   17.5760 N.pl3  64  ARG64       0.1354
     59  N         34.0010  -69.0260    7.4450 N.3    67  HIS67      -0.1226
     60  CA        35.0590  -70.0080    7.4470 C.3    67  HIS67       0.1752
     61  C         34.4810  -71.4370    7.4860 C.2    67  HIS67       0.2595
     62  O         35.1050  -72.3910    6.9790 O.2    67  HIS67      -0.2718
     63  CB        36.1180  -69.7260    8.5350 C.3    67  HIS67       0.0759
     64  CG        37.3050  -70.6390    8.4510 C.ar   67  HIS67       0.0818
     65  ND1       37.8820  -71.2210    9.5630 N.ar   67  HIS67      -0.2268
     66  CD2       37.9840  -71.1220    7.3790 C.ar   67  HIS67       0.1154
     67  CE1       38.8760  -72.0080    9.1820 C.ar   67  HIS67       0.1986
     68  NE2       38.9530  -71.9710    7.8610 N.ar   67  HIS67      -0.2212
     69  N         33.2660  -71.5610    8.0390 N.am   68  LEU68      -0.1980
     70  CA        32.5880  -72.8570    8.1740 C.3    68  LEU68       0.1596
     71  C         32.2320  -73.4580    6.8220 C.2    68  LEU68       0.2287
     72  O         32.3060  -74.6820    6.6410 O.2    68  LEU68      -0.2864
     73  CB        31.3570  -72.7490    9.0720 C.3    68  LEU68       0.0297
     74  CG        31.7290  -72.7600   10.5610 C.3    68  LEU68       0.0022
     75  CD1       30.5330  -72.3980   11.4180 C.3    68  LEU68       0.0001
     76  CD2       32.3690  -74.0560   11.0450 C.3    68  LEU68       0.0001
     77  N         35.9880  -77.3300    6.6130 N.3    73  PHE73      -0.1227
     78  CA        34.6750  -77.5420    7.2610 C.3    73  PHE73       0.1736
     79  C         33.5490  -78.1210    6.3480 C.2    73  PHE73       0.2595
     80  O         33.6710  -79.2780    5.8930 O.2    73  PHE73      -0.2718
     81  CB        34.2610  -76.2780    8.0220 C.3    73  PHE73       0.0547
     82  CG        35.1340  -76.0190    9.1840 C.ar   73  PHE73      -0.0202
     83  CD1       34.9610  -76.7380   10.3640 C.ar   73  PHE73      -0.0042
     84  CD2       36.2090  -75.1390    9.0780 C.ar   73  PHE73      -0.0042
     85  CE1       35.8200  -76.5470   11.4340 C.ar   73  PHE73      -0.0003
     86  CE2       37.0730  -74.9440   10.1480 C.ar   73  PHE73      -0.0003
     87  CZ        36.8760  -75.6470   11.3280 C.ar   73  PHE73      -0.0000
     88  N         32.4850  -77.3430    6.0890 N.am   74  PHE74      -0.1976
     89  CA        31.2880  -77.8370    5.3770 C.3    74  PHE74       0.1639
     90  C         31.4200  -78.1150    3.8710 C.2    74  PHE74       0.2290
     91  O         30.7420  -79.0170    3.3660 O.2    74  PHE74      -0.2864
     92  CB        30.0470  -76.9790    5.6620 C.3    74  PHE74       0.0560
     93  CG        29.4430  -77.2120    7.0310 C.ar   74  PHE74      -0.0200
     94  CD1       28.8610  -78.4540    7.3660 C.ar   74  PHE74      -0.0042
     95  CD2       29.4340  -76.1920    7.9950 C.ar   74  PHE74      -0.0042
     96  CE1       28.3040  -78.6730    8.6310 C.ar   74  PHE74      -0.0003
     97  CE2       28.8770  -76.4130    9.2600 C.ar   74  PHE74      -0.0003
     98  CZ        28.3060  -77.6500    9.5780 C.ar   74  PHE74      -0.0000
     99  N         22.7640  -80.1690    4.6930 N.3    82  MET82      -0.1196
    100  CA        22.7860  -81.3730    5.5000 C.3    82  MET82       0.1786
    101  C         21.3620  -81.8210    5.7660 C.2    82  MET82       0.2306
    102  O         20.4330  -80.9940    5.8770 O.2    82  MET82      -0.2863
    103  CB        23.6560  -81.2530    6.7530 C.2    82  MET82       0.0070
    104  CG        22.9680  -80.6730    7.9630 C.2    82  MET82       0.0282
    105  SD        23.9760  -80.5640    9.4640 S.3    82  MET82      -0.1125
    106  CE        24.7060  -82.1750    9.4590 C.3    82  MET82       0.0742
    107  N         18.6700  -84.8780    7.6450 N.3    84  PHE84      -0.1241
    108  CA        18.2730  -85.9150    8.5740 C.3    84  PHE84       0.1605
    109  C         17.0100  -86.6350    8.1100 C.2    84  PHE84       0.2264
    110  O         16.0020  -85.9870    7.8120 O.2    84  PHE84      -0.2867
    111  CB        18.0000  -85.3290    9.9470 C.3    84  PHE84       0.0534
    112  CG        17.5950  -86.3580   10.9220 C.ar   84  PHE84      -0.0203
    113  CD1       18.5360  -87.2770   11.3980 C.ar   84  PHE84      -0.0042
    114  CD2       16.2770  -86.4830   11.3000 C.ar   84  PHE84      -0.0042
    115  CE1       18.1800  -88.2780   12.2800 C.ar   84  PHE84      -0.0003
    116  CE2       15.9060  -87.4870   12.1820 C.ar   84  PHE84      -0.0003
    117  CZ        16.8570  -88.3800   12.6730 C.ar   84  PHE84      -0.0000
    118  N         21.8260  -89.2510    9.3810 N.3   103  LEU103     -0.1245
    119  CA        22.3800  -87.9220    9.2370 C.3   103  LEU103      0.1561
    120  C         23.3930  -87.9340    8.1170 C.2   103  LEU103      0.2260
    121  O         24.1830  -88.8980    7.9620 O.2   103  LEU103     -0.2867
    122  CB        23.0220  -87.4650   10.5290 C.3   103  LEU103      0.0270
    123  CG        23.3410  -85.9640   10.5550 C.3   103  LEU103      0.0019
    124  CD1       22.1180  -85.1070   10.2840 C.3   103  LEU103      0.0001
    125  CD2       23.9260  -85.6270   11.9130 C.3   103  LEU103      0.0001
    126  N         26.2460  -85.3570    6.4620 N.3   105  ILE105     -0.1245
    127  CA        27.0290  -84.1010    6.5020 C.3   105  ILE105      0.1561
    128  C         28.0740  -84.2320    5.4320 C.2   105  ILE105      0.2260
    129  O         28.7690  -85.2630    5.3840 O.2   105  ILE105     -0.2867
    130  CB        27.7480  -83.8450    7.8430 C.3   105  ILE105      0.0252
    131  CG1       26.8830  -84.2860    9.0300 C.3   105  ILE105      0.0019
    132  CG2       28.0870  -82.3690    7.9300 C.3   105  ILE105      0.0019
    133  CD1       27.4230  -84.0230   10.4190 C.3   105  ILE105      0.0001
    134  N         22.1470  -92.1100   13.5260 N.3   112  ILE112     -0.1245
    135  CA        22.2600  -91.5530   14.8720 C.3   112  ILE112      0.1561
    136  C         21.0110  -91.7920   15.7400 C.2   112  ILE112      0.2260
    137  O         19.9500  -92.1090   15.2120 O.2   112  ILE112     -0.2867
    138  CB        22.6740  -90.0720   14.7980 C.3   112  ILE112      0.0252
    139  CG1       21.6350  -89.2360   14.0570 C.3   112  ILE112      0.0019
    140  CG2       23.9950  -89.9820   14.0580 C.3   112  ILE112      0.0019
    141  CD1       21.6310  -87.7810   14.4800 C.3   112  ILE112      0.0001
    142  N         18.6170  -89.7750   18.5260 N.3   114  LEU114     -0.1245
    143  CA        18.2690  -88.5560   19.2620 C.3   114  LEU114      0.1561
    144  C         17.2130  -88.8480   20.3270 C.2   114  LEU114      0.2260
    145  O         16.3530  -89.7270   20.1560 O.2   114  LEU114     -0.2867
    146  CB        17.7670  -87.4790   18.3180 C.3   114  LEU114      0.0270
    147  CG        18.6740  -87.1880   17.1210 C.3   114  LEU114      0.0019
    148  CD1       17.8870  -86.4630   16.0500 C.3   114  LEU114      0.0001
    149  CD2       19.8810  -86.3710   17.5310 C.3   114  LEU114      0.0001
    150  N         26.7120  -86.2290   18.4200 N.3   139  ILE139     -0.1245
    151  CA        27.3800  -86.8890   17.2590 C.3   139  ILE139      0.1561
    152  C         28.8960  -86.6400   17.3080 C.2   139  ILE139      0.2260
    153  O         29.3400  -85.5980   17.8490 O.2   139  ILE139     -0.2867
    154  CB        26.7880  -86.4520   15.8900 C.3   139  ILE139      0.0252
    155  CG1       26.8290  -84.9370   15.7010 C.3   139  ILE139      0.0019
    156  CG2       25.3290  -86.8410   15.8080 C.3   139  ILE139      0.0019
    157  CD1       26.6800  -84.5120   14.2580 C.3   139  ILE139      0.0001
    158  N         32.2760  -85.7260   15.2730 N.3   141  ARG141     -0.1245
    159  CA        33.0350  -85.2290   14.0900 C.3   141  ARG141      0.1563
    160  C         33.7390  -86.3820   13.3610 C.2   141  ARG141      0.2260
    161  O         33.6010  -86.5430   12.1440 O.2   141  ARG141     -0.2867
    162  CB        34.0480  -84.1440   14.5060 C.3   141  ARG141      0.0307
    163  CG        33.4840  -82.7170   14.5560 C.3   141  ARG141      0.0489
    164  CD        34.5030  -81.6750   15.0240 C.3   141  ARG141      0.2205
    165  NE        35.8350  -82.0190   14.5330 N.pl3 141  ARG141     -0.0865
    166  CZ        36.9820  -81.8750   15.1910 C.cat 141  ARG141      0.5346
    167  NH1       37.0310  -81.3650   16.4030 N.pl3 141  ARG141      0.1354
    168  NH2       38.1050  -82.2560   14.6200 N.pl3 141  ARG141      0.1354
    169  N         34.4290  -85.2700    9.5370 N.3   146  PHE146     -0.1241
    170  CA        34.1750  -83.8520    9.4340 C.3   146  PHE146      0.1605
    171  C         35.2690  -82.9970   10.0770 C.2   146  PHE146      0.2264
    172  O         35.6700  -83.2360   11.2380 O.2   146  PHE146     -0.2867
    173  CB        32.8370  -83.5270   10.0620 C.3   146  PHE146      0.0534
    174  CG        32.5170  -82.0610   10.0750 C.ar  146  PHE146     -0.0203
    175  CD1       31.9720  -81.4460    8.9520 C.ar  146  PHE146     -0.0042
    176  CD2       32.7610  -81.2860   11.2140 C.ar  146  PHE146     -0.0042
    177  CE1       31.6560  -80.0830    8.9500 C.ar  146  PHE146     -0.0003
    178  CE2       32.4470  -79.9280   11.2230 C.ar  146  PHE146     -0.0003
    179  CZ        31.8900  -79.3240   10.0890 C.ar  146  PHE146     -0.0000
    180  N         41.3340  -80.1190   11.4430 N.3   150  THR150     -0.1218
    181  CA        41.2970  -79.6410   12.8510 C.3   150  THR150      0.1862
    182  C         41.3980  -80.7570   13.9010 C.2   150  THR150      0.2287
    183  O         40.6400  -81.7150   13.8680 O.2   150  THR150     -0.2866
    184  CB        40.0110  -78.8770   13.1200 C.3   150  THR150      0.1770
    185  OG1       39.7300  -77.9840   12.0210 O.3   150  THR150     -0.2211
    186  CG2       40.1170  -78.1370   14.4290 C.3   150  THR150      0.0375
    187  N         42.0150  -78.8570   19.7780 N.3   154  THR154     -0.1203
    188  CA        41.4980  -77.4910   19.5040 C.3   154  THR154      0.1994
    189  C         39.9550  -77.3940   19.5320 C.2   154  THR154      0.2617
    190  O         39.3820  -76.4470   20.0950 O.2   154  THR154     -0.2717
    191  CB        42.0340  -76.9900   18.1340 C.3   154  THR154      0.1784
    192  OG1       43.4590  -77.0660   18.1570 O.3   154  THR154     -0.2211
    193  CG2       41.5470  -75.5150   17.7480 C.3   154  THR154      0.0376
    194  N         39.3100  -78.3770   18.8980 N.am  155  LEU155     -0.1979
    195  CA        37.8520  -78.4420   18.7330 C.3   155  LEU155      0.1596
    196  C         37.4300  -79.8410   19.1180 C.2   155  LEU155      0.2287
    197  O         38.0600  -80.8210   18.7060 O.2   155  LEU155     -0.2864
    198  CB        37.5010  -78.1790   17.2940 C.3   155  LEU155      0.0297
    199  CG        36.0800  -78.0250   16.8260 C.3   155  LEU155      0.0022
    200  CD1       35.4830  -76.6860   17.2030 C.3   155  LEU155      0.0001
    201  CD2       36.1080  -78.1400   15.3120 C.3   155  LEU155      0.0001
    202  N         29.9280  -83.0720   18.9350 N.3   159  ILE159     -0.1245
    203  CA        28.9270  -82.0240   18.6840 C.3   159  ILE159      0.1561
    204  C         27.6470  -82.3970   19.4160 C.2   159  ILE159      0.2260
    205  O         27.2220  -83.5460   19.3660 O.2   159  ILE159     -0.2867
    206  CB        28.6240  -81.8530   17.1840 C.3   159  ILE159      0.0252
    207  CG1       29.9140  -81.6940   16.3880 C.3   159  ILE159      0.0019
    208  CG2       27.8050  -80.6010   16.9760 C.3   159  ILE159      0.0019
    209  CD1       29.7570  -81.7640   14.8860 C.3   159  ILE159      0.0001
    210  N         23.7330  -81.8780   19.6620 N.3   161  LEU161     -0.1245
    211  CA        22.5490  -81.3940   18.9360 C.3   161  LEU161      0.1561
    212  C         21.4140  -81.0510   19.8870 C.2   161  LEU161      0.2260
    213  O         21.0370  -81.8520   20.7510 O.2   161  LEU161     -0.2867
    214  CB        22.0980  -82.4380   17.9180 C.3   161  LEU161      0.0270
    215  CG        23.2360  -83.0040   17.0950 C.3   161  LEU161      0.0019
    216  CD1       22.7860  -84.1240   16.1990 C.3   161  LEU161      0.0001
    217  CD2       23.7870  -81.8530   16.2900 C.3   161  LEU161      0.0001
    218  N         17.7410  -79.6240   18.9810 N.3   163  ILE163     -0.1245
    219  CA        16.6980  -79.1900   18.0290 C.3   163  ILE163      0.1561
    220  C         15.4530  -78.9350   18.8390 C.2   163  ILE163      0.2260
    221  O         14.8800  -79.8660   19.4100 O.2   163  ILE163     -0.2867
    222  CB        16.3190  -80.2830   16.9920 C.3   163  ILE163      0.0252
    223  CG1       17.5390  -81.0520   16.4690 C.3   163  ILE163      0.0019
    224  CG2       15.4900  -79.7070   15.8590 C.3   163  ILE163      0.0019
    225  CD1       18.6360  -80.1990   15.8840 C.3   163  ILE163      0.0001
@<TRIPOS>BOND
     1    91    90    2
     2    90    89    1
     3    99   100    1
     4    29    28    2
     5    89    92    1
     6    89    88    1
     7   129   128    2
     8   128   127    1
     9    28    27    1
    10   100   101    1
    11   100   103    1
    12    92    93    1
    13   101   102    2
    14    80    79    2
    15    26    27    1
    16    88    79   am
    17    79    78    1
    18    22    21    2
    19   126   127    1
    20    27    30    1
    21   127   130    1
    22    77    78    1
    23    72    71    2
    24    21    20    1
    25   103   104    2
    26    71    70    1
    27    62    61    2
    28    93    94   ar
    29    93    95   ar
    30    78    81    1
    31    94    96   ar
    32    66    68   ar
    33    66    64   ar
    34    59    60    1
    35    60    61    1
    36    60    63    1
    37    61    69   am
    38    19    20    1
    39   107   108    1
    40    20    23    1
    41    30    32    1
    42    30    31    1
    43   110   109    2
    44   130   132    1
    45   130   131    1
    46    68    67   ar
    47   121   120    2
    48   104   105    1
    49    95    97   ar
    50    81    82    1
    51    69    70    1
    52   109   108    1
    53   120   119    1
    54    70    73    1
    55    34    35    1
    56    64    63    1
    57    64    65   ar
    58   108   111    1
    59    96    98   ar
    60    31    33    1
    61   177   175   ar
    62   177   179   ar
    63   175   174   ar
    64   131   133    1
    65    73    74    1
    66    84    82   ar
    67    84    86   ar
    68    23    24    1
    69    23    25    1
    70    39    38    1
    71    67    65   ar
    72    82    83   ar
    73   119   118    1
    74   119   122    1
    75    97    98   ar
    76   170   169    1
    77   170   173    1
    78   170   171    1
    79   106   105    1
    80    15    17   ar
    81    15    13   ar
    82    17    18   ar
    83    38    35    1
    84    38    40    1
    85    35    36    1
    86    37    36    2
    87   111   112    1
    88   173   174    1
    89   174   176   ar
    90   171   172    2
    91   179   178   ar
    92    86    87   ar
    93   124   123    1
    94    12    13    1
    95    12     9    1
    96    51    50    2
    97    83    85   ar
    98    13    14   ar
    99   122   123    1
   100   123   125    1
   101    74    76    1
   102    74    75    1
   103    18    16   ar
   104    50    49    1
   105   112   114   ar
   106   112   113   ar
   107    10     9    1
   108    10    11    2
   109     9     8    1
   110   176   178   ar
   111    48    49    1
   112   114   116   ar
   113    87    85   ar
   114   113   115   ar
   115   180   181    1
   116    14    16   ar
   117    49    52    1
   118   185   184    1
   119   161   160    2
   120   116   117   ar
   121   115   117   ar
   122   181   184    1
   123   181   182    1
   124    52    53    1
   125   184   186    1
   126   160   159    1
   127    53    54    1
   128   134   135    1
   129   183   182    2
   130   139   141    1
   131   139   138    1
   132   140   138    1
   133   159   162    1
   134   159   158    1
   135   157   155    1
   136    41    42    1
   137    54    55    1
   138    46    45    1
   139   162   163    1
   140   165   164    1
   141   165   166    2
   142   163   164    1
   143   168   166    1
   144   138   135    1
   145   135   136    1
   146   209   207    1
   147    47    45    1
   148   166   167    1
   149   137   136    2
   150   201   199    1
   151    45    42    1
   152    42    43    1
   153    57    56    1
   154   155   154    1
   155    55    56    2
   156   156   154    1
   157   224   222    1
   158   225   223    1
   159   154   151    1
   160   148   147    1
   161    43    44    2
   162   216   215    1
   163   217   215    1
   164    56    58    1
   165   207   206    1
   166   223   222    1
   167   199   200    1
   168   199   198    1
   169   208   206    1
   170   222   219    1
   171   215   214    1
   172   147   149    1
   173   147   146    1
   174   206   203    1
   175   151   152    1
   176   151   150    1
   177   198   195    1
   178   152   153    2
   179   193   191    1
   180   214   211    1
   181     6     5    1
   182   219   220    1
   183   219   218    1
   184   191   192    1
   185   191   188    1
   186   146   143    1
   187   142   143    1
   188   203   202    1
   189   203   204    1
   190   197   196    2
   191   195   194    1
   192   195   196    1
   193   220   221    2
   194   194   189   am
   195   211   210    1
   196   211   212    1
   197     5     7    1
   198     5     2    1
   199   143   144    1
   200   205   204    2
   201   188   189    1
   202   188   187    1
   203   189   190    2
   204   212   213    2
   205   145   144    2
   206     4     3    2
   207     3     2    1
   208     2     1    1
