@<TRIPOS>MOLECULE
tmp/5w3hB02.pdb
 139 129 0 0 0
SMALL
GASTEIGER

@<TRIPOS>ATOM
      1  N        325.6800  434.2380  316.2120 N.3   211  CYS211     -0.1235
      2  CA       326.1020  433.0060  315.5520 C.3   211  CYS211      0.1677
      3  C        327.5650  433.0670  315.1330 C.2   211  CYS211      0.2270
      4  O        328.3390  432.1410  315.3990 O.2   211  CYS211     -0.2867
      5  CB       325.2200  432.7450  314.3320 C.3   211  CYS211      0.0956
      6  SG       323.4670  432.5390  314.6710 S.3   211  CYS211     -0.0801
      7  N        329.8840  432.2570  318.5900 N.3   215  LEU215     -0.1245
      8  CA       329.7630  430.8440  318.2660 C.3   215  LEU215      0.1561
      9  C        330.6160  430.4040  317.0760 C.2   215  LEU215      0.2260
     10  O        330.6410  429.2090  316.7660 O.2   215  LEU215     -0.2867
     11  CB       328.2870  430.5130  318.0320 C.3   215  LEU215      0.0270
     12  CG       327.3530  431.3670  318.9110 C.3   215  LEU215      0.0019
     13  CD1      325.8790  431.1350  318.5910 C.3   215  LEU215      0.0001
     14  CD2      327.6160  431.2020  320.4140 C.3   215  LEU215      0.0001
     15  N        330.6120  430.4190  313.7710 N.3   217  LEU217     -0.1245
     16  CA       329.8520  429.5220  312.9150 C.3   217  LEU217      0.1561
     17  C        330.3860  429.5200  311.4820 C.2   217  LEU217      0.2260
     18  O        331.0020  430.4810  311.0140 O.2   217  LEU217     -0.2867
     19  CB       328.3840  429.9320  312.9110 C.3   217  LEU217      0.0270
     20  CG       327.3010  428.8580  312.9400 C.3   217  LEU217      0.0019
     21  CD1      326.0420  429.5380  313.3570 C.3   217  LEU217      0.0001
     22  CD2      327.0960  428.1630  311.6150 C.3   217  LEU217      0.0001
     23  N        318.5620  427.2970  313.0530 N.3   224  ASP224     -0.1239
     24  CA       319.5100  427.6110  314.1130 C.3   224  ASP224      0.1674
     25  C        319.0630  428.8270  314.9180 C.2   224  ASP224      0.2266
     26  O        319.0510  428.7980  316.1540 O.2   224  ASP224     -0.2867
     27  CB       320.8840  427.8430  313.4910 C.3   224  ASP224      0.1410
     28  CG       321.4140  426.6100  312.7760 C.2   224  ASP224      0.3668
     29  OD1      321.2950  425.4990  313.3350 O.co2 224  ASP224     -0.2456
     30  OD2      321.9530  426.7520  311.6580 O.co2 224  ASP224     -0.2456
     31  N        316.0680  428.1260  317.0070 N.3   227  ASN227     -0.1225
     32  CA       316.3590  427.4080  318.2450 C.3   227  ASN227      0.1785
     33  C        316.6660  428.3700  319.3870 C.2   227  ASN227      0.2597
     34  O        316.2300  428.1480  320.5230 O.2   227  ASN227     -0.2718
     35  CB       317.5150  426.4330  318.0300 C.3   227  ASN227      0.1169
     36  CG       317.0640  425.1280  317.4050 C.2   227  ASN227      0.2627
     37  OD1      316.0110  424.5910  317.7530 O.2   227  ASN227     -0.2716
     38  ND2      317.8560  424.6120  316.4730 N.am  227  ASN227     -0.0877
     39  N        317.4170  429.4390  319.1090 N.am  228  LEU228     -0.1980
     40  CA       317.6520  430.4690  320.1180 C.3   228  LEU228      0.1596
     41  C        316.3370  431.0700  320.5970 C.2   228  LEU228      0.2287
     42  O        316.0720  431.1470  321.8080 O.2   228  LEU228     -0.2864
     43  CB       318.5580  431.5630  319.5500 C.3   228  LEU228      0.0297
     44  CG       320.0620  431.3040  319.4650 C.3   228  LEU228      0.0022
     45  CD1      320.6810  432.1600  318.3730 C.3   228  LEU228      0.0001
     46  CD2      320.7190  431.5980  320.8020 C.3   228  LEU228      0.0001
     47  N        314.5100  428.7170  322.7860 N.3   231  SER231     -0.1217
     48  CA       315.0890  428.6280  324.1210 C.3   231  SER231      0.1889
     49  C        314.6340  429.7890  324.9940 C.2   231  SER231      0.2288
     50  O        314.3180  429.6000  326.1760 O.2   231  SER231     -0.2866
     51  CB       316.6150  428.5880  324.0320 C.3   231  SER231      0.2089
     52  OG       317.1960  428.4650  325.3180 O.3   231  SER231     -0.2183
     53  N        320.4090  435.7800  326.5060 N.3   270  TYR270     -0.1241
     54  CA       320.4800  434.3990  326.9530 C.3   270  TYR270      0.1605
     55  C        321.9180  434.0240  327.2680 C.2   270  TYR270      0.2264
     56  O        322.8500  434.4890  326.6050 O.2   270  TYR270     -0.2867
     57  CB       319.9030  433.4480  325.8970 C.3   270  TYR270      0.0534
     58  CG       319.7220  432.0360  326.3940 C.ar  270  TYR270     -0.0201
     59  CD1      318.6260  431.6910  327.1730 C.ar  270  TYR270     -0.0009
     60  CD2      320.6460  431.0480  326.0870 C.ar  270  TYR270     -0.0009
     61  CE1      318.4560  430.4000  327.6330 C.ar  270  TYR270      0.0417
     62  CE2      320.4850  429.7550  326.5410 C.ar  270  TYR270      0.0417
     63  CZ       319.3880  429.4360  327.3130 C.ar  270  TYR270      0.1957
     64  OH       319.2230  428.1480  327.7680 O.3   270  TYR270     -0.2866
     65  N        324.4410  430.5230  328.9650 N.3   272  PRO272     -0.2102
     66  CA       325.6850  430.9430  328.3090 C.3   272  PRO272      0.1504
     67  C        325.6820  430.7380  326.7950 C.2   272  PRO272      0.2576
     68  O        324.7260  430.1770  326.2600 O.2   272  PRO272     -0.2718
     69  CB       326.7240  430.0370  328.9630 C.3   272  PRO272      0.0282
     70  CG       325.9760  428.7630  329.1840 C.3   272  PRO272      0.0208
     71  CD       324.5360  429.1400  329.4650 C.3   272  PRO272      0.0893
     72  N        326.7320  431.2070  326.1170 N.am  273  LEU273     -0.1966
     73  CA       326.9450  430.9250  324.6970 C.3   273  LEU273      0.1728
     74  C        328.4320  430.6810  324.4610 C.2   273  LEU273      0.2617
     75  O        329.2300  431.6170  324.5630 O.2   273  LEU273     -0.2715
     76  CB       326.4390  432.0830  323.8340 C.3   273  LEU273      0.0311
     77  CG       324.9570  432.4600  323.9380 C.3   273  LEU273      0.0022
     78  CD1      324.7000  433.8260  323.3220 C.3   273  LEU273      0.0001
     79  CD2      324.0900  431.4020  323.2740 C.3   273  LEU273      0.0001
     80  N        328.8000  429.4600  324.0710 N.am  274  THR274     -0.1937
     81  CA       330.1930  429.1160  323.8020 C.3   274  THR274      0.2028
     82  C        330.2730  428.2260  322.5700 C.2   274  THR274      0.2642
     83  O        329.4810  427.2930  322.4150 O.2   274  THR274     -0.2714
     84  CB       330.8520  428.4140  325.0070 C.3   274  THR274      0.1808
     85  OG1      331.2720  429.3900  325.9680 O.3   274  THR274     -0.2208
     86  CG2      332.0560  427.5830  324.5810 C.3   274  THR274      0.0379
     87  N        331.2440  428.5170  321.7030 N.am  275  ALA275     -0.1963
     88  CA       331.4330  427.7630  320.4720 C.3   275  ALA275      0.1728
     89  C        331.8240  426.3130  320.7670 C.2   275  ALA275      0.2616
     90  O        332.3230  425.9820  321.8460 O.2   275  ALA275     -0.2715
     91  CB       332.5010  428.4270  319.6030 C.3   275  ALA275      0.0334
     92  N        331.5830  425.4440  319.7780 N.am  276  ILE276     -0.1977
     93  CA       331.8260  424.0120  319.9380 C.3   276  ILE276      0.1596
     94  C        333.2730  423.7480  320.3270 C.2   276  ILE276      0.2287
     95  O        334.2030  424.3950  319.8310 O.2   276  ILE276     -0.2864
     96  CB       331.4930  423.2520  318.6420 C.3   276  ILE276      0.0276
     97  CG1      330.0320  423.4210  318.2540 C.3   276  ILE276      0.0022
     98  CG2      331.7950  421.7660  318.7880 C.3   276  ILE276      0.0022
     99  CD1      329.7300  422.8670  316.8770 C.3   276  ILE276      0.0001
    100  N        333.7580  424.1050  325.0800 N.3   279  GLN279     -0.1245
    101  CA       332.9130  423.8160  326.2340 C.3   279  GLN279      0.1566
    102  C        333.7270  423.3110  327.4210 C.2   279  GLN279      0.2260
    103  O        333.3850  423.5980  328.5740 O.2   279  GLN279     -0.2867
    104  CB       331.8450  422.7930  325.8370 C.3   279  GLN279      0.0367
    105  CG       330.9830  422.2710  326.9760 C.3   279  GLN279      0.0905
    106  CD       329.8940  421.3250  326.4960 C.2   279  GLN279      0.2608
    107  OE1      329.6210  421.2310  325.2990 O.2   279  GLN279     -0.2717
    108  NE2      329.2690  420.6190  327.4300 N.am  279  GLN279     -0.0878
    109  N        335.3240  426.0310  329.8740 N.3   282  ARG282     -0.1245
    110  CA       334.3870  426.9470  330.5050 C.3   282  ARG282      0.1563
    111  C        334.0180  426.4860  331.9100 C.2   282  ARG282      0.2260
    112  O        334.0450  425.2920  332.2240 O.2   282  ARG282     -0.2867
    113  CB       333.1070  427.0770  329.6770 C.3   282  ARG282      0.0307
    114  CG       333.3460  427.3100  328.2050 C.3   282  ARG282      0.0489
    115  CD       334.0220  428.6420  327.9520 C.3   282  ARG282      0.2205
    116  NE       334.4100  428.7830  326.5520 N.pl3 282  ARG282     -0.0865
    117  CZ       334.8590  429.9080  326.0080 C.cat 282  ARG282      0.5346
    118  NH1      334.9760  431.0040  326.7440 N.pl3 282  ARG282      0.1354
    119  NH2      335.1870  429.9380  324.7230 N.pl3 282  ARG282      0.1354
    120  N        330.7280  427.1850  334.5820 N.3   284  LEU284     -0.1245
    121  CA       329.3940  427.7610  334.6880 C.3   284  LEU284      0.1561
    122  C        329.2700  428.3670  336.0780 C.2   284  LEU284      0.2260
    123  O        329.1140  427.6480  337.0700 O.2   284  LEU284     -0.2867
    124  CB       328.3160  426.7040  334.4510 C.3   284  LEU284      0.0270
    125  CG       328.1900  426.0760  333.0610 C.3   284  LEU284      0.0019
    126  CD1      327.1320  424.9820  333.0630 C.3   284  LEU284      0.0001
    127  CD2      327.8630  427.1330  332.0180 C.3   284  LEU284      0.0001
    128  N        321.3170  419.7310  328.6360 N.3   360  GLY360     -0.1210
    129  CA       322.6690  419.9700  328.1700 C.3   360  GLY360      0.1956
    130  C        323.5180  420.8430  329.0700 C.2   360  GLY360      0.2611
    131  O        324.7310  420.9330  328.8430 O.2   360  GLY360     -0.2717
    132  N        322.9340  421.4950  330.0760 N.am  361  LEU361     -0.1979
    133  CA       323.6830  422.3890  330.9490 C.3   361  LEU361      0.1596
    134  C        323.1640  422.2790  332.3740 C.2   361  LEU361      0.2287
    135  O        321.9780  422.0290  332.6030 O.2   361  LEU361     -0.2864
    136  CB       323.5910  423.8530  330.4910 C.3   361  LEU361      0.0297
    137  CG       323.9590  424.1910  329.0460 C.3   361  LEU361      0.0022
    138  CD1      322.7380  424.1270  328.1390 C.3   361  LEU361      0.0001
    139  CD2      324.6090  425.5530  328.9730 C.3   361  LEU361      0.0001
@<TRIPOS>BOND
     1    18    17    2
     2    17    16    1
     3    22    20    1
     4    30    28   ar
     5    28    29   ar
     6    28    27    1
     7    19    16    1
     8    19    20    1
     9    16    15    1
    10    20    21    1
    11    23    24    1
    12    27    24    1
    13    24    25    1
    14     5     6    1
    15     5     2    1
    16    25    26    2
    17     3     4    2
    18     3     2    1
    19     2     1    1
    20    38    36   am
    21    10     9    2
    22    99    97    1
    23    31    32    1
    24     9     8    1
    25    36    37    2
    26    36    35    1
    27    35    32    1
    28    11     8    1
    29    11    12    1
    30    32    33    1
    31    97    96    1
    32     8     7    1
    33    45    44    1
    34    13    12    1
    35    96    98    1
    36    96    93    1
    37    12    14    1
    38    39    33   am
    39    39    40    1
    40    33    34    2
    41    44    43    1
    42    44    46    1
    43    43    40    1
    44    91    88    1
    45    92    93    1
    46    92    89   am
    47    95    94    2
    48    93    94    1
    49    40    41    1
    50    88    89    1
    51    88    87    1
    52    41    42    2
    53    89    90    2
    54    87    82   am
    55    83    82    2
    56    82    81    1
    57    47    48    1
    58    79    77    1
    59    78    77    1
    60    81    80    1
    61    81    84    1
    62    76    77    1
    63    76    73    1
    64    51    48    1
    65    51    52    1
    66    80    74   am
    67    48    49    1
    68    74    75    2
    69    74    73    1
    70    86    84    1
    71    73    72    1
    72   119   117    1
    73    49    50    2
    74    84    85    1
    75   100   101    1
    76   107   106    2
    77   104   101    1
    78   104   105    1
    79    57    58    1
    80    57    54    1
    81   117   116    2
    82   117   118    1
    83    60    58   ar
    84    60    62   ar
    85    72    67   am
    86   101   102    1
    87    68    67    2
    88    58    59   ar
    89   106   105    1
    90   106   108   am
    91    53    54    1
    92    62    63   ar
    93   116   115    1
    94    56    55    2
    95    67    66    1
    96    54    55    1
    97    59    61   ar
    98    63    61   ar
    99    63    64    1
   100   102   103    2
   101   115   114    1
   102   138   137    1
   103   129   128    1
   104   129   130    1
   105   114   113    1
   106    66    69    1
   107    66    65    1
   108   131   130    2
   109    69    70    1
   110    65    71    1
   111   139   137    1
   112   137   136    1
   113   130   132   am
   114    70    71    1
   115   113   110    1
   116   109   110    1
   117   132   133    1
   118   136   133    1
   119   110   111    1
   120   133   134    1
   121   111   112    2
   122   127   125    1
   123   134   135    2
   124   125   126    1
   125   125   124    1
   126   124   121    1
   127   120   121    1
   128   121   122    1
   129   122   123    2
