@<TRIPOS>MOLECULE
tmp/5w3iA00.pdb
 156 148 0 0 0
SMALL
GASTEIGER

@<TRIPOS>ATOM
      1  N         33.7100  -14.9970   14.2650 N.3    24  TYR24      -0.1241
      2  CA        33.0210  -16.1030   14.9090 C.3    24  TYR24       0.1605
      3  C         33.9890  -17.1220   15.4980 C.2    24  TYR24       0.2264
      4  O         33.5590  -18.2070   15.9040 O.2    24  TYR24      -0.2867
      5  CB        32.0790  -16.7890   13.9110 C.3    24  TYR24       0.0534
      6  CG        30.9340  -15.9510   13.4170 C.ar   24  TYR24      -0.0201
      7  CD1       30.4540  -14.8910   14.1750 C.ar   24  TYR24      -0.0009
      8  CD2       30.3060  -16.2400   12.2000 C.ar   24  TYR24      -0.0009
      9  CE1       29.3620  -14.1290   13.7310 C.ar   24  TYR24       0.0417
     10  CE2       29.2160  -15.4920   11.7500 C.ar   24  TYR24       0.0417
     11  CZ        28.7570  -14.4470   12.5270 C.ar   24  TYR24       0.1957
     12  OH        27.6620  -13.7120   12.1330 O.3    24  TYR24      -0.2866
     13  N         32.7020  -24.7230    5.6020 N.3    34  LYS34      -0.1245
     14  CA        32.0060  -23.5080    6.0210 C.3    34  LYS34       0.1561
     15  C         32.5100  -22.2930    5.2530 C.2    34  LYS34       0.2260
     16  O         31.7190  -21.4370    4.8370 O.2    34  LYS34      -0.2867
     17  CB        32.1870  -23.3030    7.5240 C.3    34  LYS34       0.0271
     18  CG        31.4080  -22.1260    8.0950 C.3    34  LYS34       0.0035
     19  CD        31.0950  -22.3520    9.5710 C.3    34  LYS34       0.0206
     20  CE        30.2980  -21.2020   10.1680 C.3    34  LYS34       0.1093
     21  NZ        29.8260  -21.5220   11.5500 N.3    34  LYS34      -0.1314
     22  N         30.9220  -22.4190    1.9400 N.3    37  ALA37      -0.1231
     23  CA        29.4920  -22.1580    2.0850 C.3    37  ALA37       0.1694
     24  C         29.2150  -20.6690    2.2310 C.2    37  ALA37       0.2591
     25  O         28.2790  -20.1390    1.6210 O.2    37  ALA37      -0.2718
     26  CB        28.9550  -22.9140    3.2950 C.3    37  ALA37       0.0304
     27  N         30.0220  -19.9780    3.0390 N.am   38  ILE38      -0.1980
     28  CA        29.8160  -18.5500    3.2710 C.3    38  ILE38       0.1595
     29  C         30.0460  -17.7670    1.9880 C.2    38  ILE38       0.2287
     30  O         29.2510  -16.8940    1.6170 O.2    38  ILE38      -0.2864
     31  CB        30.7390  -18.0600    4.3980 C.3    38  ILE38       0.0276
     32  CG1       30.3380  -18.7180    5.7170 C.3    38  ILE38       0.0022
     33  CG2       30.6960  -16.5320    4.5110 C.3    38  ILE38       0.0022
     34  CD1       31.3650  -18.5690    6.8060 C.3    38  ILE38       0.0001
     35  N         27.1000  -18.4080   -0.4500 N.3    41  HIS41      -0.1241
     36  CA        25.8860  -17.7140   -0.0420 C.3    41  HIS41       0.1621
     37  C         25.9980  -16.2130   -0.2900 C.2    41  HIS41       0.2264
     38  O         25.0530  -15.5790   -0.7730 O.2    41  HIS41      -0.2867
     39  CB        25.6100  -18.0060    1.4350 C.3    41  HIS41       0.0745
     40  CG        24.4120  -17.2970    1.9840 C.ar   41  HIS41       0.0817
     41  ND1       24.4940  -16.0730    2.6130 N.ar   41  HIS41      -0.2268
     42  CD2       23.1020  -17.6480    2.0120 C.ar   41  HIS41       0.1154
     43  CE1       23.2860  -15.7020    3.0080 C.ar   41  HIS41       0.1986
     44  NE2       22.4230  -16.6360    2.6490 N.ar   41  HIS41      -0.2212
     45  N         22.9940   -9.0720    4.2160 N.3    61  GLU61      -0.1245
     46  CA        24.0620  -10.0470    4.3950 C.3    61  GLU61       0.1567
     47  C         25.4250   -9.4530    4.0470 C.2    61  GLU61       0.2260
     48  O         25.5520   -8.5970    3.1730 O.2    61  GLU61      -0.2867
     49  CB        23.7910  -11.2700    3.5110 C.3    61  GLU61       0.0388
     50  CG        24.7200  -12.4690    3.7170 C.3    61  GLU61       0.1160
     51  CD        24.7930  -12.9430    5.1610 C.2    61  GLU61       0.3649
     52  OE1       25.6730  -12.4440    5.8960 O.co2  61  GLU61      -0.2457
     53  OE2       23.9890  -13.8080    5.5760 O.co2  61  GLU61      -0.2457
     54  N         27.1780   -7.2360   11.6800 N.3    65  ARG65      -0.1245
     55  CA        25.8720   -7.6770   12.1700 C.3    65  ARG65       0.1563
     56  C         25.2150   -6.6190   13.0560 C.2    65  ARG65       0.2260
     57  O         23.9970   -6.4090   12.9880 O.2    65  ARG65      -0.2867
     58  CB        26.0240   -9.0020   12.9250 C.3    65  ARG65       0.0307
     59  CG        26.4300  -10.1420   11.9860 C.3    65  ARG65       0.0489
     60  CD        25.1490  -10.6910   11.3500 C.3    65  ARG65       0.2205
     61  NE        25.5150  -11.9250   10.5770 N.pl3  65  ARG65      -0.0865
     62  CZ        26.0250  -11.8450    9.3480 C.cat  65  ARG65       0.5346
     63  NH1       26.1660  -10.7070    8.6730 N.pl3  65  ARG65       0.1354
     64  NH2       26.5770  -12.9520    8.8130 N.pl3  65  ARG65       0.1354
     65  N         17.9890  -11.7130   11.6050 N.3    87  LEU87      -0.1231
     66  CA        18.5520  -10.8300   10.6030 C.3    87  LEU87       0.1678
     67  C         18.4100  -11.4590    9.2220 C.2    87  LEU87       0.2434
     68  O         18.9610  -12.5470    8.9890 O.2    87  LEU87      -0.2733
     69  CB        20.0100  -10.5760   10.9040 C.3    87  LEU87       0.0284
     70  CG        20.6540   -9.4650   10.0920 C.3    87  LEU87       0.0019
     71  CD1       20.1470   -8.1070   10.5840 C.3    87  LEU87       0.0001
     72  CD2       22.1600   -9.5630   10.2160 C.3    87  LEU87       0.0001
     73  N         17.6930  -10.8330    8.2910 N.am   88  PRO88      -0.2718
     74  CA        17.5430  -11.4290    6.9560 C.3    88  PRO88       0.1535
     75  C         18.7270  -11.1530    6.0410 C.2    88  PRO88       0.2598
     76  O         19.7430  -10.5930    6.4720 O.2    88  PRO88      -0.2715
     77  CB        16.2660  -10.7700    6.4130 C.3    88  PRO88       0.0310
     78  CG        15.7190   -9.9290    7.5360 C.3    88  PRO88       0.0237
     79  CD        16.8530   -9.6370    8.4450 C.3    88  PRO88       0.0939
     80  N         18.5970  -11.5310    4.7680 N.am   89  ASP89      -0.1972
     81  CA        19.6530  -11.3230    3.7840 C.3    89  ASP89       0.1709
     82  C         19.4240  -10.1020    2.9010 C.2    89  ASP89       0.2293
     83  O         20.3960   -9.4590    2.4870 O.2    89  ASP89      -0.2864
     84  CB        19.7980  -12.5450    2.8740 C.3    89  ASP89       0.1436
     85  CG        20.3410  -13.7600    3.5950 C.2    89  ASP89       0.3671
     86  OD1       19.7980  -14.8640    3.3760 O.co2  89  ASP89      -0.2456
     87  OD2       21.3090  -13.6210    4.3590 O.co2  89  ASP89      -0.2456
     88  N         14.8220  -13.9580    3.0340 N.3   100  GLU100     -0.1231
     89  CA        15.8410  -14.8950    3.4930 C.3   100  GLU100      0.1699
     90  C         16.2460  -15.7780    2.3160 C.2   100  GLU100      0.2592
     91  O         15.3900  -16.4080    1.6800 O.2   100  GLU100     -0.2718
     92  CB        15.3350  -15.7460    4.6590 C.3   100  GLU100      0.0402
     93  CG        16.3080  -16.8420    5.1080 C.3   100  GLU100      0.1161
     94  CD        17.6770  -16.2980    5.4880 C.2   100  GLU100      0.3649
     95  OE1       18.6810  -17.0200    5.2810 O.co2 100  GLU100     -0.2457
     96  OE2       17.7510  -15.1520    5.9940 O.co2 100  GLU100     -0.2457
     97  N         17.5440  -15.7990    2.0100 N.am  101  ILE101     -0.1966
     98  CA        18.0880  -16.6170    0.9330 C.3   101  ILE101      0.1727
     99  C         18.7110  -17.8660    1.5300 C.2   101  ILE101      0.2617
    100  O         19.5810  -17.7820    2.4040 O.2   101  ILE101     -0.2715
    101  CB        19.1300  -15.8390    0.1060 C.3   101  ILE101      0.0290
    102  CG1       18.5060  -14.5910   -0.5330 C.3   101  ILE101      0.0022
    103  CG2       19.7650  -16.7410   -0.9620 C.3   101  ILE101      0.0023
    104  CD1       17.3940  -14.8650   -1.5060 C.3   101  ILE101      0.0001
    105  N         18.2970  -19.0240    1.0350 N.am  102  GLY102     -0.1940
    106  CA        18.9070  -20.2930    1.3940 C.3   102  GLY102      0.2014
    107  C         19.6690  -20.8440    0.2040 C.2   102  GLY102      0.2638
    108  O         19.1970  -20.7750   -0.9340 O.2   102  GLY102     -0.2714
    109  N         20.8620  -21.3580    0.4680 N.am  103  VAL103     -0.1977
    110  CA        21.6600  -22.0690   -0.5220 C.3   103  VAL103      0.1596
    111  C         22.0380  -23.3880    0.1240 C.2   103  VAL103      0.2287
    112  O         22.7580  -23.3950    1.1290 O.2   103  VAL103     -0.2864
    113  CB        22.9180  -21.2860   -0.9320 C.3   103  VAL103      0.0276
    114  CG1       23.6990  -22.0450   -1.9790 C.3   103  VAL103      0.0022
    115  CG2       22.5440  -19.8940   -1.4300 C.3   103  VAL103      0.0022
    116  N         22.9730  -27.7380    0.0160 N.3   105  ARG105     -0.1245
    117  CA        23.3590  -29.0220   -0.5500 C.3   105  ARG105      0.1563
    118  C         22.3800  -30.1230   -0.1660 C.2   105  ARG105      0.2260
    119  O         22.5310  -31.2690   -0.6160 O.2   105  ARG105     -0.2867
    120  CB        24.7740  -29.3840   -0.0910 C.3   105  ARG105      0.0307
    121  CG        25.8440  -28.3800   -0.5540 C.3   105  ARG105      0.0489
    122  CD        26.1120  -27.2780    0.4540 C.3   105  ARG105      0.2205
    123  NE        27.0080  -27.7270    1.5190 N.pl3 105  ARG105     -0.0865
    124  CZ        27.2670  -27.0460    2.6320 C.cat 105  ARG105      0.5346
    125  NH1       28.0960  -27.5560    3.5290 N.pl3 105  ARG105      0.1354
    126  NH2       26.6950  -25.8670    2.8630 N.pl3 105  ARG105      0.1354
    127  N         14.8000  -28.1580    3.2130 N.3   111  TYR111     -0.1241
    128  CA        15.4350  -26.9520    3.7250 C.3   111  TYR111      0.1605
    129  C         14.4050  -25.8440    3.9200 C.2   111  TYR111      0.2264
    130  O         14.3750  -25.1820    4.9680 O.2   111  TYR111     -0.2867
    131  CB        16.5560  -26.5260    2.7790 C.3   111  TYR111      0.0534
    132  CG        17.4030  -25.3900    3.3050 C.ar  111  TYR111     -0.0201
    133  CD1       16.9780  -24.0750    3.1970 C.ar  111  TYR111     -0.0009
    134  CD2       18.6280  -25.6350    3.9110 C.ar  111  TYR111     -0.0009
    135  CE1       17.7510  -23.0270    3.6830 C.ar  111  TYR111      0.0417
    136  CE2       19.4100  -24.5940    4.3980 C.ar  111  TYR111      0.0417
    137  CZ        18.9650  -23.2950    4.2790 C.ar  111  TYR111      0.1957
    138  OH        19.7300  -22.2570    4.7560 O.3   111  TYR111     -0.2866
    139  N         13.6250  -23.9130    7.4750 N.3   115  LYS115     -0.1245
    140  CA        13.7790  -22.4670    7.5690 C.3   115  LYS115      0.1561
    141  C         12.4540  -21.8120    7.9370 C.2   115  LYS115      0.2260
    142  O         12.3910  -20.9690    8.8400 O.2   115  LYS115     -0.2867
    143  CB        14.3240  -21.9160    6.2500 C.3   115  LYS115      0.0271
    144  CG        15.0360  -20.5740    6.3690 C.3   115  LYS115      0.0035
    145  CD        16.4430  -20.7070    6.9600 C.3   115  LYS115      0.0206
    146  CE        17.5110  -20.1660    5.9920 C.3   115  LYS115      0.1093
    147  NZ        18.8380  -19.9830    6.6400 N.3   115  LYS115     -0.1314
    148  N         11.7580  -22.3800   11.5590 N.3   118  LYS118     -0.1245
    149  CA        12.5920  -21.5150   12.3860 C.3   118  LYS118      0.1561
    150  C         12.1790  -20.0520   12.2630 C.2   118  LYS118      0.2260
    151  O         12.3870  -19.2730   13.1990 O.2   118  LYS118     -0.2867
    152  CB        14.0630  -21.6910   12.0080 C.3   118  LYS118      0.0271
    153  CG        15.0610  -20.9650   12.9050 C.3   118  LYS118      0.0035
    154  CD        16.5060  -21.4180   12.6430 C.3   118  LYS118      0.0206
    155  CE        16.9720  -21.0640   11.2520 C.3   118  LYS118      0.1093
    156  NZ        17.1410  -19.5940   11.1250 N.3   118  LYS118     -0.1314
@<TRIPOS>BOND
     1   114   113    1
     2   104   102    1
     3   115   113    1
     4   103   101    1
     5   108   107    2
     6   113   110    1
     7    38    37    2
     8   119   118    2
     9   121   120    1
    10   121   122    1
    11   117   118    1
    12   117   120    1
    13   117   116    1
    14   102   101    1
    15   110   111    1
    16   110   109    1
    17    35    36    1
    18    37    36    1
    19    36    39    1
    20   101    98    1
    21   111   112    2
    22   107   109   am
    23   107   106    1
    24   122   123    1
    25    98    99    1
    26    98    97    1
    27   105   106    1
    28   105    99   am
    29    39    40    1
    30   123   124    2
    31    99   100    2
    32    30    29    2
    33    25    24    2
    34    91    90    2
    35    22    23    1
    36    40    42   ar
    37    40    41   ar
    38    29    28    1
    39    97    90   am
    40    42    44   ar
    41    23    24    1
    42    23    26    1
    43    24    27   am
    44    90    89    1
    45    83    82    2
    46    41    43   ar
    47   124   126    1
    48   124   125    1
    49    44    43   ar
    50   131   132    1
    51   131   128    1
    52    84    85    1
    53    84    81    1
    54    82    81    1
    55    88    89    1
    56    27    28    1
    57    48    47    2
    58   133   132   ar
    59   133   135   ar
    60   127   128    1
    61    28    31    1
    62   132   134   ar
    63    86    85   ar
    64    89    92    1
    65    49    50    1
    66    49    46    1
    67    85    87   ar
    68   135   137   ar
    69    50    51    1
    70   128   129    1
    71    81    80    1
    72   134   136   ar
    73   129   130    2
    74    47    46    1
    75    45    46    1
    76   137   136   ar
    77   137   138    1
    78    31    33    1
    79    31    32    1
    80    92    93    1
    81    80    75   am
    82    16    15    2
    83    93    94    1
    84    51    53   ar
    85    51    52   ar
    86    15    14    1
    87    95    94   ar
    88    94    96   ar
    89    13    14    1
    90    32    34    1
    91   146   147    1
    92   146   145    1
    93    14    17    1
    94    75    76    2
    95    75    74    1
    96   143   144    1
    97   143   140    1
    98   144   145    1
    99    77    74    1
   100    77    78    1
   101    74    73    1
   102   139   140    1
   103    17    18    1
   104    78    79    1
   105   140   141    1
   106   141   142    2
   107    18    19    1
   108    73    79    1
   109    73    67   am
   110    63    62    1
   111    64    62    1
   112    68    67    2
   113    67    66    1
   114    62    61    2
   115    19    20    1
   116    70    72    1
   117    70    71    1
   118    70    69    1
   119    20    21    1
   120    61    60    1
   121    66    69    1
   122    66    65    1
   123   156   155    1
   124   155   154    1
   125    60    59    1
   126   148   149    1
   127    54    55    1
   128    10     8   ar
   129    10    11   ar
   130    59    58    1
   131   152   149    1
   132   152   153    1
   133    12    11    1
   134    55    58    1
   135    55    56    1
   136     8     6   ar
   137   150   149    1
   138   150   151    2
   139    11     9   ar
   140   154   153    1
   141    57    56    2
   142     6     5    1
   143     6     7   ar
   144     9     7   ar
   145     5     2    1
   146     1     2    1
   147     2     3    1
   148     3     4    2
