@<TRIPOS>MOLECULE
tmp/5w3jB01.pdb
 198 187 0 0 0
SMALL
GASTEIGER

@<TRIPOS>ATOM
      1  N        319.7650  426.9100  315.5470 N.3    19  LYS19      -0.1245
      2  CA       320.9860  426.4110  316.1680 C.3    19  LYS19       0.1561
      3  C        320.9520  426.5860  317.6810 C.2    19  LYS19       0.2260
      4  O        321.6150  425.8370  318.4070 O.2    19  LYS19      -0.2867
      5  CB       322.2030  427.1190  315.5660 C.3    19  LYS19       0.0271
      6  CG       323.5440  426.4620  315.8690 C.3    19  LYS19       0.0035
      7  CD       324.2340  427.1040  317.0640 C.3    19  LYS19       0.0206
      8  CE       325.5660  426.4320  317.3560 C.3    19  LYS19       0.1093
      9  NZ       325.4010  424.9850  317.6640 N.3    19  LYS19      -0.1314
     10  N        319.5260  423.5520  319.4630 N.3    22  GLU22      -0.1231
     11  CA       320.3950  422.3810  319.5000 C.3    22  GLU22       0.1699
     12  C        321.2330  422.3590  320.7730 C.2    22  GLU22       0.2592
     13  O        321.5250  421.2860  321.3140 O.2    22  GLU22      -0.2718
     14  CB       321.2910  422.3540  318.2620 C.3    22  GLU22       0.0402
     15  CG       322.1640  421.1150  318.1480 C.3    22  GLU22       0.1161
     16  CD       323.0460  421.1350  316.9150 C.2    22  GLU22       0.3649
     17  OE1      323.2380  422.2250  316.3370 O.co2  22  GLU22      -0.2457
     18  OE2      323.5470  420.0600  316.5230 O.co2  22  GLU22      -0.2457
     19  N        321.6250  423.5340  321.2680 N.am   23  VAL23      -0.1980
     20  CA       322.4000  423.5960  322.5010 C.3    23  VAL23       0.1595
     21  C        321.5040  423.3930  323.7190 C.2    23  VAL23       0.2287
     22  O        321.9360  422.8090  324.7210 O.2    23  VAL23      -0.2864
     23  CB       323.1640  424.9290  322.5810 C.3    23  VAL23       0.0276
     24  CG1      324.0950  424.9440  323.7840 C.3    23  VAL23       0.0022
     25  CG2      323.9400  425.1720  321.2950 C.3    23  VAL23       0.0022
     26  N        320.8150  419.7310  324.2680 N.3    26  ASP26      -0.1225
     27  CA       321.9850  418.9840  324.7130 C.3    26  ASP26       0.1805
     28  C        322.2190  419.1290  326.2120 C.2    26  ASP26       0.2597
     29  O        322.7250  418.1980  326.8480 O.2    26  ASP26      -0.2718
     30  CB       323.2240  419.4410  323.9420 C.3    26  ASP26       0.1424
     31  CG       324.4520  418.6110  324.2640 C.2    26  ASP26       0.3668
     32  OD1      324.2980  417.4090  324.5660 O.co2  26  ASP26      -0.2456
     33  OD2      325.5720  419.1620  324.2160 O.co2  26  ASP26      -0.2456
     34  N        321.8590  420.2770  326.7890 N.am   27  GLU27      -0.1979
     35  CA       322.0560  420.4760  328.2220 C.3    27  GLU27       0.1602
     36  C        321.0730  419.6460  329.0370 C.2    27  GLU27       0.2287
     37  O        321.4520  419.0370  330.0440 O.2    27  GLU27      -0.2864
     38  CB       321.9230  421.9590  328.5680 C.3    27  GLU27       0.0415
     39  CG       322.9980  422.8400  327.9520 C.3    27  GLU27       0.1163
     40  CD       322.8600  424.2950  328.3540 C.2    27  GLU27       0.3649
     41  OE1      323.2140  424.6310  329.5040 O.co2  27  GLU27      -0.2457
     42  OE2      322.3980  425.1030  327.5210 O.co2  27  GLU27      -0.2457
     43  N        316.9660  414.5990  319.1980 N.3    32  PHE32      -0.1241
     44  CA       316.4650  415.3680  318.0660 C.3    32  PHE32       0.1605
     45  C        315.1700  414.8060  317.4880 C.2    32  PHE32       0.2264
     46  O        314.6550  415.3620  316.5120 O.2    32  PHE32      -0.2867
     47  CB       317.5310  415.4430  316.9680 C.3    32  PHE32       0.0534
     48  CG       318.7960  416.1290  317.3980 C.ar   32  PHE32      -0.0203
     49  CD1      319.8570  415.3990  317.9090 C.ar   32  PHE32      -0.0042
     50  CD2      318.9250  417.5040  317.2920 C.ar   32  PHE32      -0.0042
     51  CE1      321.0230  416.0280  318.3050 C.ar   32  PHE32      -0.0003
     52  CE2      320.0880  418.1390  317.6860 C.ar   32  PHE32      -0.0003
     53  CZ       321.1380  417.3990  318.1940 C.ar   32  PHE32      -0.0000
     54  N        340.4420  431.2460  318.9150 N.3   215  LEU215     -0.1245
     55  CA       340.0440  429.9090  318.4880 C.3   215  LEU215      0.1561
     56  C        340.9840  429.3540  317.4260 C.2   215  LEU215      0.2260
     57  O        341.1360  428.1310  317.3170 O.2   215  LEU215     -0.2867
     58  CB       338.6070  429.9310  317.9660 C.3   215  LEU215      0.0270
     59  CG       337.5320  430.3770  318.9590 C.3   215  LEU215      0.0019
     60  CD1      336.1610  430.3840  318.3000 C.3   215  LEU215      0.0001
     61  CD2      337.5340  429.4850  320.1910 C.3   215  LEU215      0.0001
     62  N        340.8170  429.3700  313.9870 N.3   217  LEU217     -0.1245
     63  CA       340.0670  428.6150  312.9930 C.3   217  LEU217      0.1561
     64  C        340.3930  429.1590  311.6070 C.2   217  LEU217      0.2260
     65  O        340.2000  430.3500  311.3420 O.2   217  LEU217     -0.2867
     66  CB       338.5650  428.6960  313.2640 C.3   217  LEU217      0.0270
     67  CG       338.0900  428.1480  314.6120 C.3   217  LEU217      0.0019
     68  CD1      336.5840  428.3020  314.7540 C.3   217  LEU217      0.0001
     69  CD2      338.5030  426.6930  314.7770 C.3   217  LEU217      0.0001
     70  N        330.1500  428.1460  312.3410 N.3   224  ASP224     -0.1239
     71  CA       330.9500  428.4250  313.5270 C.3   224  ASP224      0.1674
     72  C        330.6000  429.7640  314.1620 C.2   224  ASP224      0.2266
     73  O        330.8740  429.9620  315.3500 O.2   224  ASP224     -0.2867
     74  CB       332.4390  428.3890  313.1780 C.3   224  ASP224      0.1410
     75  CG       332.8800  427.0390  312.6470 C.2   224  ASP224      0.3668
     76  OD1      332.3430  426.0110  313.1130 O.co2 224  ASP224     -0.2456
     77  OD2      333.7630  427.0050  311.7650 O.co2 224  ASP224     -0.2456
     78  N        327.8860  429.4350  317.0050 N.3   227  HIS227     -0.1226
     79  CA       328.2570  428.8650  318.2970 C.3   227  HIS227      0.1752
     80  C        328.5710  429.9560  319.3120 C.2   227  HIS227      0.2595
     81  O        328.2260  429.8310  320.4930 O.2   227  HIS227     -0.2718
     82  CB       329.4500  427.9230  318.1340 C.3   227  HIS227      0.0759
     83  CG       329.1370  426.6790  317.3630 C.ar  227  HIS227      0.0818
     84  ND1      328.8330  426.6920  316.0190 N.ar  227  HIS227     -0.2268
     85  CD2      329.0830  425.3810  317.7480 C.ar  227  HIS227      0.1154
     86  CE1      328.6040  425.4570  315.6090 C.ar  227  HIS227      0.1986
     87  NE2      328.7490  424.6430  316.6390 N.ar  227  HIS227     -0.2212
     88  N        329.2250  431.0330  318.8740 N.am  228  LEU228     -0.1980
     89  CA       329.5440  432.1370  319.7690 C.3   228  LEU228      0.1596
     90  C        328.3190  432.9590  320.1460 C.2   228  LEU228      0.2287
     91  O        328.3140  433.5860  321.2110 O.2   228  LEU228     -0.2864
     92  CB       330.5960  433.0470  319.1300 C.3   228  LEU228      0.0297
     93  CG       331.9120  432.3800  318.7240 C.3   228  LEU228      0.0022
     94  CD1      332.8740  433.4020  318.1380 C.3   228  LEU228      0.0001
     95  CD2      332.5420  431.6620  319.9080 C.3   228  LEU228      0.0001
     96  N        325.9320  430.6550  322.5960 N.3   231  SER231     -0.1217
     97  CA       326.4850  430.5170  323.9390 C.3   231  SER231      0.1889
     98  C        326.1380  431.7140  324.8140 C.2   231  SER231      0.2288
     99  O        326.0170  431.5730  326.0360 O.2   231  SER231     -0.2866
    100  CB       328.0010  430.3320  323.8680 C.3   231  SER231      0.2089
    101  OG       328.5610  430.2160  325.1640 O.3   231  SER231     -0.2183
    102  N        322.1750  431.4840  325.5970 N.3   234  SER234     -0.1217
    103  CA       321.9140  430.4550  326.5940 C.3   234  SER234      0.1889
    104  C        322.5180  430.7810  327.9530 C.2   234  SER234      0.2288
    105  O        322.0550  430.2410  328.9630 O.2   234  SER234     -0.2866
    106  CB       322.4460  429.1040  326.1080 C.3   234  SER234      0.2089
    107  OG       322.2030  428.0870  327.0640 O.3   234  SER234     -0.2183
    108  N        335.7020  431.2570  328.7960 N.3   272  PRO272     -0.2102
    109  CA       336.9700  431.7060  328.2120 C.3   272  PRO272      0.1504
    110  C        337.0510  431.4850  326.7050 C.2   272  PRO272      0.2576
    111  O        336.0250  431.4460  326.0260 O.2   272  PRO272     -0.2718
    112  CB       337.9980  430.8400  328.9350 C.3   272  PRO272      0.0282
    113  CG       337.2780  429.5510  329.1460 C.3   272  PRO272      0.0208
    114  CD       335.8210  429.9030  329.3670 C.3   272  PRO272      0.0893
    115  N        338.2810  431.3390  326.1950 N.am  273  LEU273     -0.1966
    116  CA       338.5330  431.1150  324.7700 C.3   273  LEU273      0.1728
    117  C        339.7640  430.2100  324.6570 C.2   273  LEU273      0.2617
    118  O        340.8920  430.6590  324.4390 O.2   273  LEU273     -0.2715
    119  CB       338.7280  432.4260  324.0100 C.3   273  LEU273      0.0311
    120  CG       337.4560  433.1840  323.6320 C.3   273  LEU273      0.0022
    121  CD1      337.7910  434.5580  323.0770 C.3   273  LEU273      0.0001
    122  CD2      336.6500  432.3790  322.6260 C.3   273  LEU273      0.0001
    123  N        339.5360  428.9090  324.8110 N.am  274  THR274     -0.1937
    124  CA       340.5910  427.9090  324.7250 C.3   274  THR274      0.2028
    125  C        340.5950  427.2920  323.3330 C.2   274  THR274      0.2642
    126  O        339.5740  426.7640  322.8800 O.2   274  THR274     -0.2714
    127  CB       340.4040  426.8220  325.7850 C.3   274  THR274      0.1808
    128  OG1      340.4210  427.4150  327.0900 O.3   274  THR274     -0.2208
    129  CG2      341.5160  425.7880  325.6890 C.3   274  THR274      0.0379
    130  N        341.7410  427.3600  322.6620 N.am  275  ALA275     -0.1963
    131  CA       341.8620  426.8120  321.3220 C.3   275  ALA275      0.1728
    132  C        341.8830  425.2850  321.3670 C.2   275  ALA275      0.2616
    133  O        342.0670  424.6640  322.4180 O.2   275  ALA275     -0.2715
    134  CB       343.1200  427.3430  320.6360 C.3   275  ALA275      0.0334
    135  N        341.6910  424.6790  320.1990 N.am  276  ILE276     -0.1977
    136  CA       341.6880  423.2250  320.0730 C.3   276  ILE276      0.1596
    137  C        343.1320  422.7390  320.1530 C.2   276  ILE276      0.2287
    138  O        343.9430  423.0210  319.2670 O.2   276  ILE276     -0.2864
    139  CB       341.0220  422.7730  318.7680 C.3   276  ILE276      0.0276
    140  CG1      339.5750  423.2680  318.7100 C.3   276  ILE276      0.0022
    141  CG2      341.0770  421.2580  318.6390 C.3   276  ILE276      0.0022
    142  CD1      338.8530  422.8910  317.4360 C.3   276  ILE276      0.0001
    143  N        344.4590  422.7340  325.6860 N.3   279  GLN279     -0.1245
    144  CA       343.6200  422.5840  326.8700 C.3   279  GLN279      0.1566
    145  C        344.4540  422.5430  328.1450 C.2   279  GLN279      0.2260
    146  O        344.1030  423.1890  329.1390 O.2   279  GLN279     -0.2867
    147  CB       342.7650  421.3220  326.7510 C.3   279  GLN279      0.0367
    148  CG       341.8540  421.0740  327.9420 C.3   279  GLN279      0.0905
    149  CD       341.1000  419.7630  327.8380 C.2   279  GLN279      0.2608
    150  OE1      341.1470  419.0870  326.8100 O.2   279  GLN279     -0.2717
    151  NE2      340.4000  419.3970  328.9050 N.am  279  GLN279     -0.0878
    152  N        341.9060  427.1290  334.0820 N.3   284  LEU284     -0.1245
    153  CA       340.5700  427.6960  334.2580 C.3   284  LEU284      0.1561
    154  C        340.4270  428.1390  335.7090 C.2   284  LEU284      0.2260
    155  O        340.0730  427.3560  336.5910 O.2   284  LEU284     -0.2867
    156  CB       339.4990  426.6850  333.8690 C.3   284  LEU284      0.0270
    157  CG       339.5360  426.1780  332.4260 C.3   284  LEU284      0.0019
    158  CD1      338.4130  425.1820  332.1790 C.3   284  LEU284      0.0001
    159  CD2      339.4530  427.3370  331.4460 C.3   284  LEU284      0.0001
    160  N        329.4360  430.7910  336.0890 N.3   318  ARG318     -0.1245
    161  CA       328.8620  429.4560  336.1380 C.3   318  ARG318      0.1563
    162  C        329.9380  428.4410  336.5050 C.2   318  ARG318      0.2260
    163  O        331.1350  428.7400  336.5090 O.2   318  ARG318     -0.2867
    164  CB       328.2130  429.0840  334.7990 C.3   318  ARG318      0.0307
    165  CG       327.0860  430.0110  334.3740 C.3   318  ARG318      0.0489
    166  CD       326.5200  429.6060  333.0240 C.3   318  ARG318      0.2205
    167  NE       325.9990  428.2420  333.0350 N.pl3 318  ARG318     -0.0865
    168  CZ       325.4640  427.6380  331.9790 C.cat 318  ARG318      0.5346
    169  NH1      325.3780  428.2770  330.8200 N.pl3 318  ARG318      0.1354
    170  NH2      325.0150  426.3940  332.0810 N.pl3 318  ARG318      0.1354
    171  N        328.1680  423.7350  332.5160 N.3   358  PRO358     -0.2102
    172  CA       327.8220  423.2470  331.1780 C.3   358  PRO358      0.1504
    173  C        328.4360  421.8830  330.9030 C.2   358  PRO358      0.2576
    174  O        329.3910  421.4510  331.5540 O.2   358  PRO358     -0.2718
    175  CB       328.4030  424.3150  330.2470 C.3   358  PRO358      0.0282
    176  CG       329.5150  424.9270  331.0330 C.3   358  PRO358      0.0208
    177  CD       329.0570  424.9090  332.4650 C.3   358  PRO358      0.0893
    178  N        327.8640  421.2000  329.9150 N.am  359  GLN359     -0.1966
    179  CA       328.3190  419.8670  329.5260 C.3   359  GLN359      0.1733
    180  C        329.6720  419.9870  328.8370 C.2   359  GLN359      0.2617
    181  O        329.7510  420.2250  327.6300 O.2   359  GLN359     -0.2715
    182  CB       327.2920  419.2000  328.6180 C.3   359  GLN359      0.0408
    183  CG       327.6520  417.7810  328.2030 C.3   359  GLN359      0.0908
    184  CD       327.6060  416.8000  329.3600 C.2   359  GLN359      0.2608
    185  OE1      326.9760  417.0590  330.3860 O.2   359  GLN359     -0.2717
    186  NE2      328.2760  415.6650  329.1990 N.am  359  GLN359     -0.0878
    187  N        330.7450  419.8230  329.6050 N.am  360  GLY360     -0.1940
    188  CA       332.0850  419.9080  329.0600 C.3   360  GLY360      0.2014
    189  C        332.9860  420.8500  329.8310 C.2   360  GLY360      0.2638
    190  O        333.9670  420.4180  330.4460 O.2   360  GLY360     -0.2714
    191  N        332.6650  422.1400  329.8060 N.am  361  LEU361     -0.1977
    192  CA       333.4700  423.1260  330.5110 C.3   361  LEU361      0.1596
    193  C        333.2380  423.0350  332.0150 C.2   361  LEU361      0.2287
    194  O        332.1550  422.6700  332.4810 O.2   361  LEU361     -0.2864
    195  CB       333.1510  424.5390  330.0190 C.3   361  LEU361      0.0297
    196  CG       333.5380  424.9170  328.5850 C.3   361  LEU361      0.0022
    197  CD1      332.4790  424.4750  327.5830 C.3   361  LEU361      0.0001
    198  CD2      333.7910  426.4140  328.4760 C.3   361  LEU361      0.0001
@<TRIPOS>BOND
     1    65    64    2
     2    64    63    1
     3    77    75   ar
     4    70    71    1
     5    75    76   ar
     6    75    74    1
     7    63    66    1
     8    63    62    1
     9    74    71    1
    10    66    67    1
    11    71    72    1
    12    72    73    2
    13    67    68    1
    14    67    69    1
    15     1     2    1
    16     5     6    1
    17     5     2    1
    18    86    84   ar
    19    86    87   ar
    20     6     7    1
    21    84    83   ar
    22     2     3    1
    23    17    16   ar
    24    46    45    2
    25    18    16   ar
    26    87    85   ar
    27    16    15    1
    28    47    48    1
    29    47    44    1
    30    78    79    1
    31     7     8    1
    32    50    48   ar
    33    50    52   ar
    34    57    56    2
    35     8     9    1
    36    83    85   ar
    37    83    82    1
    38    48    49   ar
    39    56    55    1
    40   142   140    1
    41    45    44    1
    42     3     4    2
    43    52    53   ar
    44    49    51   ar
    45    58    55    1
    46    58    59    1
    47    44    43    1
    48    82    79    1
    49    94    93    1
    50    15    14    1
    51    53    51   ar
    52    14    11    1
    53    79    80    1
    54    60    59    1
    55    55    54    1
    56   141   139    1
    57   140   139    1
    58    93    92    1
    59    93    95    1
    60   139   136    1
    61    88    80   am
    62    88    89    1
    63    59    61    1
    64    92    89    1
    65   138   137    2
    66    80    81    2
    67    10    11    1
    68    11    12    1
    69    89    90    1
    70   136   137    1
    71   136   135    1
    72    90    91    2
    73   135   132   am
    74   134   131    1
    75    12    19   am
    76    12    13    2
    77    19    20    1
    78    25    23    1
    79   131   132    1
    80   131   130    1
    81   132   133    2
    82    20    23    1
    83    20    21    1
    84    23    24    1
    85    96    97    1
    86   122   120    1
    87   130   125   am
    88   126   125    2
    89   121   120    1
    90   125   124    1
    91   120   119    1
    92    21    22    2
    93   100    97    1
    94   100   101    1
    95    97    98    1
    96    30    31    1
    97    30    27    1
    98   119   116    1
    99    33    31   ar
   100    31    32   ar
   101    26    27    1
   102   118   117    2
   103   117   116    1
   104   117   123   am
   105    27    28    1
   106   124   123    1
   107   124   127    1
   108   116   115    1
   109    98    99    2
   110   102   103    1
   111   143   144    1
   112   129   127    1
   113   127   128    1
   114   111   110    2
   115   106   103    1
   116   106   107    1
   117   115   110   am
   118    28    34   am
   119    28    29    2
   120   103   104    1
   121   110   109    1
   122   147   144    1
   123   147   148    1
   124    34    35    1
   125   150   149    2
   126   144   145    1
   127    42    40   ar
   128   197   196    1
   129   181   180    2
   130   149   148    1
   131   149   151   am
   132    39    40    1
   133    39    38    1
   134   104   105    2
   135   145   146    2
   136   183   182    1
   137   183   184    1
   138   109   108    1
   139   109   112    1
   140    35    38    1
   141    35    36    1
   142    40    41   ar
   143   198   196    1
   144   196   195    1
   145   182   179    1
   146   108   114    1
   147   180   179    1
   148   180   187   am
   149   112   113    1
   150    36    37    2
   151   188   187    1
   152   188   189    1
   153   113   114    1
   154   186   184   am
   155   184   185    2
   156   179   178    1
   157   191   189   am
   158   191   192    1
   159   189   190    2
   160   178   173   am
   161   195   192    1
   162   175   176    1
   163   175   172    1
   164   192   193    1
   165   169   168    1
   166   173   172    1
   167   173   174    2
   168   176   177    1
   169   172   171    1
   170   159   157    1
   171   168   170    1
   172   168   167    2
   173   193   194    2
   174   158   157    1
   175   157   156    1
   176   177   171    1
   177   166   167    1
   178   166   165    1
   179   156   153    1
   180   152   153    1
   181   153   154    1
   182   165   164    1
   183   164   161    1
   184   154   155    2
   185   160   161    1
   186   161   162    1
   187   162   163    2
