@<TRIPOS>MOLECULE
tmp/5w3jB00.pdb
 176 162 0 0 0
SMALL
GASTEIGER

@<TRIPOS>ATOM
      1  N        313.3490  436.3750  309.9340 N.3    10  GLY10      -0.1210
      2  CA       314.3430  436.5550  308.8980 C.3    10  GLY10       0.1956
      3  C        315.2210  435.3310  308.7050 C.2    10  GLY10       0.2612
      4  O        315.2260  434.3870  309.4980 O.2    10  GLY10      -0.2717
      5  N        315.9850  435.3600  307.6110 N.am   11  GLN11      -0.1965
      6  CA       316.8850  434.2510  307.3100 C.3    11  GLN11       0.1733
      7  C        318.0190  434.1690  308.3250 C.2    11  GLN11       0.2616
      8  O        318.4190  433.0710  308.7290 O.2    11  GLN11      -0.2715
      9  CB       317.4390  434.3940  305.8930 C.3    11  GLN11       0.0408
     10  CG       318.4340  433.3120  305.5020 C.3    11  GLN11       0.0908
     11  CD       318.5690  433.1570  303.9990 C.2    11  GLN11       0.2608
     12  OE1      318.1930  434.0460  303.2350 O.2    11  GLN11      -0.2717
     13  NE2      319.1100  432.0230  303.5680 N.am   11  GLN11      -0.0878
     14  N        318.5480  435.3190  308.7500 N.am   12  CYS12      -0.1968
     15  CA       319.6110  435.3170  309.7490 C.3    12  CYS12       0.1712
     16  C        319.1030  434.8600  311.1100 C.2    12  CYS12       0.2296
     17  O        319.8380  434.2000  311.8540 O.2    12  CYS12      -0.2864
     18  CB       320.2360  436.7090  309.8540 C.3    12  CYS12       0.0983
     19  SG       321.5240  436.8590  311.1140 S.3    12  CYS12      -0.0798
     20  N        318.6980  430.8790  311.1430 N.3    15  GLN15      -0.1231
     21  CA       319.9380  430.1160  311.2470 C.3    15  GLN15       0.1698
     22  C        320.4790  430.1380  312.6710 C.2    15  GLN15       0.2592
     23  O        321.0270  429.1370  313.1490 O.2    15  GLN15      -0.2718
     24  CB       320.9760  430.6630  310.2680 C.3    15  GLN15       0.0381
     25  CG       320.5690  430.5580  308.8070 C.3    15  GLN15       0.0905
     26  CD       321.6370  431.0800  307.8660 C.2    15  GLN15       0.2608
     27  OE1      321.3520  431.8560  306.9540 O.2    15  GLN15      -0.2717
     28  NE2      322.8770  430.6550  308.0830 N.am   15  GLN15      -0.0878
     29  N        320.3370  431.2680  313.3630 N.am   16  ILE16      -0.1980
     30  CA       320.7940  431.3510  314.7460 C.3    16  ILE16       0.1595
     31  C        319.7420  430.7950  315.7000 C.2    16  ILE16       0.2287
     32  O        320.0850  430.1990  316.7280 O.2    16  ILE16      -0.2864
     33  CB       321.1610  432.8040  315.0960 C.3    16  ILE16       0.0276
     34  CG1      322.1690  433.3550  314.0850 C.3    16  ILE16       0.0022
     35  CG2      321.7270  432.8920  316.5060 C.3    16  ILE16       0.0022
     36  CD1      322.5750  434.7890  314.3470 C.3    16  ILE16       0.0001
     37  N        311.1800  433.8580  302.9420 N.3    69  GLU69      -0.1245
     38  CA       311.9510  433.0790  301.9780 C.3    69  GLU69       0.1567
     39  C        311.6080  431.6080  302.1650 C.2    69  GLU69       0.2260
     40  O        311.9260  431.0310  303.2260 O.2    69  GLU69      -0.2867
     41  CB       313.4530  433.3190  302.1490 C.3    69  GLU69       0.0388
     42  CG       314.3250  432.5370  301.1780 C.3    69  GLU69       0.1160
     43  CD       314.1750  433.0050  299.7430 C.2    69  GLU69       0.3649
     44  OE1      313.7550  434.1630  299.5320 O.co2  69  GLU69      -0.2457
     45  OE2      314.4770  432.2150  298.8240 O.co2  69  GLU69      -0.2457
     46  N        313.7110  440.7720  300.1360 N.3    98  GLY98      -0.1210
     47  CA       315.0930  441.1250  299.8790 C.3    98  GLY98       0.1956
     48  C        315.7140  441.9420  300.9930 C.2    98  GLY98       0.2611
     49  O        315.7340  441.5130  302.1500 O.2    98  GLY98      -0.2717
     50  N        316.2270  443.1260  300.6540 N.am   99  ASN99      -0.1974
     51  CA       316.8550  444.0130  301.6260 C.3    99  ASN99       0.1688
     52  C        316.1380  445.3570  301.6880 C.2    99  ASN99       0.2292
     53  O        316.7730  446.3990  301.8710 O.2    99  ASN99      -0.2864
     54  CB       318.3370  444.2110  301.3070 C.3    99  ASN99       0.1181
     55  CG       319.1170  442.9110  301.3340 C.2    99  ASN99       0.2629
     56  OD1      319.6260  442.5010  302.3770 O.2    99  ASN99      -0.2716
     57  ND2      319.2130  442.2550  300.1840 N.am   99  ASN99      -0.0877
     58  N        317.7910  440.8970  312.7030 N.3   138  SER138     -0.1217
     59  CA       319.0100  441.5490  312.2480 C.3   138  SER138      0.1889
     60  C        318.6600  442.9160  311.6790 C.2   138  SER138      0.2288
     61  O        317.5100  443.1880  311.3230 O.2   138  SER138     -0.2866
     62  CB       319.7450  440.7030  311.2010 C.3   138  SER138      0.2089
     63  OG       320.1780  439.4720  311.7530 O.3   138  SER138     -0.2183
     64  N        319.5430  445.2330  308.6490 N.3   140  GLY140     -0.1210
     65  CA       320.1510  445.3240  307.3360 C.3   140  GLY140      0.1956
     66  C        319.3900  444.5650  306.2700 C.2   140  GLY140      0.2612
     67  O        319.5210  444.8570  305.0770 O.2   140  GLY140     -0.2717
     68  N        318.5910  443.5880  306.6860 N.am  141  GLY141     -0.1942
     69  CA       317.8130  442.7760  305.7740 C.3   141  GLY141      0.2014
     70  C        316.4570  443.3780  305.4720 C.2   141  GLY141      0.2639
     71  O        316.2290  444.5810  305.6200 O.2   141  GLY141     -0.2714
     72  N        315.5420  442.5150  305.0380 N.am  142  GLY142     -0.1939
     73  CA       314.1960  442.9410  304.7090 C.3   142  GLY142      0.2014
     74  C        313.1430  442.3450  305.6190 C.2   142  GLY142      0.2640
     75  O        312.1650  443.0120  305.9700 O.2   142  GLY142     -0.2714
     76  N        313.3320  441.0830  306.0080 N.am  143  THR143     -0.1936
     77  CA       312.3790  440.4260  306.8960 C.3   143  THR143      0.2028
     78  C        312.7300  440.6680  308.3590 C.2   143  THR143      0.2642
     79  O        311.8580  441.0070  309.1670 O.2   143  THR143     -0.2714
     80  CB       312.3270  438.9260  306.5980 C.3   143  THR143      0.1808
     81  OG1      311.9860  438.7210  305.2220 O.3   143  THR143     -0.2208
     82  CG2      311.2900  438.2440  307.4780 C.3   143  THR143      0.0379
     83  N        314.0040  440.4990  308.7170 N.am  144  GLY144     -0.1954
     84  CA       314.4150  440.7290  310.0910 C.3   144  GLY144      0.1869
     85  C        314.3960  442.1920  310.4850 C.2   144  GLY144      0.2309
     86  O        314.2820  442.5170  311.6700 O.2   144  GLY144     -0.2863
     87  N        321.1050  442.2030  315.5160 N.3   169  VAL169     -0.1245
     88  CA       322.4080  442.0790  314.8720 C.3   169  VAL169      0.1561
     89  C        322.7310  443.4200  314.2280 C.2   169  VAL169      0.2260
     90  O        322.0420  443.8510  313.2950 O.2   169  VAL169     -0.2867
     91  CB       322.4340  440.9480  313.8350 C.3   169  VAL169      0.0252
     92  CG1      323.7810  440.9090  313.1290 C.3   169  VAL169      0.0019
     93  CG2      322.1360  439.6130  314.5000 C.3   169  VAL169      0.0019
     94  N        328.4740  443.3990  303.0730 N.3   177  ASP177     -0.1225
     95  CA       328.0470  442.6180  301.9190 C.3   177  ASP177      0.1805
     96  C        326.7980  443.1780  301.2510 C.2   177  ASP177      0.2598
     97  O        326.4090  442.6830  300.1880 O.2   177  ASP177     -0.2718
     98  CB       327.8020  441.1620  302.3300 C.3   177  ASP177      0.1424
     99  CG       326.7230  441.0290  303.3850 C.2   177  ASP177      0.3668
    100  OD1      326.5620  441.9650  304.1960 O.co2 177  ASP177     -0.2456
    101  OD2      326.0350  439.9860  303.4050 O.co2 177  ASP177     -0.2456
    102  N        326.1650  444.1870  301.8410 N.am  178  THR178     -0.1953
    103  CA       324.9700  444.8000  301.2850 C.3   178  THR178      0.1897
    104  C        325.1970  446.2930  301.0870 C.2   178  THR178      0.2313
    105  O        326.1420  446.8780  301.6240 O.2   178  THR178     -0.2863
    106  CB       323.7500  444.5720  302.1900 C.3   178  THR178      0.1794
    107  OG1      324.0620  444.9800  303.5270 O.3   178  THR178     -0.2208
    108  CG2      323.3560  443.1030  302.1920 C.3   178  THR178      0.0378
    109  N        322.0050  448.7940  303.4710 N.3   181  GLU181     -0.1245
    110  CA       322.0430  448.3670  304.8650 C.3   181  GLU181      0.1567
    111  C        321.8120  449.5330  305.8280 C.2   181  GLU181      0.2260
    112  O        321.0510  449.3750  306.7910 O.2   181  GLU181     -0.2867
    113  CB       323.3700  447.6670  305.1750 C.3   181  GLU181      0.0388
    114  CG       323.4290  447.0260  306.5510 C.3   181  GLU181      0.1160
    115  CD       324.6900  446.2110  306.7570 C.2   181  GLU181      0.3649
    116  OE1      325.7140  446.5240  306.1140 O.co2 181  GLU181     -0.2457
    117  OE2      324.6570  445.2530  307.5580 O.co2 181  GLU181     -0.2457
    118  N        325.2320  443.0700  318.5710 N.3   202  ILE202     -0.1245
    119  CA       326.0710  442.0050  318.0360 C.3   202  ILE202      0.1561
    120  C        326.3690  442.3200  316.5770 C.2   202  ILE202      0.2260
    121  O        325.4530  442.6210  315.8040 O.2   202  ILE202     -0.2867
    122  CB       325.3990  440.6240  318.1640 C.3   202  ILE202      0.0252
    123  CG1      325.1570  440.2770  319.6340 C.3   202  ILE202      0.0019
    124  CG2      326.2440  439.5520  317.4930 C.3   202  ILE202      0.0019
    125  CD1      324.4820  438.9390  319.8440 C.3   202  ILE202      0.0001
    126  N        328.9850  441.1680  313.0210 N.3   204  ASN204     -0.1240
    127  CA       329.7160  440.0730  312.3990 C.3   204  ASN204      0.1653
    128  C        331.2080  440.3460  312.2650 C.2   204  ASN204      0.2266
    129  O        331.9700  439.4080  312.0110 O.2   204  ASN204     -0.2867
    130  CB       329.1290  439.7660  311.0170 C.3   204  ASN204      0.1155
    131  CG       327.6730  439.3490  311.0810 C.2   204  ASN204      0.2627
    132  OD1      327.2250  438.7710  312.0700 O.2   204  ASN204     -0.2716
    133  ND2      326.9260  439.6440  310.0240 N.am  204  ASN204     -0.0877
    134  N        333.1390  438.7360  315.1390 N.3   207  LEU207     -0.1245
    135  CA       333.0610  437.2800  315.1880 C.3   207  LEU207      0.1561
    136  C        334.2390  436.6300  314.4730 C.2   207  LEU207      0.2260
    137  O        334.8010  435.6460  314.9670 O.2   207  LEU207     -0.2867
    138  CB       331.7400  436.8040  314.5820 C.3   207  LEU207      0.0270
    139  CG       330.4660  437.2950  315.2710 C.3   207  LEU207      0.0019
    140  CD1      329.2310  436.7340  314.5830 C.3   207  LEU207      0.0001
    141  CD2      330.4780  436.9240  316.7450 C.3   207  LEU207      0.0001
    142  N        329.7430  430.0650  308.2320 N.3   222  TYR222     -0.1241
    143  CA       328.5930  430.6190  308.9360 C.3   222  TYR222      0.1605
    144  C        328.1310  429.7300  310.0830 C.2   222  TYR222      0.2264
    145  O        327.4290  430.2110  310.9780 O.2   222  TYR222     -0.2867
    146  CB       327.4370  430.8500  307.9600 C.3   222  TYR222      0.0534
    147  CG       327.7220  431.8960  306.9060 C.ar  222  TYR222     -0.0201
    148  CD1      328.6430  432.9100  307.1360 C.ar  222  TYR222     -0.0009
    149  CD2      327.0690  431.8700  305.6810 C.ar  222  TYR222     -0.0009
    150  CE1      328.9060  433.8680  306.1760 C.ar  222  TYR222      0.0417
    151  CE2      327.3260  432.8240  304.7140 C.ar  222  TYR222      0.0417
    152  CZ       328.2450  433.8210  304.9670 C.ar  222  TYR222      0.1957
    153  OH       328.5040  434.7730  304.0080 O.3   222  TYR222     -0.2866
    154  N        330.0050  430.6860  313.4010 N.3   225  LEU225     -0.1231
    155  CA       329.6310  431.9780  313.9660 C.3   225  LEU225      0.1693
    156  C        328.4190  431.8620  314.8790 C.2   225  LEU225      0.2592
    157  O        328.2440  432.6890  315.7820 O.2   225  LEU225     -0.2718
    158  CB       329.3580  432.9830  312.8470 C.3   225  LEU225      0.0284
    159  CG       330.4960  433.2220  311.8520 C.3   225  LEU225      0.0019
    160  CD1      330.0880  434.2500  310.8090 C.3   225  LEU225      0.0001
    161  CD2      331.7610  433.6560  312.5760 C.3   225  LEU225      0.0001
    162  N        327.5740  430.8520  314.6650 N.am  226  ASN226     -0.1974
    163  CA       326.3930  430.6670  315.4970 C.3   226  ASN226      0.1688
    164  C        326.7180  430.0650  316.8570 C.2   226  ASN226      0.2292
    165  O        325.9010  430.1730  317.7770 O.2   226  ASN226     -0.2864
    166  CB       325.3730  429.7850  314.7740 C.3   226  ASN226      0.1181
    167  CG       324.8820  430.4020  313.4790 C.2   226  ASN226      0.2629
    168  OD1      325.5120  431.3070  312.9310 O.2   226  ASN226     -0.2716
    169  ND2      323.7510  429.9150  312.9830 N.am  226  ASN226     -0.0877
    170  N        327.2890  432.9700  319.3050 N.3   229  VAL229     -0.1245
    171  CA       326.0710  433.7180  319.6020 C.3   229  VAL229      0.1561
    172  C        325.1150  432.9030  320.4640 C.2   229  VAL229      0.2260
    173  O        324.4890  433.4380  321.3820 O.2   229  VAL229     -0.2867
    174  CB       325.4010  434.1700  318.2890 C.3   229  VAL229      0.0252
    175  CG1      324.1590  435.0010  318.5800 C.3   229  VAL229      0.0019
    176  CG2      326.3850  434.9540  317.4340 C.3   229  VAL229      0.0019
@<TRIPOS>BOND
     1    45    43   ar
     2    44    43   ar
     3    43    42    1
     4    47    46    1
     5    47    48    1
     6    57    55   am
     7    97    96    2
     8    50    48   am
     9    50    51    1
    10    48    49    2
    11   104   103    1
    12   104   105    2
    13    42    41    1
    14    96   102   am
    15    96    95    1
    16   103   102    1
    17   103   106    1
    18    54    55    1
    19    54    51    1
    20    55    56    2
    21    51    52    1
    22    52    53    2
    23    95    98    1
    24    95    94    1
    25    38    41    1
    26    38    39    1
    27    38    37    1
    28    39    40    2
    29   106   108    1
    30   106   107    1
    31    98    99    1
    32    12    11    2
    33    99   101   ar
    34    99   100   ar
    35   109   110    1
    36    13    11   am
    37    11    10    1
    38   153   152    1
    39    73    72    1
    40    73    74    1
    41   151   152   ar
    42   151   149   ar
    43   110   113    1
    44   110   111    1
    45   152   150   ar
    46    72    70   am
    47    67    66    2
    48   113   114    1
    49    81    80    1
    50    70    71    2
    51    70    69    1
    52    10     9    1
    53    74    75    2
    54    74    76   am
    55   149   147   ar
    56    69    68    1
    57   111   112    2
    58     9     6    1
    59    76    77    1
    60   116   115   ar
    61   150   148   ar
    62    66    68   am
    63    66    65    1
    64   114   115    1
    65    80    77    1
    66    80    82    1
    67   115   117   ar
    68    77    78    1
    69   147   148   ar
    70   147   146    1
    71    27    26    2
    72     6     5    1
    73     6     7    1
    74    65    64    1
    75     5     3   am
    76    26    28   am
    77    26    25    1
    78   146   143    1
    79   142   143    1
    80     7     8    2
    81     7    14   am
    82    78    83   am
    83    78    79    2
    84     3     2    1
    85     3     4    2
    86    83    84    1
    87    14    15    1
    88    25    24    1
    89     2     1    1
    90   143   144    1
    91    15    18    1
    92    15    16    1
    93    18    19    1
    94   133   131   am
    95   144   145    2
    96    84    85    1
    97    24    21    1
    98    85    86    2
    99   160   159    1
   100   130   131    1
   101   130   127    1
   102   131   132    2
   103    16    17    2
   104    20    21    1
   105    62    63    1
   106    62    59    1
   107    21    22    1
   108    61    60    2
   109    60    59    1
   110   159   161    1
   111   159   158    1
   112   129   128    2
   113    59    58    1
   114   128   127    1
   115   127   126    1
   116    22    23    2
   117    22    29   am
   118   158   155    1
   119   168   167    2
   120   169   167   am
   121    92    91    1
   122    90    89    2
   123    29    30    1
   124   154   155    1
   125   167   166    1
   126    91    93    1
   127    91    88    1
   128   155   156    1
   129    34    36    1
   130    34    33    1
   131    89    88    1
   132   136   137    2
   133   136   135    1
   134   138   135    1
   135   138   139    1
   136   140   139    1
   137   162   156   am
   138   162   163    1
   139    30    33    1
   140    30    31    1
   141   166   163    1
   142    88    87    1
   143   156   157    2
   144    33    35    1
   145   134   135    1
   146   139   141    1
   147   163   164    1
   148    31    32    2
   149   121   120    2
   150   120   119    1
   151   164   165    2
   152   176   174    1
   153   124   122    1
   154   119   122    1
   155   119   118    1
   156   122   123    1
   157   174   175    1
   158   174   171    1
   159   170   171    1
   160   171   172    1
   161   123   125    1
   162   172   173    2
