@<TRIPOS>MOLECULE
tmp/5w3kB00.pdb
 77 74 0 0 0
SMALL
GASTEIGER

@<TRIPOS>ATOM
      1  N         29.2220  -10.1090   -5.8320 N.3    27  GLN27      -0.1245
      2  CA        29.5460  -11.4250   -6.3600 C.3    27  GLN27       0.1566
      3  C         31.0470  -11.6810   -6.3110 C.2    27  GLN27       0.2260
      4  O         31.4660  -12.8130   -6.0610 O.2    27  GLN27      -0.2867
      5  CB        29.0460  -11.5940   -7.7920 C.3    27  GLN27       0.0367
      6  CG        27.5380  -11.6890   -7.8870 C.3    27  GLN27       0.0905
      7  CD        26.9930  -13.0320   -7.4480 C.2    27  GLN27       0.2608
      8  OE1       27.5680  -14.0780   -7.7590 O.2    27  GLN27      -0.2717
      9  NE2       25.8900  -13.0100   -6.7020 N.am   27  GLN27      -0.0878
     10  N         26.2840  -12.7760  -15.2920 N.3   106  HIS106     -0.1241
     11  CA        25.0270  -12.2530  -15.8340 C.3   106  HIS106      0.1621
     12  C         25.2580  -12.0640  -17.3230 C.2   106  HIS106      0.2264
     13  O         26.3310  -11.6150  -17.7250 O.2   106  HIS106     -0.2867
     14  CB        24.6490  -10.9270  -15.1300 C.3   106  HIS106      0.0745
     15  CG        23.3360  -10.2960  -15.5380 C.ar  106  HIS106      0.0817
     16  ND1       22.2020  -11.0080  -15.8670 N.ar  106  HIS106     -0.2268
     17  CD2       22.9700   -8.9890  -15.5420 C.ar  106  HIS106      0.1154
     18  CE1       21.2040  -10.1660  -16.0920 C.ar  106  HIS106      0.1986
     19  NE2       21.6440   -8.9320  -15.8950 N.ar  106  HIS106     -0.2212
     20  N         24.9010  -17.2170  -10.2740 N.3   128  PRO128     -0.2102
     21  CA        24.1960  -17.6390   -9.0550 C.3   128  PRO128      0.1504
     22  C         22.8540  -16.9240   -8.9490 C.2   128  PRO128      0.2576
     23  O         22.7720  -15.7050   -9.1240 O.2   128  PRO128     -0.2718
     24  CB        25.1520  -17.2300   -7.9250 C.3   128  PRO128      0.0282
     25  CG        26.4990  -17.1010   -8.6130 C.3   128  PRO128      0.0208
     26  CD        26.1640  -16.5260   -9.9610 C.3   128  PRO128      0.0893
     27  N         21.8120  -17.6950   -8.6560 N.am  129  LYS129     -0.1966
     28  CA        20.4680  -17.1450   -8.4780 C.3   129  LYS129      0.1728
     29  C         20.2960  -16.7020   -7.0240 C.2   129  LYS129      0.2617
     30  O         19.4920  -17.2250   -6.2480 O.2   129  LYS129     -0.2715
     31  CB        19.4180  -18.1710   -8.8920 C.3   129  LYS129      0.0311
     32  CG        19.5940  -18.7010  -10.3360 C.3   129  LYS129      0.0038
     33  CD        19.1120  -17.6990  -11.4080 C.3   129  LYS129      0.0206
     34  CE        20.2780  -16.9050  -12.0260 C.3   129  LYS129      0.1093
     35  NZ        19.8810  -15.9060  -13.0670 N.3   129  LYS129     -0.1314
     36  N         21.1040  -15.7150   -6.6440 N.am  130  GLY130     -0.1941
     37  CA        21.0810  -15.2260   -5.2830 C.3   130  GLY130      0.1998
     38  C         22.0490  -14.0800   -5.1160 C.2   130  GLY130      0.2480
     39  O         22.9900  -13.9370   -5.8950 O.2   130  GLY130     -0.2729
     40  N         21.8430  -13.2580   -4.0910 N.am  131  PRO131     -0.2726
     41  CA        22.7680  -12.1480   -3.8250 C.3   131  PRO131      0.1402
     42  C         24.1310  -12.6510   -3.3620 C.2   131  PRO131      0.2269
     43  O         24.2360  -13.6560   -2.6560 O.2   131  PRO131     -0.2865
     44  CB        22.0680  -11.3570   -2.7210 C.3   131  PRO131      0.0296
     45  CG        21.1500  -12.4020   -1.9970 C.3   131  PRO131      0.0237
     46  CD        20.7590  -13.3810   -3.0850 C.3   131  PRO131      0.0939
     47  N         16.6110  -13.1020  -15.5450 N.3   189  ASP189     -0.1239
     48  CA        17.2330  -12.4930  -14.3730 C.3   189  ASP189      0.1674
     49  C         16.7110  -11.0800  -14.1510 C.2   189  ASP189      0.2266
     50  O         16.3480  -10.7030  -13.0260 O.2   189  ASP189     -0.2867
     51  CB        18.7440  -12.4470  -14.5520 C.3   189  ASP189      0.1410
     52  CG        19.4300  -12.0950  -13.2780 C.2   189  ASP189      0.3668
     53  OD1       19.5970  -13.0330  -12.4740 O.co2 189  ASP189     -0.2456
     54  OD2       19.7440  -10.8920  -13.0700 O.co2 189  ASP189     -0.2456
     55  N         14.2810  -10.0280  -10.7410 N.3   193  GLU193     -0.1245
     56  CA        14.6230   -8.9950   -9.7700 C.3   193  GLU193      0.1567
     57  C         13.6900   -7.7940   -9.8860 C.2   193  GLU193      0.2260
     58  O         13.3600   -7.1780   -8.8600 O.2   193  GLU193     -0.2867
     59  CB        16.0970   -8.5810   -9.9150 C.3   193  GLU193      0.0388
     60  CG        16.4340   -7.8760  -11.2330 C.3   193  GLU193      0.1160
     61  CD        17.8880   -8.0070  -11.6470 C.2   193  GLU193      0.3649
     62  OE1       18.3530   -7.1620  -12.4450 O.co2 193  GLU193     -0.2457
     63  OE2       18.5700   -8.9530  -11.1790 O.co2 193  GLU193     -0.2457
     64  N         11.5670  -10.2660   -6.9520 N.3   197  LEU197     -0.1231
     65  CA        12.5020  -10.3750   -5.8240 C.3   197  LEU197      0.1693
     66  C         12.8290   -9.0380   -5.1940 C.2   197  LEU197      0.2592
     67  O         13.0700   -8.9670   -3.9810 O.2   197  LEU197     -0.2718
     68  CB        13.8120  -11.0020   -6.2620 C.3   197  LEU197      0.0284
     69  CG        13.7670  -12.4100   -6.8410 C.3   197  LEU197      0.0019
     70  CD1       15.1060  -12.6960   -7.5440 C.3   197  LEU197      0.0001
     71  CD2       13.4340  -13.4180   -5.7110 C.3   197  LEU197      0.0001
     72  N         12.9860   -8.0080   -6.0120 N.am  198  CYS198     -0.1970
     73  CA        13.3850   -6.6950   -5.5250 C.3   198  CYS198      0.1712
     74  C         12.2710   -5.6830   -5.7310 C.2   198  CYS198      0.2296
     75  O         11.6400   -5.2600   -4.7560 O.2   198  CYS198     -0.2864
     76  CB        14.6860   -6.2600   -6.2170 C.3   198  CYS198      0.0983
     77  SG        16.0790   -7.4400   -5.9090 S.3   198  CYS198     -0.0798
@<TRIPOS>BOND
     1    13    12    2
     2    12    11    1
     3    18    19   ar
     4    18    16   ar
     5    19    17   ar
     6    16    15   ar
     7    11    10    1
     8    11    14    1
     9    47    48    1
    10    17    15   ar
    11    15    14    1
    12    51    48    1
    13    51    52    1
    14    48    49    1
    15    49    50    2
    16    52    54   ar
    17    52    53   ar
    18    35    34    1
    19    62    61   ar
    20    34    33    1
    21    61    60    1
    22    61    63   ar
    23    33    32    1
    24    60    59    1
    25    55    56    1
    26    32    31    1
    27    20    26    1
    28    20    21    1
    29    26    25    1
    30    59    56    1
    31    57    56    1
    32    57    58    2
    33    23    22    2
    34    21    22    1
    35    21    24    1
    36    22    27   am
    37    31    28    1
    38    27    28    1
    39    25    24    1
    40    28    29    1
    41     6     5    1
    42     6     7    1
    43     5     2    1
    44     8     7    2
    45    70    69    1
    46     7     9   am
    47    29    36   am
    48    29    30    2
    49    64    65    1
    50    69    68    1
    51    69    71    1
    52    36    37    1
    53     2     3    1
    54     2     1    1
    55     3     4    2
    56    68    65    1
    57    76    77    1
    58    76    73    1
    59    72    73    1
    60    72    66   am
    61    39    38    2
    62    65    66    1
    63    74    73    1
    64    74    75    2
    65    37    38    1
    66    66    67    2
    67    38    40   am
    68    40    41    1
    69    40    46    1
    70    41    42    1
    71    41    44    1
    72    42    43    2
    73    46    45    1
    74    44    45    1
