@<TRIPOS>MOLECULE
tmp/5w3sD04.pdb
 120 115 0 0 0
SMALL
GASTEIGER

@<TRIPOS>ATOM
      1  N         73.0140   49.1920   52.5280 N.3    18  CYS18      -0.1235
      2  CA        71.5960   49.2940   52.2090 C.3    18  CYS18       0.1677
      3  C         71.3710   49.2900   50.7020 C.2    18  CYS18       0.2270
      4  O         70.3250   48.8290   50.2310 O.2    18  CYS18      -0.2867
      5  CB        71.0080   50.5570   52.8330 C.3    18  CYS18       0.0956
      6  SG        71.0030   50.5500   54.6390 S.3    18  CYS18      -0.0801
      7  N         75.5180   45.4320   59.7090 N.3    31  LEU31      -0.1245
      8  CA        74.8860   46.6120   60.2920 C.3    31  LEU31       0.1561
      9  C         74.1250   46.2530   61.5600 C.2    31  LEU31       0.2260
     10  O         74.1950   46.9720   62.5640 O.2    31  LEU31      -0.2867
     11  CB        73.9370   47.2560   59.2840 C.3    31  LEU31       0.0270
     12  CG        74.5100   47.8310   57.9940 C.3    31  LEU31       0.0019
     13  CD1       73.3640   48.3040   57.1360 C.3    31  LEU31       0.0001
     14  CD2       75.4700   48.9610   58.2610 C.3    31  LEU31       0.0001
     15  N         74.9890   47.6600   65.3050 N.3    35  ILE35      -0.1245
     16  CA        73.9840   48.3910   66.0800 C.3    35  ILE35       0.1561
     17  C         73.8090   47.7550   67.4510 C.2    35  ILE35       0.2260
     18  O         73.7490   48.4480   68.4840 O.2    35  ILE35      -0.2867
     19  CB        72.6590   48.4480   65.2980 C.3    35  ILE35       0.0252
     20  CG1       72.8250   49.2780   64.0270 C.3    35  ILE35       0.0019
     21  CG2       71.5570   49.0740   66.1410 C.3    35  ILE35       0.0019
     22  CD1       71.8070   48.9650   62.9710 C.3    35  ILE35       0.0001
     23  N         76.5720   48.8650   69.5570 N.3    38  ILE38      -0.1231
     24  CA        76.4510   50.2560   69.9810 C.3    38  ILE38       0.1692
     25  C         75.5840   50.3460   71.2320 C.2    38  ILE38       0.2591
     26  O         76.0250   50.8180   72.2920 O.2    38  ILE38      -0.2718
     27  CB        75.8930   51.1230   68.8350 C.3    38  ILE38       0.0266
     28  CG1       76.8580   51.1430   67.6430 C.3    38  ILE38       0.0019
     29  CG2       75.6810   52.5580   69.3000 C.3    38  ILE38       0.0020
     30  CD1       76.2720   51.6240   66.3450 C.3    38  ILE38       0.0001
     31  N         74.3360   49.8730   71.1270 N.am   39  ALA39      -0.1980
     32  CA        73.4390   49.9190   72.2790 C.3    39  ALA39       0.1597
     33  C         73.9890   49.1180   73.4520 C.2    39  ALA39       0.2287
     34  O         73.8140   49.5080   74.6150 O.2    39  ALA39      -0.2864
     35  CB        72.0610   49.4070   71.8710 C.3    39  ALA39       0.0319
     36  N         76.9440   50.9800   75.1530 N.3    42  THR42      -0.1203
     37  CA        76.3310   52.1360   75.7960 C.3    42  THR42       0.1994
     38  C         75.6970   51.7510   77.1310 C.2    42  THR42       0.2617
     39  O         76.0260   52.3250   78.1750 O.2    42  THR42      -0.2717
     40  CB        75.2980   52.7600   74.8630 C.3    42  THR42       0.1784
     41  OG1       75.9190   53.0710   73.6140 O.3    42  THR42      -0.2211
     42  CG2       74.7470   54.0390   75.4630 C.3    42  THR42       0.0376
     43  N         74.7910   50.7660   77.1120 N.am   43  ILE43      -0.1979
     44  CA        74.1020   50.3460   78.3340 C.3    43  ILE43       0.1595
     45  C         75.1110   49.8900   79.3810 C.2    43  ILE43       0.2287
     46  O         74.9620   50.1740   80.5800 O.2    43  ILE43      -0.2864
     47  CB        73.0760   49.2450   78.0090 C.3    43  ILE43       0.0276
     48  CG1       71.9570   49.8030   77.1230 C.3    43  ILE43       0.0022
     49  CG2       72.4680   48.6620   79.2880 C.3    43  ILE43       0.0022
     50  CD1       71.1570   48.7500   76.3960 C.3    43  ILE43       0.0001
     51  N         76.6020   52.8830   81.0250 N.3    46  VAL46      -0.1245
     52  CA        75.6310   53.5760   81.8650 C.3    46  VAL46       0.1561
     53  C         75.4940   52.8720   83.2070 C.2    46  VAL46       0.2260
     54  O         75.6280   53.4980   84.2640 O.2    46  VAL46      -0.2867
     55  CB        74.2790   53.7060   81.1410 C.3    46  VAL46       0.0252
     56  CG1       73.2320   54.3050   82.0590 C.3    46  VAL46       0.0019
     57  CG2       74.4270   54.5890   79.9280 C.3    46  VAL46       0.0019
     58  N         80.3600   55.7990   68.8040 N.3   344  TRP344     -0.1241
     59  CA        79.4540   56.8320   68.3150 C.3   344  TRP344      0.1605
     60  C         79.9820   57.4580   67.0270 C.2   344  TRP344      0.2264
     61  O         79.2120   57.7380   66.0930 O.2   344  TRP344     -0.2867
     62  CB        79.2480   57.8850   69.4010 C.3   344  TRP344      0.0550
     63  CG        78.5460   57.3740   70.6330 C.ar  344  TRP344      0.0003
     64  CD1       79.1280   57.0210   71.8040 C.ar  344  TRP344      0.0946
     65  CD2       77.1400   57.1670   70.8140 C.ar  344  TRP344      0.0152
     66  NE1       78.1860   56.6050   72.7040 N.ar  344  TRP344     -0.2442
     67  CE2       76.9540   56.6850   72.1190 C.ar  344  TRP344      0.0810
     68  CE3       76.0220   57.3420   70.0010 C.ar  344  TRP344      0.0012
     69  CZ2       75.7000   56.3760   72.6250 C.ar  344  TRP344      0.0191
     70  CZ3       74.7860   57.0410   70.5040 C.ar  344  TRP344      0.0001
     71  CH2       74.6330   56.5660   71.8040 C.ar  344  TRP344      0.0015
     72  N         78.6840   55.5480   64.4860 N.3   347  VAL347     -0.1245
     73  CA        77.3790   55.9770   63.9950 C.3   347  VAL347      0.1561
     74  C         77.5530   57.0720   62.9600 C.2   347  VAL347      0.2260
     75  O         76.7550   57.1850   62.0160 O.2   347  VAL347     -0.2867
     76  CB        76.4530   56.4540   65.1210 C.3   347  VAL347      0.0252
     77  CG1       75.1200   56.8540   64.5090 C.3   347  VAL347      0.0019
     78  CG2       76.2560   55.3900   66.1550 C.3   347  VAL347      0.0019
     79  N         77.5020   55.6470   60.0150 N.3   350  TYR350     -0.1227
     80  CA        76.1060   55.3890   59.6850 C.3   350  TYR350      0.1736
     81  C         75.2830   56.6620   59.5190 C.2   350  TYR350      0.2595
     82  O         74.0560   56.6140   59.6600 O.2   350  TYR350     -0.2718
     83  CB        75.4910   54.4850   60.7560 C.3   350  TYR350      0.0548
     84  CG        76.0910   53.0930   60.8240 C.ar  350  TYR350     -0.0200
     85  CD1       76.7580   52.5380   59.7400 C.ar  350  TYR350     -0.0009
     86  CD2       76.0180   52.3470   61.9850 C.ar  350  TYR350     -0.0009
     87  CE1       77.3010   51.3000   59.8000 C.ar  350  TYR350      0.0417
     88  CE2       76.5700   51.0890   62.0530 C.ar  350  TYR350      0.0417
     89  CZ        77.2110   50.5740   60.9500 C.ar  350  TYR350      0.1957
     90  OH        77.7710   49.3260   60.9850 O.3   350  TYR350     -0.2866
     91  N         75.9240   57.7920   59.2220 N.am  351  LEU351     -0.1980
     92  CA        75.2350   58.9590   58.6900 C.3   351  LEU351      0.1596
     93  C         75.7640   59.4200   57.3430 C.2   351  LEU351      0.2287
     94  O         75.1060   60.2410   56.6970 O.2   351  LEU351     -0.2864
     95  CB        75.3250   60.1360   59.6690 C.3   351  LEU351      0.0297
     96  CG        74.6190   59.9780   61.0110 C.3   351  LEU351      0.0022
     97  CD1       74.9370   61.1580   61.8960 C.3   351  LEU351      0.0001
     98  CD2       73.1280   59.8500   60.8310 C.3   351  LEU351      0.0001
     99  N         75.7360   57.8580   54.6400 N.3   353  PHE353     -0.1227
    100  CA        74.9840   57.2400   53.5590 C.3   353  PHE353      0.1736
    101  C         73.9530   58.1810   52.9470 C.2   353  PHE353      0.2595
    102  O         73.1370   57.7310   52.1340 O.2   353  PHE353     -0.2718
    103  CB        74.2940   55.9730   54.0810 C.3   353  PHE353      0.0547
    104  CG        75.2440   54.8870   54.5570 C.ar  353  PHE353     -0.0202
    105  CD1       76.5830   54.8610   54.1850 C.ar  353  PHE353     -0.0042
    106  CD2       74.7860   53.8950   55.4020 C.ar  353  PHE353     -0.0042
    107  CE1       77.4250   53.8700   54.6350 C.ar  353  PHE353     -0.0003
    108  CE2       75.6310   52.9020   55.8530 C.ar  353  PHE353     -0.0003
    109  CZ        76.9500   52.8930   55.4700 C.ar  353  PHE353     -0.0000
    110  N         74.0330   59.4600   53.3250 N.am  354  PHE354     -0.1976
    111  CA        73.1750   60.5450   52.8310 C.3   354  PHE354      0.1639
    112  C         74.1480   61.5400   52.1970 C.2   354  PHE354      0.2290
    113  O         75.2310   61.7570   52.7410 O.2   354  PHE354     -0.2864
    114  CB        72.3870   61.1820   53.9720 C.3   354  PHE354      0.0560
    115  CG        71.4780   60.2210   54.6840 C.ar  354  PHE354     -0.0200
    116  CD1       70.1770   60.0290   54.2520 C.ar  354  PHE354     -0.0042
    117  CD2       71.9270   59.5040   55.7810 C.ar  354  PHE354     -0.0042
    118  CE1       69.3390   59.1430   54.9020 C.ar  354  PHE354     -0.0003
    119  CE2       71.0930   58.6190   56.4360 C.ar  354  PHE354     -0.0003
    120  CZ        69.7970   58.4380   55.9960 C.ar  354  PHE354     -0.0000
@<TRIPOS>BOND
     1     4     3    2
     2     3     2    1
     3   102   101    2
     4   112   113    2
     5   112   111    1
     6     2     1    1
     7     2     5    1
     8   111   110    1
     9   111   114    1
    10     5     6    1
    11   101   110   am
    12   101   100    1
    13   100   103    1
    14   100    99    1
    15   114   115    1
    16   103   104    1
    17   105   104   ar
    18   105   107   ar
    19   116   115   ar
    20   116   118   ar
    21   104   106   ar
    22   107   109   ar
    23   115   117   ar
    24   118   120   ar
    25   106   108   ar
    26   109   108   ar
    27   117   119   ar
    28   120   119   ar
    29    94    93    2
    30    13    12    1
    31    93    92    1
    32    12    14    1
    33    12    11    1
    34    92    91    1
    35    92    95    1
    36    91    81   am
    37    11     8    1
    38    81    82    2
    39    81    80    1
    40    95    96    1
    41    80    79    1
    42    80    83    1
    43     7     8    1
    44    85    87   ar
    45    85    84   ar
    46    87    89   ar
    47     8     9    1
    48    83    84    1
    49    84    86   ar
    50    98    96    1
    51    89    90    1
    52    89    88   ar
    53    96    97    1
    54     9    10    2
    55    86    88   ar
    56    75    74    2
    57    74    73    1
    58    22    20    1
    59    73    72    1
    60    73    76    1
    61    20    19    1
    62    77    76    1
    63    76    78    1
    64    19    16    1
    65    19    21    1
    66    15    16    1
    67    16    17    1
    68    61    60    2
    69    30    28    1
    70    60    59    1
    71    17    18    2
    72    28    27    1
    73    59    58    1
    74    59    62    1
    75    27    29    1
    76    27    24    1
    77    62    63    1
    78    23    24    1
    79    24    25    1
    80    68    70   ar
    81    68    65   ar
    82    70    71   ar
    83    63    65   ar
    84    63    64   ar
    85    65    67   ar
    86    31    25   am
    87    31    32    1
    88    25    26    2
    89    71    69   ar
    90    64    66   ar
    91    35    32    1
    92    67    69   ar
    93    67    66   ar
    94    32    33    1
    95    33    34    2
    96    41    40    1
    97    40    42    1
    98    40    37    1
    99    36    37    1
   100    37    38    1
   101    50    48    1
   102    43    38   am
   103    43    44    1
   104    48    47    1
   105    38    39    2
   106    47    44    1
   107    47    49    1
   108    44    45    1
   109    45    46    2
   110    57    55    1
   111    51    52    1
   112    55    52    1
   113    55    56    1
   114    52    53    1
   115    53    54    2
