@<TRIPOS>MOLECULE
tmp/5w3sD02.pdb
 98 96 0 0 0
SMALL
GASTEIGER

@<TRIPOS>ATOM
      1  N        101.9750   94.7520   91.2060 N.3   428  GLN428     -0.1245
      2  CA       102.6620   95.9720   90.8110 C.3   428  GLN428      0.1566
      3  C        103.9130   96.2340   91.6440 C.2   428  GLN428      0.2260
      4  O        104.4260   97.3590   91.6400 O.2   428  GLN428     -0.2867
      5  CB       101.7100   97.1640   90.9030 C.3   428  GLN428      0.0367
      6  CG       100.5650   97.1160   89.9140 C.3   428  GLN428      0.0905
      7  CD        99.6310   98.2970   90.0530 C.2   428  GLN428      0.2608
      8  OE1       99.7810   99.1180   90.9570 O.2   428  GLN428     -0.2717
      9  NE2       98.6640   98.3940   89.1520 N.am  428  GLN428     -0.0878
     10  N        107.4270   97.3500   88.3790 N.3   431  TYR431     -0.1241
     11  CA       106.6950   98.0590   87.3390 C.3   431  TYR431      0.1605
     12  C        107.0980   97.6100   85.9410 C.2   431  TYR431      0.2264
     13  O        106.2480   97.5430   85.0440 O.2   431  TYR431     -0.2867
     14  CB       106.9200   99.5590   87.5080 C.3   431  TYR431      0.0534
     15  CG       106.1740  100.4300   86.5330 C.ar  431  TYR431     -0.0201
     16  CD1      104.8210  100.6800   86.6880 C.ar  431  TYR431     -0.0009
     17  CD2      106.8290  101.0140   85.4630 C.ar  431  TYR431     -0.0009
     18  CE1      104.1410  101.4810   85.7980 C.ar  431  TYR431      0.0417
     19  CE2      106.1610  101.8130   84.5740 C.ar  431  TYR431      0.0417
     20  CZ       104.8170  102.0430   84.7390 C.ar  431  TYR431      0.1957
     21  OH       104.1550  102.8460   83.8400 O.3   431  TYR431     -0.2866
     22  N        105.5000   94.4380   85.1310 N.3   434  TRP434     -0.1227
     23  CA       104.0740   94.6770   84.9650 C.3   434  TRP434      0.1737
     24  C        103.7640   95.1850   83.5610 C.2   434  TRP434      0.2595
     25  O        102.8510   94.6810   82.8910 O.2   434  TRP434     -0.2718
     26  CB       103.6240   95.6720   86.0260 C.3   434  TRP434      0.0564
     27  CG       102.1900   95.9920   86.0610 C.ar  434  TRP434      0.0003
     28  CD1      101.1740   95.1900   86.4670 C.ar  434  TRP434      0.0946
     29  CD2      101.6020   97.2270   85.6790 C.ar  434  TRP434      0.0152
     30  NE1       99.9800   95.8550   86.3630 N.ar  434  TRP434     -0.2442
     31  CE2      100.2210   97.1120   85.8780 C.ar  434  TRP434      0.0810
     32  CE3      102.1120   98.4240   85.1860 C.ar  434  TRP434      0.0012
     33  CZ2       99.3510   98.1460   85.6010 C.ar  434  TRP434      0.0191
     34  CZ3      101.2530   99.4370   84.9140 C.ar  434  TRP434      0.0001
     35  CH2       99.8950   99.3010   85.1250 C.ar  434  TRP434      0.0015
     36  N        104.5150   96.1920   83.1040 N.am  435  LEU435     -0.1980
     37  CA       104.4120   96.6460   81.7190 C.3   435  LEU435      0.1596
     38  C        104.5910   95.4880   80.7520 C.2   435  LEU435      0.2287
     39  O        103.8150   95.3230   79.8020 O.2   435  LEU435     -0.2864
     40  CB       105.4640   97.7070   81.4240 C.3   435  LEU435      0.0297
     41  CG       105.4270   99.0600   82.1170 C.3   435  LEU435      0.0022
     42  CD1      106.6610   99.8250   81.7100 C.3   435  LEU435      0.0001
     43  CD2      104.1840   99.8350   81.7590 C.3   435  LEU435      0.0001
     44  N        101.6520   93.5070   80.4180 N.3   438  ARG438     -0.1231
     45  CA       100.6270   94.1120   79.5790 C.3   438  ARG438      0.1694
     46  C        100.9130   93.8790   78.1010 C.2   438  ARG438      0.2591
     47  O        100.0430   93.3990   77.3660 O.2   438  ARG438     -0.2718
     48  CB       100.5060   95.5990   79.8970 C.3   438  ARG438      0.0321
     49  CG        99.9820   95.8840   81.2940 C.3   438  ARG438      0.0489
     50  CD        98.5160   95.5390   81.4120 C.3   438  ARG438      0.2205
     51  NE        97.9500   95.8380   82.7230 N.pl3 438  ARG438     -0.0865
     52  CZ        97.9310   95.0040   83.7610 C.cat 438  ARG438      0.5346
     53  NH1       98.4760   93.7950   83.6940 N.pl3 438  ARG438      0.1354
     54  NH2       97.3670   95.3930   84.8940 N.pl3 438  ARG438      0.1354
     55  N        102.1290   94.1920   77.6480 N.am  439  ILE439     -0.1980
     56  CA       102.4770   93.9690   76.2450 C.3   439  ILE439      0.1595
     57  C        102.3020   92.4960   75.8890 C.2   439  ILE439      0.2287
     58  O        101.7840   92.1500   74.8160 O.2   439  ILE439     -0.2864
     59  CB       103.9130   94.4580   75.9680 C.3   439  ILE439      0.0276
     60  CG1      104.0290   95.9660   76.2050 C.3   439  ILE439      0.0022
     61  CG2      104.3160   94.1580   74.5250 C.3   439  ILE439      0.0022
     62  CD1      105.4410   96.4650   76.3360 C.3   439  ILE439      0.0001
     63  N         98.1780   91.7940   75.8350 N.3   442  TYR442     -0.1227
     64  CA        97.5100   92.4390   74.7100 C.3   442  TYR442      0.1736
     65  C         97.9920   91.8490   73.3940 C.2   442  TYR442      0.2596
     66  O         97.1860   91.4680   72.5340 O.2   442  TYR442     -0.2718
     67  CB        97.7470   93.9510   74.7190 C.3   442  TYR442      0.0548
     68  CG        97.0600   94.7270   75.8220 C.ar  442  TYR442     -0.0200
     69  CD1       95.6970   94.9510   75.7970 C.ar  442  TYR442     -0.0009
     70  CD2       97.7880   95.2950   76.8490 C.ar  442  TYR442     -0.0009
     71  CE1       95.0760   95.6750   76.7910 C.ar  442  TYR442      0.0417
     72  CE2       97.1760   96.0200   77.8400 C.ar  442  TYR442      0.0417
     73  CZ        95.8230   96.2090   77.8060 C.ar  442  TYR442      0.1957
     74  OH        95.2160   96.9390   78.8020 O.3   442  TYR442     -0.2866
     75  N         99.3110   91.7670   73.2220 N.am  443  SER443     -0.1952
     76  CA        99.8780   91.2080   72.0010 C.3   443  SER443      0.1924
     77  C         99.4220   89.7710   71.7840 C.2   443  SER443      0.2314
     78  O         99.0200   89.3950   70.6780 O.2   443  SER443     -0.2863
     79  CB       101.3970   91.2830   72.0620 C.3   443  SER443      0.2116
     80  OG       101.9000   90.4640   73.0970 O.3   443  SER443     -0.2180
     81  N         95.4000   89.4960   71.2340 N.3   446  SER446     -0.1217
     82  CA        95.1040   90.0700   69.9310 C.3   446  SER446      0.1889
     83  C         95.5830   89.1620   68.8090 C.2   446  SER446      0.2288
     84  O         94.8510   88.9080   67.8450 O.2   446  SER446     -0.2866
     85  CB        95.7520   91.4440   69.8250 C.3   446  SER446      0.2089
     86  OG        97.1590   91.3320   69.7740 O.3   446  SER446     -0.2183
     87  N         92.3740   87.6750   66.9050 N.3   450  TYR450     -0.1241
     88  CA        91.9610   88.5360   65.8090 C.3   450  TYR450      0.1605
     89  C         92.5320   88.1280   64.4570 C.2   450  TYR450      0.2264
     90  O         92.1570   88.7330   63.4480 O.2   450  TYR450     -0.2867
     91  CB        92.3760   89.9860   66.0890 C.3   450  TYR450      0.0534
     92  CG        91.7880   90.6250   67.3330 C.ar  450  TYR450     -0.0201
     93  CD1       90.7180   90.0640   68.0080 C.ar  450  TYR450     -0.0009
     94  CD2       92.3200   91.7960   67.8320 C.ar  450  TYR450     -0.0009
     95  CE1       90.2020   90.6460   69.1400 C.ar  450  TYR450      0.0417
     96  CE2       91.8070   92.3860   68.9570 C.ar  450  TYR450      0.0417
     97  CZ        90.7490   91.8110   69.6080 C.ar  450  TYR450      0.1957
     98  OH        90.2400   92.4070   70.7360 O.3   450  TYR450     -0.2866
@<TRIPOS>BOND
     1    90    89    2
     2    89    88    1
     3    88    91    1
     4    88    87    1
     5    91    92    1
     6    92    94   ar
     7    92    93   ar
     8    94    96   ar
     9    84    83    2
    10    93    95   ar
    11    83    82    1
    12    96    97   ar
    13    95    97   ar
    14    97    98    1
    15    86    85    1
    16    85    82    1
    17    82    81    1
    18    78    77    2
    19    77    76    1
    20    76    79    1
    21    76    75    1
    22    79    80    1
    23    66    65    2
    24    75    65   am
    25    65    64    1
    26    61    59    1
    27    64    67    1
    28    64    63    1
    29    67    68    1
    30    58    57    2
    31    69    68   ar
    32    69    71   ar
    33    68    70   ar
    34    57    56    1
    35    59    60    1
    36    59    56    1
    37    60    62    1
    38    56    55    1
    39    71    73   ar
    40    70    72   ar
    41    47    46    2
    42    55    46   am
    43    73    72   ar
    44    73    74    1
    45    46    45    1
    46    45    48    1
    47    45    44    1
    48    39    38    2
    49    48    49    1
    50    38    37    1
    51    49    50    1
    52    50    51    1
    53    40    37    1
    54    40    41    1
    55    42    41    1
    56    37    36    1
    57    43    41    1
    58    51    52    2
    59    25    24    2
    60    36    24   am
    61    24    23    1
    62    53    52    1
    63    52    54    1
    64    21    20    1
    65    19    20   ar
    66    19    17   ar
    67    20    18   ar
    68    34    35   ar
    69    34    32   ar
    70    23    22    1
    71    23    26    1
    72    13    12    2
    73    35    33   ar
    74    32    29   ar
    75    17    15   ar
    76    33    31   ar
    77    29    31   ar
    78    29    27   ar
    79    18    16   ar
    80    31    30   ar
    81    12    11    1
    82    26    27    1
    83    27    28   ar
    84    30    28   ar
    85    15    16   ar
    86    15    14    1
    87    11    14    1
    88    11    10    1
    89     9     7   am
    90     6     7    1
    91     6     5    1
    92     7     8    2
    93     2     5    1
    94     2     1    1
    95     2     3    1
    96     4     3    2
