@<TRIPOS>MOLECULE
tmp/5w3sD05.pdb
 144 139 0 0 0
SMALL
GASTEIGER

@<TRIPOS>ATOM
      1  N         97.9650   74.0870   63.3130 N.3   375  CYS375     -0.1235
      2  CA        98.0900   73.9380   64.7550 C.3   375  CYS375      0.1677
      3  C         99.5280   73.6580   65.1620 C.2   375  CYS375      0.2270
      4  O         99.9150   73.9640   66.2930 O.2   375  CYS375     -0.2867
      5  CB        97.1700   72.8300   65.2650 C.3   375  CYS375      0.0956
      6  SG        95.4200   73.2470   65.2660 S.3   375  CYS375     -0.0801
      7  N        101.0280   77.5250   64.9180 N.3   378  ALA378     -0.1231
      8  CA       100.4910   78.2750   66.0430 C.3   378  ALA378      0.1694
      9  C        100.8920   77.6530   67.3720 C.2   378  ALA378      0.2591
     10  O        100.9890   78.3610   68.3800 O.2   378  ALA378     -0.2718
     11  CB        98.9740   78.3660   65.9220 C.3   378  ALA378      0.0304
     12  N        101.1430   76.3450   67.4000 N.am  379  ALA379     -0.1980
     13  CA       101.7040   75.7450   68.6010 C.3   379  ALA379      0.1597
     14  C        103.1260   76.2170   68.8480 C.2   379  ALA379      0.2287
     15  O        103.5430   76.3160   70.0030 O.2   379  ALA379     -0.2864
     16  CB       101.6670   74.2240   68.5240 C.3   379  ALA379      0.0319
     17  N        102.7590   79.5750   70.3360 N.3   382  TYR382     -0.1227
     18  CA       102.2060   79.3030   71.6550 C.3   382  TYR382      0.1736
     19  C        103.2940   78.8900   72.6370 C.2   382  TYR382      0.2595
     20  O        103.3240   79.3710   73.7730 O.2   382  TYR382     -0.2718
     21  CB       101.1410   78.2190   71.5050 C.3   382  TYR382      0.0548
     22  CG       100.3390   77.8610   72.7270 C.ar  382  TYR382     -0.0200
     23  CD1       99.3040   78.6580   73.1530 C.ar  382  TYR382     -0.0009
     24  CD2      100.5850   76.6950   73.4230 C.ar  382  TYR382     -0.0009
     25  CE1       98.5580   78.3290   74.2390 C.ar  382  TYR382      0.0417
     26  CE2       99.8380   76.3590   74.5200 C.ar  382  TYR382      0.0417
     27  CZ        98.8270   77.1810   74.9220 C.ar  382  TYR382      0.1957
     28  OH        98.0740   76.8500   76.0170 O.3   382  TYR382     -0.2866
     29  N        104.2160   78.0250   72.2070 N.am  383  LEU383     -0.1980
     30  CA       105.3120   77.6110   73.0790 C.3   383  LEU383      0.1596
     31  C        106.2000   78.7860   73.4430 C.2   383  LEU383      0.2287
     32  O        106.6460   78.9000   74.5920 O.2   383  LEU383     -0.2864
     33  CB       106.1530   76.5240   72.4160 C.3   383  LEU383      0.0297
     34  CG       105.5840   75.1210   72.2320 C.3   383  LEU383      0.0022
     35  CD1      106.5670   74.3040   71.4410 C.3   383  LEU383      0.0001
     36  CD2      105.3150   74.4590   73.5520 C.3   383  LEU383      0.0001
     37  N        104.6360   80.6300   76.0380 N.3   386  CYS386     -0.1221
     38  CA       104.5680   79.8190   77.2470 C.3   386  CYS386      0.1808
     39  C        105.8570   79.9170   78.0510 C.2   386  CYS386      0.2601
     40  O        105.8240   80.1570   79.2640 O.2   386  CYS386     -0.2717
     41  CB       104.2590   78.3660   76.9010 C.3   386  CYS386      0.0970
     42  SG       102.5660   78.0490   76.3830 S.3   386  CYS386     -0.0800
     43  N        107.0040   79.7270   77.3970 N.am  387  PHE387     -0.1976
     44  CA       108.2760   79.8680   78.0980 C.3   387  PHE387      0.1639
     45  C        108.4460   81.2790   78.6400 C.2   387  PHE387      0.2290
     46  O        108.7890   81.4690   79.8180 O.2   387  PHE387     -0.2864
     47  CB       109.4420   79.5160   77.1780 C.3   387  PHE387      0.0560
     48  CG       109.5100   78.0690   76.8050 C.ar  387  PHE387     -0.0200
     49  CD1      109.8920   77.1200   77.7300 C.ar  387  PHE387     -0.0042
     50  CD2      109.2430   77.6650   75.5170 C.ar  387  PHE387     -0.0042
     51  CE1      109.9640   75.7910   77.3820 C.ar  387  PHE387     -0.0003
     52  CE2      109.3160   76.3420   75.1680 C.ar  387  PHE387     -0.0003
     53  CZ       109.6800   75.4050   76.1000 C.ar  387  PHE387     -0.0000
     54  N        106.1180   82.0600   81.4640 N.3   390  TRP390     -0.1241
     55  CA       106.4550   81.2170   82.6040 C.3   390  TRP390      0.1605
     56  C        107.5970   81.8110   83.4050 C.2   390  TRP390      0.2264
     57  O        107.5010   81.9630   84.6280 O.2   390  TRP390     -0.2867
     58  CB       106.8360   79.8140   82.1480 C.3   390  TRP390      0.0550
     59  CG       107.1810   78.9280   83.2970 C.ar  390  TRP390      0.0003
     60  CD1      106.3870   78.6320   84.3560 C.ar  390  TRP390      0.0946
     61  CD2      108.4020   78.2070   83.4990 C.ar  390  TRP390      0.0152
     62  NE1      107.0330   77.7850   85.2140 N.ar  390  TRP390     -0.2442
     63  CE2      108.2730   77.5050   84.7090 C.ar  390  TRP390      0.0810
     64  CE3      109.5890   78.0910   82.7790 C.ar  390  TRP390      0.0012
     65  CZ2      109.2810   76.7000   85.2130 C.ar  390  TRP390      0.0191
     66  CZ3      110.5880   77.2920   83.2830 C.ar  390  TRP390      0.0001
     67  CH2      110.4300   76.6070   84.4860 C.ar  390  TRP390      0.0015
     68  N        103.7820   77.0550   86.8000 N.3   402  SER402     -0.1202
     69  CA       104.2680   75.9040   86.0580 C.3   402  SER402      0.2020
     70  C        103.8680   76.0330   84.5970 C.2   402  SER402      0.2619
     71  O        102.8730   76.6810   84.2700 O.2   402  SER402     -0.2717
     72  CB       103.7090   74.6050   86.6430 C.3   402  SER402      0.2103
     73  OG       102.3000   74.5430   86.5100 O.3   402  SER402     -0.2182
     74  N        104.6550   75.4040   83.7210 N.am  403  LEU403     -0.1965
     75  CA       104.3860   75.4730   82.2880 C.3   403  LEU403      0.1728
     76  C        103.0120   74.9290   81.9380 C.2   403  LEU403      0.2616
     77  O        102.3800   75.4010   80.9840 O.2   403  LEU403     -0.2715
     78  CB       105.4430   74.6960   81.5130 C.3   403  LEU403      0.0311
     79  CG       106.8710   75.2180   81.4710 C.3   403  LEU403      0.0022
     80  CD1      107.7640   74.1830   80.8410 C.3   403  LEU403      0.0001
     81  CD2      106.9590   76.5020   80.6850 C.3   403  LEU403      0.0001
     82  N        102.5390   73.9280   82.6750 N.am  404  ASN404     -0.1972
     83  CA       101.2090   73.4040   82.4090 C.3   404  ASN404      0.1688
     84  C        100.1480   74.4550   82.7000 C.2   404  ASN404      0.2292
     85  O         99.2610   74.6990   81.8780 O.2   404  ASN404     -0.2864
     86  CB       100.9630   72.1550   83.2360 C.3   404  ASN404      0.1181
     87  CG        99.7210   71.4240   82.8100 C.2   404  ASN404      0.2629
     88  OD1       99.0170   71.8320   81.8870 O.2   404  ASN404     -0.2716
     89  ND2       99.4410   70.3390   83.4840 N.am  404  ASN404     -0.0877
     90  N        100.1010   76.9010   79.9130 N.3   407  SER407     -0.1217
     91  CA        99.3870   76.4440   78.7250 C.3   407  SER407      0.1889
     92  C         97.8770   76.4750   78.9330 C.2   407  SER407      0.2288
     93  O         97.1260   76.8620   78.0280 O.2   407  SER407     -0.2866
     94  CB        99.8470   75.0390   78.3560 C.3   407  SER407      0.2089
     95  OG        99.1730   74.5740   77.2050 O.3   407  SER407     -0.2183
     96  N         95.5960   79.0000   76.7030 N.3   411  PHE411     -0.1241
     97  CA        94.5120   78.3420   75.9820 C.3   411  PHE411      0.1605
     98  C         93.1710   78.9990   76.3050 C.2   411  PHE411      0.2264
     99  O         92.4030   79.3820   75.4040 O.2   411  PHE411     -0.2867
    100  CB        94.5310   76.8640   76.3630 C.3   411  PHE411      0.0534
    101  CG        93.5690   76.0100   75.6150 C.ar  411  PHE411     -0.0203
    102  CD1       93.8010   75.6710   74.2990 C.ar  411  PHE411     -0.0042
    103  CD2       92.4600   75.4900   76.2500 C.ar  411  PHE411     -0.0042
    104  CE1       92.9220   74.8640   73.6210 C.ar  411  PHE411     -0.0003
    105  CE2       91.5830   74.6840   75.5760 C.ar  411  PHE411     -0.0003
    106  CZ        91.8120   74.3670   74.2610 C.ar  411  PHE411     -0.0000
    107  N         92.9170   82.3060   74.5810 N.3   414  ILE414     -0.1245
    108  CA        92.5120   82.1610   73.1880 C.3   414  ILE414      0.1561
    109  C         91.0040   82.0430   73.1050 C.2   414  ILE414      0.2260
    110  O         90.3630   82.6570   72.2450 O.2   414  ILE414     -0.2867
    111  CB        93.1990   80.9460   72.5330 C.3   414  ILE414      0.0252
    112  CG1       94.7060   81.1210   72.5080 C.3   414  ILE414      0.0019
    113  CG2       92.7210   80.7920   71.0790 C.3   414  ILE414      0.0019
    114  CD1       95.4610   79.8410   72.2790 C.3   414  ILE414      0.0001
    115  N         96.2580   85.8670   68.7000 N.3   448  PHE448     -0.1241
    116  CA        95.5970   84.5760   68.5430 C.3   448  PHE448      0.1605
    117  C         94.0890   84.6710   68.3270 C.2   448  PHE448      0.2264
    118  O         93.5160   83.7450   67.7420 O.2   448  PHE448     -0.2867
    119  CB        95.8740   83.6650   69.7480 C.3   448  PHE448      0.0534
    120  CG        97.2600   83.0180   69.7720 C.ar  448  PHE448     -0.0203
    121  CD1       98.2080   83.2460   68.8040 C.ar  448  PHE448     -0.0042
    122  CD2       97.5640   82.0990   70.7480 C.ar  448  PHE448     -0.0042
    123  CE1       99.4430   82.6180   68.8430 C.ar  448  PHE448     -0.0003
    124  CE2       98.7690   81.4670   70.7850 C.ar  448  PHE448     -0.0003
    125  CZ        99.7230   81.7280   69.8440 C.ar  448  PHE448     -0.0000
    126  N         93.9580   84.4520   63.8430 N.3   452  ILE452     -0.1245
    127  CA        94.2780   83.0380   63.7310 C.3   452  ILE452      0.1561
    128  C         93.0270   82.1630   63.7910 C.2   452  ILE452      0.2260
    129  O         92.8510   81.2700   62.9590 O.2   452  ILE452     -0.2867
    130  CB        95.3290   82.6930   64.8100 C.3   452  ILE452      0.0252
    131  CG1       96.6850   83.1840   64.2940 C.3   452  ILE452      0.0019
    132  CG2       95.3770   81.2350   65.1700 C.3   452  ILE452      0.0019
    133  CD1       97.7960   83.1630   65.2730 C.3   452  ILE452      0.0001
    134  N         91.5060   79.7440   60.8140 N.3   456  PHE456     -0.1241
    135  CA        90.7770   78.4790   60.8840 C.3   456  PHE456      0.1605
    136  C         89.4520   78.5830   60.1430 C.2   456  PHE456      0.2264
    137  O         89.1130   77.7320   59.3040 O.2   456  PHE456     -0.2867
    138  CB        90.5250   78.0740   62.3350 C.3   456  PHE456      0.0534
    139  CG        91.7490   77.6280   63.0710 C.ar  456  PHE456     -0.0203
    140  CD1       92.2820   76.3750   62.8600 C.ar  456  PHE456     -0.0042
    141  CD2       92.3430   78.4440   64.0070 C.ar  456  PHE456     -0.0042
    142  CE1       93.3990   75.9600   63.5440 C.ar  456  PHE456     -0.0003
    143  CE2       93.4580   78.0310   64.6960 C.ar  456  PHE456     -0.0003
    144  CZ        93.9860   76.7880   64.4640 C.ar  456  PHE456     -0.0000
@<TRIPOS>BOND
     1   137   136    2
     2   136   135    1
     3   134   135    1
     4   135   138    1
     5   138   139    1
     6   140   139   ar
     7   140   142   ar
     8   129   128    2
     9   139   141   ar
    10     1     2    1
    11   142   144   ar
    12   127   128    1
    13   127   126    1
    14   127   130    1
    15   141   143   ar
    16   131   130    1
    17   131   133    1
    18   144   143   ar
    19     2     3    1
    20     2     5    1
    21   130   132    1
    22     7     8    1
    23     3     4    2
    24     5     6    1
    25    11     8    1
    26     8     9    1
    27     9    12   am
    28     9    10    2
    29    12    13    1
    30   118   117    2
    31   117   116    1
    32    16    13    1
    33   116   115    1
    34   116   119    1
    35    13    14    1
    36   121   123   ar
    37   121   120   ar
    38   123   125   ar
    39    14    15    2
    40   119   120    1
    41   120   122   ar
    42   125   124   ar
    43    17    18    1
    44   122   124   ar
    45   113   111    1
    46    35    34    1
    47    21    18    1
    48    21    22    1
    49    18    19    1
    50    29    19   am
    51    29    30    1
    52    34    33    1
    53    34    36    1
    54   110   109    2
    55   114   112    1
    56    33    30    1
    57   112   111    1
    58   111   108    1
    59    19    20    2
    60    22    23   ar
    61    22    24   ar
    62    30    31    1
    63   109   108    1
    64    23    25   ar
    65   108   107    1
    66    24    26   ar
    67    31    32    2
    68   104   106   ar
    69   104   102   ar
    70    25    27   ar
    71   106   105   ar
    72   102   101   ar
    73    26    27   ar
    74    27    28    1
    75    52    50   ar
    76    52    53   ar
    77    99    98    2
    78    50    48   ar
    79   105   103   ar
    80   101   103   ar
    81   101   100    1
    82    97    98    1
    83    97   100    1
    84    97    96    1
    85    37    38    1
    86    53    51   ar
    87    42    41    1
    88    48    47    1
    89    48    49   ar
    90    41    38    1
    91    47    44    1
    92    95    94    1
    93    38    39    1
    94    51    49   ar
    95    43    39   am
    96    43    44    1
    97    93    92    2
    98    39    40    2
    99    44    45    1
   100    94    91    1
   101    45    46    2
   102    91    92    1
   103    91    90    1
   104    81    79    1
   105    80    79    1
   106    77    76    2
   107    54    55    1
   108    79    78    1
   109    78    75    1
   110    85    84    2
   111    88    87    2
   112    76    75    1
   113    76    82   am
   114    58    55    1
   115    58    59    1
   116    75    74    1
   117    83    82    1
   118    83    84    1
   119    83    86    1
   120    55    56    1
   121    64    66   ar
   122    64    61   ar
   123    87    86    1
   124    87    89   am
   125    66    67   ar
   126    59    61   ar
   127    59    60   ar
   128    56    57    2
   129    61    63   ar
   130    74    70   am
   131    71    70    2
   132    60    62   ar
   133    67    65   ar
   134    70    69    1
   135    63    65   ar
   136    63    62   ar
   137    69    72    1
   138    69    68    1
   139    73    72    1
