@<TRIPOS>MOLECULE
tmp/5w3xC00.pdb
 150 140 0 0 0
SMALL
GASTEIGER

@<TRIPOS>ATOM
      1  N        -31.5750   67.2920 -115.7610 N.3    63  ARG63      -0.1231
      2  CA       -32.8760   66.7400 -116.0950 C.3    63  ARG63       0.1694
      3  C        -33.2220   66.9180 -117.5820 C.2    63  ARG63       0.2592
      4  O        -34.0380   66.1750 -118.1330 O.2    63  ARG63      -0.2718
      5  CB       -33.9230   67.4140 -115.2160 C.3    63  ARG63       0.0321
      6  CG       -35.3540   66.9830 -115.4160 C.3    63  ARG63       0.0489
      7  CD       -36.2300   67.8150 -114.4940 C.3    63  ARG63       0.2205
      8  NE       -37.6180   67.3820 -114.4930 N.pl3  63  ARG63      -0.0865
      9  CZ       -38.0600   66.3310 -113.8130 C.cat  63  ARG63       0.5346
     10  NH1      -39.3470   66.0020 -113.8620 N.pl3  63  ARG63       0.1354
     11  NH2      -37.2120   65.6060 -113.0920 N.pl3  63  ARG63       0.1354
     12  N        -32.5870   67.8980 -118.2260 N.am   64  ASN64      -0.1974
     13  CA       -32.8570   68.2110 -119.6310 C.3    64  ASN64       0.1688
     14  C        -31.5690   68.4830 -120.4090 C.2    64  ASN64       0.2292
     15  O        -31.1800   69.6400 -120.5730 O.2    64  ASN64      -0.2864
     16  CB       -33.7600   69.4410 -119.7600 C.3    64  ASN64       0.1181
     17  CG       -34.9850   69.3890 -118.8570 C.2    64  ASN64       0.2629
     18  OD1      -35.0260   70.0500 -117.8120 O.2    64  ASN64      -0.2716
     19  ND2      -35.9970   68.6310 -119.2680 N.am   64  ASN64      -0.0877
     20  N        -38.5250   79.1430 -115.4730 N.3   182  SER182     -0.1217
     21  CA       -39.5470   78.4660 -116.2640 C.3   182  SER182      0.1889
     22  C        -39.5070   78.8920 -117.7350 C.2   182  SER182      0.2288
     23  O        -39.6300   78.0680 -118.6540 O.2   182  SER182     -0.2866
     24  CB       -40.9390   78.7370 -115.6940 C.3   182  SER182      0.2089
     25  OG       -41.9190   78.1700 -116.5510 O.3   182  SER182     -0.2183
     26  N        -36.7870   77.1190 -119.4710 N.3   185  LEU185     -0.1231
     27  CA       -37.1960   75.7510 -119.7880 C.3   185  LEU185      0.1693
     28  C        -38.0730   75.7180 -121.0490 C.2   185  LEU185      0.2591
     29  O        -37.9540   74.8110 -121.8750 O.2   185  LEU185     -0.2718
     30  CB       -37.9500   75.1320 -118.6100 C.3   185  LEU185      0.0284
     31  CG       -37.1440   74.8810 -117.3330 C.3   185  LEU185      0.0019
     32  CD1      -38.0220   74.4020 -116.1820 C.3   185  LEU185      0.0001
     33  CD2      -36.0770   73.8490 -117.6180 C.3   185  LEU185      0.0001
     34  N        -38.9690   76.6980 -121.1800 N.am  186  LYS186     -0.1980
     35  CA       -39.8430   76.7510 -122.3520 C.3   186  LYS186      0.1596
     36  C        -39.0670   77.1140 -123.6220 C.2   186  LYS186      0.2287
     37  O        -39.3890   76.6440 -124.7070 O.2   186  LYS186     -0.2864
     38  CB       -40.9700   77.7650 -122.1450 C.3   186  LYS186      0.0298
     39  CG       -41.9030   77.4380 -120.9810 C.3   186  LYS186      0.0038
     40  CD       -42.4240   76.0230 -121.0600 C.3   186  LYS186      0.0206
     41  CE       -43.3310   75.7210 -119.8590 C.3   186  LYS186      0.1093
     42  NZ       -43.6180   74.2790 -119.6620 N.3   186  LYS186     -0.1314
     43  N        -37.6780   74.0590 -124.7030 N.3   189  ASP189     -0.1239
     44  CA       -38.7910   73.3180 -125.2890 C.3   189  ASP189      0.1674
     45  C        -39.1120   73.7880 -126.7240 C.2   189  ASP189      0.2266
     46  O        -39.4470   72.9850 -127.5950 O.2   189  ASP189     -0.2867
     47  CB       -40.0220   73.4580 -124.3880 C.3   189  ASP189      0.1410
     48  CG       -41.0550   72.3800 -124.6300 C.2   189  ASP189      0.3668
     49  OD1      -40.6700   71.2380 -124.9480 O.co2 189  ASP189     -0.2456
     50  OD2      -42.2590   72.6730 -124.4770 O.co2 189  ASP189     -0.2456
     51  N        -47.9120   78.4630 -123.7080 N.3   235  ARG235     -0.1245
     52  CA       -47.1480   77.7640 -122.6750 C.3   235  ARG235      0.1563
     53  C        -46.1760   78.6670 -121.9080 C.2   235  ARG235      0.2260
     54  O        -45.8420   78.3740 -120.7670 O.2   235  ARG235     -0.2867
     55  CB       -46.3800   76.5860 -123.2870 C.3   235  ARG235      0.0307
     56  CG       -47.2880   75.4890 -123.8460 C.3   235  ARG235      0.0489
     57  CD       -46.5850   74.1370 -123.9520 C.3   235  ARG235      0.2205
     58  NE       -46.6690   73.3680 -122.7100 N.pl3 235  ARG235     -0.0865
     59  CZ       -45.6580   72.6950 -122.1680 C.cat 235  ARG235      0.5346
     60  NH1      -44.4660   72.6950 -122.7570 N.pl3 235  ARG235      0.1354
     61  NH2      -45.8420   72.0200 -121.0350 N.pl3 235  ARG235      0.1354
     62  N        -48.1370   80.5230 -118.9240 N.3   238  LYS238     -0.1231
     63  CA       -48.8640   79.6920 -117.9360 C.3   238  LYS238      0.1693
     64  C        -48.7880   80.2040 -116.4990 C.2   238  LYS238      0.2592
     65  O        -49.6920   79.9430 -115.7010 O.2   238  LYS238     -0.2718
     66  CB       -48.3490   78.2480 -117.9700 C.3   238  LYS238      0.0285
     67  CG       -48.6020   77.5220 -119.2840 C.3   238  LYS238      0.0035
     68  CD       -47.9250   76.1400 -119.3150 C.3   238  LYS238      0.0206
     69  CE       -48.5510   75.1960 -118.2820 C.3   238  LYS238      0.1093
     70  NZ       -48.0950   73.8060 -118.5190 N.3   238  LYS238     -0.1314
     71  N        -47.7130   80.9130 -116.1510 N.am  239  HIS239     -0.1976
     72  CA       -47.5210   81.3230 -114.7570 C.3   239  HIS239      0.1656
     73  C        -47.8440   82.7990 -114.5630 C.2   239  HIS239      0.2291
     74  O        -47.5220   83.3830 -113.5230 O.2   239  HIS239     -0.2864
     75  CB       -46.0830   81.0190 -114.3030 C.3   239  HIS239      0.0771
     76  CG       -45.7160   79.5730 -114.4150 C.ar  239  HIS239      0.0820
     77  ND1      -46.3930   78.5820 -113.7360 N.ar  239  HIS239     -0.2267
     78  CD2      -44.7730   78.9440 -115.1590 C.ar  239  HIS239      0.1154
     79  CE1      -45.8680   77.4060 -114.0370 C.ar  239  HIS239      0.1986
     80  NE2      -44.8870   77.5980 -114.9030 N.ar  239  HIS239     -0.2212
     81  N        -50.9080   71.6800 -121.2410 N.3   262  ASN262     -0.1225
     82  CA       -50.3730   70.5400 -120.4970 C.3   262  ASN262      0.1785
     83  C        -51.0440   69.2410 -120.9190 C.2   262  ASN262      0.2597
     84  O        -51.8660   69.2310 -121.8430 O.2   262  ASN262     -0.2718
     85  CB       -50.5210   70.7560 -118.9860 C.3   262  ASN262      0.1169
     86  CG       -51.9700   71.0270 -118.5500 C.2   262  ASN262      0.2627
     87  OD1      -52.9310   70.5590 -119.1710 O.2   262  ASN262     -0.2716
     88  ND2      -52.1220   71.7790 -117.4580 N.am  262  ASN262     -0.0877
     89  N        -50.6970   68.1440 -120.2550 N.am  263  LYS263     -0.1966
     90  CA       -51.2680   66.8530 -120.6190 C.3   263  LYS263      0.1728
     91  C        -52.6570   66.6350 -120.0000 C.2   263  LYS263      0.2616
     92  O        -53.3030   65.6260 -120.2640 O.2   263  LYS263     -0.2715
     93  CB       -50.3240   65.7080 -120.2200 C.3   263  LYS263      0.0311
     94  CG       -48.9700   65.7260 -120.9350 C.3   263  LYS263      0.0038
     95  CD       -48.0170   64.6700 -120.3690 C.3   263  LYS263      0.0206
     96  CE       -46.5930   65.1860 -120.2480 C.3   263  LYS263      0.1093
     97  NZ       -46.4160   66.1230 -119.1040 N.3   263  LYS263     -0.1314
     98  N        -53.1230   67.5850 -119.1930 N.am  264  ARG264     -0.1977
     99  CA       -54.4740   67.5160 -118.6390 C.3   264  ARG264      0.1597
    100  C        -55.4700   68.0950 -119.6360 C.2   264  ARG264      0.2287
    101  O        -56.6720   68.1520 -119.3740 O.2   264  ARG264     -0.2864
    102  CB       -54.5590   68.2660 -117.3080 C.3   264  ARG264      0.0334
    103  CG       -53.5350   67.8080 -116.2790 C.3   264  ARG264      0.0492
    104  CD       -53.4100   68.7940 -115.1340 C.3   264  ARG264      0.2205
    105  NE       -54.6330   68.8890 -114.3480 N.pl3 264  ARG264     -0.0865
    106  CZ       -54.7410   68.4890 -113.0840 C.cat 264  ARG264      0.5346
    107  NH1      -53.6880   67.9740 -112.4540 N.pl3 264  ARG264      0.1354
    108  NH2      -55.8990   68.6150 -112.4470 N.pl3 264  ARG264      0.1354
    109  N        -56.5140   76.6200 -117.0950 N.3   271  ARG271     -0.1245
    110  CA       -55.4750   76.3100 -116.1280 C.3   271  ARG271      0.1563
    111  C        -55.2910   77.4780 -115.1840 C.2   271  ARG271      0.2260
    112  O        -55.1840   77.3030 -113.9780 O.2   271  ARG271     -0.2867
    113  CB       -54.1510   75.9970 -116.8240 C.3   271  ARG271      0.0307
    114  CG       -53.1000   75.4740 -115.8530 C.3   271  ARG271      0.0489
    115  CD       -51.7210   75.3610 -116.5060 C.3   271  ARG271      0.2205
    116  NE       -50.7060   74.9570 -115.5390 N.pl3 271  ARG271     -0.0865
    117  CZ       -50.1600   75.7820 -114.6510 C.cat 271  ARG271      0.5346
    118  NH1      -50.5590   77.0430 -114.6010 N.pl3 271  ARG271      0.1354
    119  NH2      -49.2150   75.3480 -113.8100 N.pl3 271  ARG271      0.1354
    120  N        -58.1060   77.6890 -112.6680 N.3   274  ARG274     -0.1245
    121  CA       -57.9360   76.6730 -111.6140 C.3   274  ARG274      0.1563
    122  C        -56.9650   77.1230 -110.5070 C.2   274  ARG274      0.2260
    123  O        -57.0980   76.7280 -109.3420 O.2   274  ARG274     -0.2867
    124  CB       -57.4480   75.3500 -112.2120 C.3   274  ARG274      0.0307
    125  CG       -57.2360   74.2450 -111.1640 C.3   274  ARG274      0.0489
    126  CD       -57.0010   72.8850 -111.8100 C.3   274  ARG274      0.2205
    127  NE       -55.8630   72.8590 -112.7310 N.pl3 274  ARG274     -0.0865
    128  CZ       -54.6110   72.5860 -112.3750 C.cat 274  ARG274      0.5346
    129  NH1      -54.3270   72.3320 -111.1020 N.pl3 274  ARG274      0.1354
    130  NH2      -53.6390   72.5690 -113.2890 N.pl3 274  ARG274      0.1354
    131  N        -45.0260   76.0720 -108.8380 N.3   308  LYS308     -0.1245
    132  CA       -43.8450   75.7940 -109.6510 C.3   308  LYS308      0.1561
    133  C        -42.5730   75.7570 -108.7900 C.2   308  LYS308      0.2260
    134  O        -41.7610   74.8500 -108.9180 O.2   308  LYS308     -0.2867
    135  CB       -43.6910   76.8360 -110.7580 C.3   308  LYS308      0.0271
    136  CG       -42.6000   76.4890 -111.7780 C.3   308  LYS308      0.0035
    137  CD       -42.8870   75.1530 -112.4260 C.3   308  LYS308      0.0206
    138  CE       -41.9070   74.8280 -113.5330 C.3   308  LYS308      0.1093
    139  NZ       -42.2630   73.5330 -114.1840 N.3   308  LYS308     -0.1314
    140  N        -38.0120   68.3730 -107.4290 N.3   315  ARG315     -0.1245
    141  CA       -37.1650   67.8200 -108.4950 C.3   315  ARG315      0.1563
    142  C        -35.7090   67.8280 -108.0870 C.2   315  ARG315      0.2260
    143  O        -34.9650   66.8550 -108.2930 O.2   315  ARG315     -0.2867
    144  CB       -37.2240   68.6540 -109.7840 C.3   315  ARG315      0.0307
    145  CG       -38.2210   68.2820 -110.8300 C.3   315  ARG315      0.0489
    146  CD       -38.4260   69.5210 -111.7020 C.3   315  ARG315      0.2205
    147  NE       -39.6070   69.4320 -112.5410 N.pl3 315  ARG315     -0.0865
    148  CZ       -39.8030   70.1720 -113.6200 C.cat 315  ARG315      0.5346
    149  NH1      -38.8780   71.0520 -114.0040 N.pl3 315  ARG315      0.1354
    150  NH2      -40.9210   70.0230 -114.3220 N.pl3 315  ARG315      0.1354
@<TRIPOS>BOND
     1    46    45    2
     2    45    44    1
     3    44    43    1
     4    44    47    1
     5    49    48   ar
     6    37    36    2
     7    48    50   ar
     8    48    47    1
     9    57    56    1
    10    57    58    1
    11    56    55    1
    12    51    52    1
    13    36    35    1
    14    55    52    1
    15    60    59    1
    16    58    59    2
    17    52    53    1
    18    35    38    1
    19    35    34    1
    20    59    61    1
    21    38    39    1
    22    53    54    2
    23    29    28    2
    24    84    83    2
    25    81    82    1
    26    34    28   am
    27    40    39    1
    28    40    41    1
    29    28    27    1
    30    94    95    1
    31    94    93    1
    32    83    82    1
    33    83    89   am
    34    90    89    1
    35    90    93    1
    36    90    91    1
    37    15    14    2
    38    82    85    1
    39    14    13    1
    40    95    96    1
    41    92    91    2
    42    96    97    1
    43    91    98   am
    44    41    42    1
    45    27    26    1
    46    27    30    1
    47    16    13    1
    48    16    17    1
    49   100   101    2
    50   100    99    1
    51    13    12    1
    52    68    67    1
    53    68    69    1
    54    67    66    1
    55    19    17   am
    56    98    99    1
    57    87    86    2
    58    85    86    1
    59    62    63    1
    60    17    18    2
    61    23    22    2
    62    99   102    1
    63    30    31    1
    64    86    88   am
    65    70    69    1
    66    12     3   am
    67     4     3    2
    68    66    63    1
    69    63    64    1
    70    22    21    1
    71    33    31    1
    72     3     2    1
    73    31    32    1
    74   102   103    1
    75   109   110    1
    76   113   110    1
    77   113   114    1
    78    25    24    1
    79   115   114    1
    80   115   116    1
    81    64    71   am
    82    64    65    2
    83   103   104    1
    84    21    24    1
    85    21    20    1
    86    71    72    1
    87   110   111    1
    88     2     1    1
    89     2     5    1
    90   116   117    2
    91     6     5    1
    92     6     7    1
    93   111   112    2
    94    78    80   ar
    95    78    76   ar
    96   104   105    1
    97    80    79   ar
    98    72    73    1
    99    72    75    1
   100   117   118    1
   101   117   119    1
   102    73    74    2
   103     7     8    1
   104     8     9    2
   105    76    75    1
   106    76    77   ar
   107   105   106    2
   108   150   148    1
   109   139   138    1
   110    79    77   ar
   111   149   148    1
   112    10     9    1
   113     9    11    1
   114   148   147    2
   115   138   137    1
   116   130   128    1
   117   106   107    1
   118   106   108    1
   119   127   128    2
   120   127   126    1
   121   120   121    1
   122   147   146    1
   123   137   136    1
   124   128   129    1
   125   124   121    1
   126   124   125    1
   127   126   125    1
   128   136   135    1
   129   146   145    1
   130   121   122    1
   131   145   144    1
   132   135   132    1
   133   122   123    2
   134   144   141    1
   135   132   131    1
   136   132   133    1
   137   134   133    2
   138   141   142    1
   139   141   140    1
   140   143   142    2
