@<TRIPOS>MOLECULE
tmp/5w3xC01.pdb
 131 125 0 0 0
SMALL
GASTEIGER

@<TRIPOS>ATOM
      1  N        -49.3670   85.0610  -97.8610 N.3    37  ASP37      -0.1239
      2  CA       -48.3370   85.7710  -98.5980 C.3    37  ASP37       0.1674
      3  C        -47.0240   85.6910  -97.8250 C.2    37  ASP37       0.2266
      4  O        -46.9920   85.9520  -96.6220 O.2    37  ASP37      -0.2867
      5  CB       -48.7300   87.2160  -98.8030 C.3    37  ASP37       0.1410
      6  CG       -47.6290   88.0260  -99.4500 C.2    37  ASP37       0.3668
      7  OD1      -47.3440   87.7890 -100.6410 O.co2  37  ASP37      -0.2456
      8  OD2      -47.0650   88.9030  -98.7710 O.co2  37  ASP37      -0.2456
      9  N        -46.3400   89.8730 -111.2700 N.3   171  LYS171     -0.1231
     10  CA       -46.9890   90.9780 -110.5600 C.3   171  LYS171      0.1693
     11  C        -46.3800   91.2400 -109.1780 C.2   171  LYS171      0.2592
     12  O        -46.5370   92.3300 -108.6270 O.2   171  LYS171     -0.2718
     13  CB       -48.4920   90.7200 -110.4330 C.3   171  LYS171      0.0285
     14  CG       -49.2080   90.7090 -111.7810 C.3   171  LYS171      0.0035
     15  CD       -49.1420   92.0750 -112.4540 C.3   171  LYS171      0.0206
     16  CE       -49.8460   92.0460 -113.8080 C.3   171  LYS171      0.1093
     17  NZ       -49.8050   93.3560 -114.4870 N.3   171  LYS171     -0.1314
     18  N        -45.7030   90.2370 -108.6170 N.am  172  SER172     -0.1952
     19  CA       -45.0480   90.3690 -107.3120 C.3   172  SER172      0.1924
     20  C        -43.6520   90.9820 -107.4110 C.2   172  SER172      0.2314
     21  O        -43.1100   91.1410 -108.5050 O.2   172  SER172     -0.2863
     22  CB       -44.9230   89.0090 -106.6520 C.3   172  SER172      0.2116
     23  OG       -43.8960   88.2860 -107.3040 O.3   172  SER172     -0.2180
     24  N        -40.9630   89.5480 -106.1360 N.3   174  PHE174     -0.1241
     25  CA       -39.9280   88.5290 -105.9040 C.3   174  PHE174      0.1605
     26  C        -39.9290   87.3130 -106.8300 C.2   174  PHE174      0.2264
     27  O        -38.9890   86.5200 -106.7960 O.2   174  PHE174     -0.2867
     28  CB       -40.0090   88.0270 -104.4540 C.3   174  PHE174      0.0534
     29  CG       -41.3470   87.4730 -104.0720 C.ar  174  PHE174     -0.0203
     30  CD1      -42.3240   88.2970 -103.5450 C.ar  174  PHE174     -0.0042
     31  CD2      -41.6300   86.1230 -104.2310 C.ar  174  PHE174     -0.0042
     32  CE1      -43.5560   87.7890 -103.1770 C.ar  174  PHE174     -0.0003
     33  CE2      -42.8720   85.6040 -103.8670 C.ar  174  PHE174     -0.0003
     34  CZ       -43.8350   86.4420 -103.3440 C.ar  174  PHE174     -0.0000
     35  N        -49.4910   85.8400 -113.3510 N.3   241  GLN241     -0.1231
     36  CA       -50.0850   85.9430 -112.0180 C.3   241  GLN241      0.1698
     37  C        -51.4570   86.6420 -112.0200 C.2   241  GLN241      0.2592
     38  O        -52.3390   86.3300 -111.1990 O.2   241  GLN241     -0.2718
     39  CB       -49.1170   86.6830 -111.0910 C.3   241  GLN241      0.0381
     40  CG       -47.7760   85.9620 -110.9270 C.3   241  GLN241      0.0905
     41  CD       -46.9150   86.5180 -109.8010 C.2   241  GLN241      0.2608
     42  OE1      -46.4340   87.6440 -109.8560 O.2   241  GLN241     -0.2717
     43  NE2      -46.7440   85.7250 -108.7560 N.am  241  GLN241     -0.0878
     44  N        -51.6460   87.5720 -112.9530 N.am  242  ALA242     -0.1966
     45  CA       -52.9300   88.2580 -113.0550 C.3   242  ALA242      0.1728
     46  C        -53.8050   87.6570 -114.1420 C.2   242  ALA242      0.2616
     47  O        -53.4270   87.6340 -115.3150 O.2   242  ALA242     -0.2715
     48  CB       -52.7180   89.7390 -113.3070 C.3   242  ALA242      0.0334
     49  N        -54.9890   87.1920 -113.7480 N.am  243  ALA243     -0.1963
     50  CA       -55.9780   86.7180 -114.7070 C.3   243  ALA243      0.1728
     51  C        -56.1870   87.7390 -115.8290 C.2   243  ALA243      0.2616
     52  O        -56.3470   87.3650 -116.9870 O.2   243  ALA243     -0.2715
     53  CB       -57.3080   86.4350 -114.0030 C.3   243  ALA243      0.0334
     54  N        -56.1610   89.0230 -115.4860 N.am  244  SER244     -0.1950
     55  CA       -56.3970   90.0660 -116.4850 C.3   244  SER244      0.1924
     56  C        -55.2690   90.0820 -117.5440 C.2   244  SER244      0.2314
     57  O        -55.5210   90.3440 -118.7250 O.2   244  SER244     -0.2863
     58  CB       -56.5530   91.4370 -115.8080 C.3   244  SER244      0.2116
     59  OG       -55.3680   91.8220 -115.1260 O.3   244  SER244     -0.2180
     60  N        -52.0960   90.7470  -99.3620 N.3   281  VAL281     -0.1245
     61  CA       -50.7080   91.0430  -99.6710 C.3   281  VAL281      0.1561
     62  C        -50.4690   92.4700  -99.2250 C.2   281  VAL281      0.2260
     63  O        -51.4250   93.1890  -98.9190 O.2   281  VAL281     -0.2867
     64  CB       -50.3840   90.8870 -101.1760 C.3   281  VAL281      0.0252
     65  CG1      -50.5550   89.4420 -101.6050 C.3   281  VAL281      0.0019
     66  CG2      -51.2590   91.8250 -102.0280 C.3   281  VAL281      0.0019
     67  N        -49.7480   98.0320 -102.2420 N.3   284  ARG284     -0.1231
     68  CA       -48.7550   98.7000 -103.0610 C.3   284  ARG284      0.1694
     69  C        -49.4710   99.5700 -104.0620 C.2   284  ARG284      0.2592
     70  O        -50.6350   99.3270 -104.3740 O.2   284  ARG284     -0.2718
     71  CB       -47.8490   97.6960 -103.7800 C.3   284  ARG284      0.0321
     72  CG       -46.7310   97.1460 -102.9380 C.3   284  ARG284      0.0489
     73  CD       -45.7820   96.2720 -103.7500 C.3   284  ARG284      0.2205
     74  NE       -44.5800   95.9760 -102.9720 N.pl3 284  ARG284     -0.0865
     75  CZ       -44.4690   94.9520 -102.1290 C.cat 284  ARG284      0.5346
     76  NH1      -45.4890   94.1120 -101.9660 N.pl3 284  ARG284      0.1354
     77  NH2      -43.3430   94.7670 -101.4450 N.pl3 284  ARG284      0.1354
     78  N        -48.7730  100.5900 -104.5460 N.am  285  ALA285     -0.1966
     79  CA       -49.3080  101.4740 -105.5650 C.3   285  ALA285      0.1728
     80  C        -49.6540  100.6770 -106.8110 C.2   285  ALA285      0.2616
     81  O        -49.0100   99.6660 -107.1070 O.2   285  ALA285     -0.2715
     82  CB       -48.3060  102.5710 -105.8960 C.3   285  ALA285      0.0334
     83  N        -50.6700  101.1240 -107.5420 N.am  286  ASP286     -0.1957
     84  CA       -51.0120  100.4690 -108.7950 C.3   286  ASP286      0.1840
     85  C        -50.2910  101.1020 -109.9800 C.2   286  ASP286      0.2622
     86  O        -49.4630  102.0020 -109.8100 O.2   286  ASP286     -0.2715
     87  CB       -52.5260  100.5270 -109.0220 C.3   286  ASP286      0.1450
     88  CG       -53.0860  101.9490 -108.9650 C.2   286  ASP286      0.3671
     89  OD1      -52.3460  102.9240 -109.2230 O.co2 286  ASP286     -0.2456
     90  OD2      -54.2870  102.0910 -108.6570 O.co2 286  ASP286     -0.2456
     91  N        -50.6050  100.6180 -111.1780 N.am  287  SER287     -0.1950
     92  CA       -50.1770  101.2820 -112.3990 C.3   287  SER287      0.1924
     93  C        -49.7610  102.7260 -112.6400 C.2   287  SER287      0.2314
     94  O        -48.6380  102.9640 -113.0840 O.2   287  SER287     -0.2863
     95  CB       -50.6020  100.5040 -113.6410 C.3   287  SER287      0.2116
     96  OG       -51.9070   99.9740 -113.4830 O.3   287  SER287     -0.2180
     97  N        -53.8820   94.7740  -98.8600 N.3   297  LYS297     -0.1245
     98  CA       -55.0360   94.7230  -99.7560 C.3   297  LYS297      0.1561
     99  C        -55.2910   93.2570 -100.0480 C.2   297  LYS297      0.2260
    100  O        -54.3740   92.4400  -99.9520 O.2   297  LYS297     -0.2867
    101  CB       -54.7890   95.5030 -101.0520 C.3   297  LYS297      0.0271
    102  CG       -53.6630   94.9170 -101.9020 C.3   297  LYS297      0.0035
    103  CD       -53.3490   95.7540 -103.1440 C.3   297  LYS297      0.0206
    104  CE       -52.0690   95.2450 -103.8200 C.3   297  LYS297      0.1093
    105  NZ       -51.6390   96.0860 -104.9770 N.3   297  LYS297     -0.1314
    106  N        -56.3160   90.5550 -102.8770 N.3   299  ILE299     -0.1231
    107  CA       -56.3710   90.4470 -104.3260 C.3   299  ILE299      0.1692
    108  C        -56.6810   89.0350 -104.7410 C.2   299  ILE299      0.2593
    109  O        -56.5980   88.1070 -103.9410 O.2   299  ILE299     -0.2718
    110  CB       -55.0520   90.8660 -104.9930 C.3   299  ILE299      0.0266
    111  CG1      -53.9120   89.9840 -104.4820 C.3   299  ILE299      0.0019
    112  CG2      -54.7790   92.3380 -104.7430 C.3   299  ILE299      0.0020
    113  CD1      -52.5860   90.2070 -105.1980 C.3   299  ILE299      0.0001
    114  N        -57.0690   88.8800 -105.9940 N.am  300  THR300     -0.1939
    115  CA       -57.2180   87.5630 -106.5780 C.3   300  THR300      0.2028
    116  C        -56.1570   87.3960 -107.6600 C.2   300  THR300      0.2642
    117  O        -56.0460   88.2350 -108.5460 O.2   300  THR300     -0.2714
    118  CB       -58.6150   87.3700 -107.1550 C.3   300  THR300      0.1808
    119  OG1      -59.5740   87.5410 -106.1000 O.3   300  THR300     -0.2208
    120  CG2      -58.7430   85.9820 -107.7570 C.3   300  THR300      0.0379
    121  N        -55.3710   86.3230 -107.5770 N.am  301  PHE301     -0.1973
    122  CA       -54.3120   86.1070 -108.5610 C.3   301  PHE301      0.1639
    123  C        -54.0450   84.6190 -108.6890 C.2   301  PHE301      0.2290
    124  O        -54.5540   83.8300 -107.8890 O.2   301  PHE301     -0.2864
    125  CB       -53.0420   86.8550 -108.1500 C.3   301  PHE301      0.0560
    126  CG       -52.3470   86.2440 -106.9700 C.ar  301  PHE301     -0.0200
    127  CD1      -52.7700   86.5290 -105.6800 C.ar  301  PHE301     -0.0042
    128  CD2      -51.3020   85.3680 -107.1460 C.ar  301  PHE301     -0.0042
    129  CE1      -52.1400   85.9630 -104.5820 C.ar  301  PHE301     -0.0003
    130  CE2      -50.6600   84.7900 -106.0500 C.ar  301  PHE301     -0.0003
    131  CZ       -51.0820   85.0920 -104.7680 C.ar  301  PHE301     -0.0000
@<TRIPOS>BOND
     1    57    56    2
     2    56    55    1
     3    52    51    2
     4    55    58    1
     5    55    54    1
     6    51    54   am
     7    51    50    1
     8    58    59    1
     9    47    46    2
    10    50    53    1
    11    50    49    1
    12    17    16    1
    13    46    49   am
    14    46    45    1
    15    16    15    1
    16    95    96    1
    17    95    92    1
    18    35    36    1
    19    48    45    1
    20    94    93    2
    21    45    44    1
    22    44    37   am
    23    93    92    1
    24    15    14    1
    25    92    91    1
    26    37    36    1
    27    37    38    2
    28    36    39    1
    29    14    13    1
    30     9    10    1
    31    91    85   am
    32    39    40    1
    33    40    41    1
    34    10    13    1
    35    10    11    1
    36    85    86    2
    37    85    84    1
    38    42    41    2
    39    41    43   am
    40    89    88   ar
    41    11    12    2
    42    11    18   am
    43    87    88    1
    44    87    84    1
    45    88    90   ar
    46    84    83    1
    47   123   122    1
    48   123   124    2
    49    18    19    1
    50   122   125    1
    51   122   121    1
    52   117   116    2
    53    21    20    2
    54   125   126    1
    55   120   118    1
    56   116   121   am
    57   116   115    1
    58    83    80   am
    59    20    19    1
    60    19    22    1
    61    23    22    1
    62   118   115    1
    63   118   119    1
    64   128   126   ar
    65   128   130   ar
    66    81    80    2
    67   126   127   ar
    68    26    27    2
    69    26    25    1
    70    80    79    1
    71   115   114    1
    72    24    25    1
    73   130   131   ar
    74   114   108   am
    75    25    28    1
    76    82    79    1
    77   127   129   ar
    78    79    78    1
    79   113   111    1
    80   110   112    1
    81   110   111    1
    82   110   107    1
    83   105   104    1
    84   131   129   ar
    85   108   107    1
    86   108   109    2
    87    78    69   am
    88    28    29    1
    89    70    69    2
    90   107   106    1
    91    31    29   ar
    92    31    33   ar
    93    29    30   ar
    94    69    68    1
    95    33    34   ar
    96   104   103    1
    97    71    68    1
    98    71    72    1
    99    73    74    1
   100    73    72    1
   101    30    32   ar
   102    34    32   ar
   103   103   102    1
   104    68    67    1
   105    74    75    2
   106    75    76    1
   107    75    77    1
   108    66    64    1
   109   102   101    1
   110    65    64    1
   111    64    61    1
   112   101    98    1
   113     7     6   ar
   114    99   100    2
   115    99    98    1
   116    98    97    1
   117    61    60    1
   118    61    62    1
   119     6     5    1
   120     6     8   ar
   121    62    63    2
   122     5     2    1
   123     2     1    1
   124     2     3    1
   125     3     4    2
