@<TRIPOS>MOLECULE
tmp/5w40A01.pdb
 183 175 0 0 0
SMALL
GASTEIGER

@<TRIPOS>ATOM
      1  N        -39.4810  -41.0240  -23.7250 N.3    40  ASP40      -0.1239
      2  CA       -39.7890  -40.1700  -22.5860 C.3    40  ASP40       0.1674
      3  C        -38.4980  -39.6210  -21.9970 C.2    40  ASP40       0.2266
      4  O        -37.5390  -40.3640  -21.7960 O.2    40  ASP40      -0.2867
      5  CB       -40.5640  -40.9440  -21.5210 C.3    40  ASP40       0.1410
      6  CG       -40.7560  -40.1450  -20.2530 C.2    40  ASP40       0.3668
      7  OD1      -41.6160  -39.2380  -20.2410 O.co2  40  ASP40      -0.2456
      8  OD2      -40.0330  -40.4200  -19.2720 O.co2  40  ASP40      -0.2456
      9  N        -37.6920  -38.3510  -18.8700 N.3    42  GLU42      -0.1245
     10  CA       -37.2730  -38.7480  -17.5280 C.3    42  GLU42       0.1567
     11  C        -36.9010  -40.2280  -17.4760 C.2    42  GLU42       0.2260
     12  O        -36.0850  -40.6110  -16.6560 O.2    42  GLU42      -0.2867
     13  CB       -38.3260  -38.3690  -16.4810 C.3    42  GLU42       0.0388
     14  CG       -39.4750  -39.3290  -16.2370 C.3    42  GLU42       0.1160
     15  CD       -40.5150  -38.6640  -15.3430 C.2    42  GLU42       0.3649
     16  OE1      -40.1230  -37.8030  -14.5140 O.co2  42  GLU42      -0.2457
     17  OE2      -41.7170  -38.9860  -15.4680 O.co2  42  GLU42      -0.2457
     18  N        -45.3020  -26.6630   -7.9540 N.3   118  HIS118     -0.1241
     19  CA       -46.1820  -26.5920   -9.1130 C.3   118  HIS118      0.1621
     20  C        -46.2810  -25.1610   -9.6320 C.2   118  HIS118      0.2264
     21  O        -46.1300  -24.2070   -8.8710 O.2   118  HIS118     -0.2867
     22  CB       -47.5680  -27.1410   -8.7540 C.3   118  HIS118      0.0745
     23  CG       -48.5310  -27.1490   -9.8970 C.ar  118  HIS118      0.0817
     24  ND1      -48.3050  -27.8590  -11.0530 N.ar  118  HIS118     -0.2268
     25  CD2      -49.7340  -26.5430  -10.0500 C.ar  118  HIS118      0.1154
     26  CE1      -49.3190  -27.6760  -11.8830 C.ar  118  HIS118      0.1986
     27  NE2      -50.1970  -26.8850  -11.2980 N.ar  118  HIS118     -0.2212
     28  N        -53.1640  -27.9490  -14.3780 N.3   139  LEU139     -0.1231
     29  CA       -53.3760  -29.2380  -13.7270 C.3   139  LEU139      0.1693
     30  C        -54.7260  -29.2940  -13.0210 C.2   139  LEU139      0.2592
     31  O        -55.1530  -28.3230  -12.3870 O.2   139  LEU139     -0.2718
     32  CB       -52.2480  -29.5310  -12.7380 C.3   139  LEU139      0.0284
     33  CG       -52.3030  -30.8710  -12.0100 C.3   139  LEU139      0.0019
     34  CD1      -52.2860  -32.0250  -12.9920 C.3   139  LEU139      0.0001
     35  CD2      -51.1380  -30.9710  -11.0430 C.3   139  LEU139      0.0001
     36  N        -55.4090  -30.4240  -13.1560 N.am  140  ARG140     -0.1966
     37  CA       -56.6950  -30.6100  -12.5000 C.3   140  ARG140      0.1729
     38  C        -56.8320  -32.0610  -12.0570 C.2   140  ARG140      0.2616
     39  O        -57.5910  -32.8240  -12.6540 O.2   140  ARG140     -0.2715
     40  CB       -57.8320  -30.2150  -13.4460 C.3   140  ARG140      0.0348
     41  CG       -59.1720  -29.9990  -12.7690 C.3   140  ARG140      0.0492
     42  CD       -60.1630  -29.3100  -13.6940 C.3   140  ARG140      0.2205
     43  NE       -61.5380  -29.4950  -13.2410 N.pl3 140  ARG140     -0.0865
     44  CZ       -62.5120  -28.6140  -13.4260 C.cat 140  ARG140      0.5346
     45  NH1      -62.2680  -27.4810  -14.0690 N.pl3 140  ARG140      0.1354
     46  NH2      -63.7330  -28.8690  -12.9790 N.pl3 140  ARG140      0.1354
     47  N        -56.0950  -32.4450  -11.0160 N.am  141  LYS141     -0.1977
     48  CA       -56.0840  -33.8430  -10.5980 C.3   141  LYS141      0.1596
     49  C        -56.8040  -34.0910   -9.2680 C.2   141  LYS141      0.2287
     50  O        -56.9390  -35.2400   -8.8320 O.2   141  LYS141     -0.2864
     51  CB       -54.6340  -34.3420  -10.5040 C.3   141  LYS141      0.0298
     52  CG       -54.0400  -34.3300   -9.1010 C.3   141  LYS141      0.0038
     53  CD       -52.7500  -33.5300   -9.0040 C.3   141  LYS141      0.0206
     54  CE       -52.9770  -32.2470   -8.2070 C.3   141  LYS141      0.1093
     55  NZ       -51.8480  -31.9340   -7.2880 N.3   141  LYS141     -0.1314
     56  N        -59.3920  -35.0060   -6.6750 N.3   143  LYS143     -0.1245
     57  CA       -60.5520  -35.8920   -6.7730 C.3   143  LYS143      0.1561
     58  C        -61.8650  -35.1910   -6.4310 C.2   143  LYS143      0.2260
     59  O        -62.8350  -35.2710   -7.1890 O.2   143  LYS143     -0.2867
     60  CB       -60.3660  -37.1040   -5.8560 C.3   143  LYS143      0.0271
     61  CG       -59.2590  -38.0130   -6.2600 C.3   143  LYS143      0.0035
     62  CD       -59.5800  -38.8460   -7.4620 C.3   143  LYS143      0.0206
     63  CE       -58.4090  -39.7890   -7.8330 C.3   143  LYS143      0.1093
     64  NZ       -57.3010  -39.1300   -8.5390 N.3   143  LYS143     -0.1314
     65  N        -52.6050  -30.8200  -18.1090 N.3   173  GLN173     -0.1231
     66  CA       -51.4200  -31.5980  -17.7460 C.3   173  GLN173      0.1698
     67  C        -51.6880  -33.0440  -17.2980 C.2   173  GLN173      0.2592
     68  O        -52.6170  -33.3000  -16.5430 O.2   173  GLN173     -0.2718
     69  CB       -50.6750  -30.8540  -16.6380 C.3   173  GLN173      0.0381
     70  CG       -49.3630  -31.4760  -16.2270 C.3   173  GLN173      0.0905
     71  CD       -48.6610  -30.6510  -15.1780 C.2   173  GLN173      0.2608
     72  OE1      -48.8950  -29.4470  -15.0750 O.2   173  GLN173     -0.2717
     73  NE2      -47.8180  -31.2940  -14.3700 N.am  173  GLN173     -0.0878
     74  N        -50.8500  -33.9790  -17.7350 N.am  174  LYS174     -0.1966
     75  CA       -51.0000  -35.3810  -17.3590 C.3   174  LYS174      0.1728
     76  C        -49.6750  -35.9020  -16.8520 C.2   174  LYS174      0.2617
     77  O        -49.6250  -36.8140  -16.0290 O.2   174  LYS174     -0.2715
     78  CB       -51.4810  -36.2000  -18.5540 C.3   174  LYS174      0.0311
     79  CG       -52.9550  -35.9890  -18.8790 C.3   174  LYS174      0.0038
     80  CD       -53.8710  -36.3550  -17.7330 C.3   174  LYS174      0.0206
     81  CE       -55.2480  -35.7690  -17.9140 C.3   174  LYS174      0.1093
     82  NZ       -56.1740  -36.2330  -16.8540 N.3   174  LYS174     -0.1314
     83  N        -48.5930  -35.3040  -17.3370 N.am  175  SER175     -0.1936
     84  CA       -47.2670  -35.6960  -16.8920 C.3   175  SER175      0.2055
     85  C        -46.9770  -34.9800  -15.5890 C.2   175  SER175      0.2644
     86  O        -47.7910  -34.1880  -15.1230 O.2   175  SER175     -0.2714
     87  CB       -46.2120  -35.3530  -17.9340 C.3   175  SER175      0.2130
     88  OG       -45.8690  -33.9840  -17.8340 O.3   175  SER175     -0.2179
     89  N        -45.8150  -35.2300  -15.0030 N.am  176  SER176     -0.1935
     90  CA       -45.5050  -34.5980  -13.7320 C.3   176  SER176      0.2055
     91  C        -44.5860  -33.3840  -13.8780 C.2   176  SER176      0.2643
     92  O        -44.4770  -32.5820  -12.9550 O.2   176  SER176     -0.2714
     93  CB       -44.8720  -35.6210  -12.7800 C.3   176  SER176      0.2130
     94  OG       -43.6110  -36.0530  -13.2650 O.3   176  SER176     -0.2179
     95  N        -43.9690  -33.2200  -15.0450 N.am  177  PHE177     -0.1973
     96  CA       -42.9390  -32.1970  -15.2140 C.3   177  PHE177      0.1639
     97  C        -43.2100  -31.1080  -16.2670 C.2   177  PHE177      0.2290
     98  O        -42.3200  -30.3110  -16.5660 O.2   177  PHE177     -0.2864
     99  CB       -41.6090  -32.8830  -15.5550 C.3   177  PHE177      0.0560
    100  CG       -41.6810  -33.7990  -16.7540 C.ar  177  PHE177     -0.0200
    101  CD1      -41.5950  -33.2890  -18.0440 C.ar  177  PHE177     -0.0042
    102  CD2      -41.8230  -35.1700  -16.5920 C.ar  177  PHE177     -0.0042
    103  CE1      -41.6560  -34.1210  -19.1480 C.ar  177  PHE177     -0.0003
    104  CE2      -41.8850  -36.0120  -17.6960 C.ar  177  PHE177     -0.0003
    105  CZ       -41.8030  -35.4830  -18.9770 C.ar  177  PHE177     -0.0000
    106  N        -52.5270  -32.9920  -22.9630 N.3   242  GLN242     -0.1231
    107  CA       -51.7470  -34.1970  -23.2250 C.3   242  GLN242      0.1698
    108  C        -52.5920  -35.4510  -23.4250 C.2   242  GLN242      0.2592
    109  O        -52.2300  -36.3190  -24.2080 O.2   242  GLN242     -0.2718
    110  CB       -50.7340  -34.4100  -22.1050 C.3   242  GLN242      0.0381
    111  CG       -49.9360  -33.1570  -21.7890 C.3   242  GLN242      0.0905
    112  CD       -48.7020  -33.4370  -20.9470 C.2   242  GLN242      0.2608
    113  OE1      -48.7870  -33.5760  -19.7290 O.2   242  GLN242     -0.2717
    114  NE2      -47.5470  -33.5140  -21.5970 N.am  242  GLN242     -0.0878
    115  N        -53.7180  -35.5460  -22.7340 N.am  243  ALA243     -0.1966
    116  CA       -54.5720  -36.7130  -22.8880 C.3   243  ALA243      0.1728
    117  C        -55.6130  -36.4560  -23.9700 C.2   243  ALA243      0.2616
    118  O        -56.2640  -35.4110  -23.9760 O.2   243  ALA243     -0.2715
    119  CB       -55.2500  -37.0650  -21.5650 C.3   243  ALA243      0.0334
    120  N        -55.7610  -37.3900  -24.9030 N.am  244  ALA244     -0.1963
    121  CA       -56.7740  -37.2220  -25.9380 C.3   244  ALA244      0.1728
    122  C        -58.1750  -37.2500  -25.3250 C.2   244  ALA244      0.2616
    123  O        -59.0950  -36.6400  -25.8580 O.2   244  ALA244     -0.2715
    124  CB       -56.6430  -38.2960  -27.0090 C.3   244  ALA244      0.0334
    125  N        -58.3380  -37.9090  -24.1800 N.am  245  SER245     -0.1950
    126  CA       -59.6630  -37.9590  -23.5620 C.3   245  SER245      0.1924
    127  C        -60.0560  -36.5880  -23.0020 C.2   245  SER245      0.2314
    128  O        -61.2340  -36.2470  -22.9800 O.2   245  SER245     -0.2863
    129  CB       -59.7310  -39.0170  -22.4550 C.3   245  SER245      0.2116
    130  OG       -58.7270  -38.8190  -21.4790 O.3   245  SER245     -0.2180
    131  N        -43.8740  -44.6110  -20.2830 N.3   282  VAL282     -0.1245
    132  CA       -43.7580  -43.4580  -19.4020 C.3   282  VAL282      0.1561
    133  C        -43.5370  -44.0140  -17.9880 C.2   282  VAL282      0.2260
    134  O        -43.8170  -45.1870  -17.7580 O.2   282  VAL282     -0.2867
    135  CB       -45.0330  -42.5580  -19.5330 C.3   282  VAL282      0.0252
    136  CG1      -45.4060  -41.8430  -18.2440 C.3   282  VAL282      0.0019
    137  CG2      -44.8670  -41.5730  -20.6950 C.3   282  VAL282      0.0019
    138  N        -46.7570  -43.5450  -12.0820 N.3   285  ARG285     -0.1245
    139  CA       -46.9660  -42.7390  -10.8860 C.3   285  ARG285      0.1563
    140  C        -48.3720  -42.9190  -10.3220 C.2   285  ARG285      0.2260
    141  O        -48.8100  -44.0400  -10.0530 O.2   285  ARG285     -0.2867
    142  CB       -46.7050  -41.2600  -11.1910 C.3   285  ARG285      0.0307
    143  CG       -47.4280  -40.7480  -12.4290 C.3   285  ARG285      0.0489
    144  CD       -46.9950  -39.3280  -12.7760 C.3   285  ARG285      0.2205
    145  NE       -47.4980  -38.3490  -11.8150 N.pl3 285  ARG285     -0.0865
    146  CZ       -48.7450  -37.8920  -11.8070 C.cat 285  ARG285      0.5346
    147  NH1      -49.6200  -38.3240  -12.7100 N.pl3 285  ARG285      0.1354
    148  NH2      -49.1160  -36.9980  -10.9000 N.pl3 285  ARG285      0.1354
    149  N        -45.1720  -47.7760  -17.8670 N.3   291  LYS291     -0.1245
    150  CA       -46.4610  -48.1660  -18.4330 C.3   291  LYS291      0.1561
    151  C        -46.5380  -47.5990  -19.8500 C.2   291  LYS291      0.2260
    152  O        -46.0040  -46.5190  -20.1120 O.2   291  LYS291     -0.2867
    153  CB       -47.6380  -47.6420  -17.6030 C.3   291  LYS291      0.0271
    154  CG       -47.7590  -46.1230  -17.5960 C.3   291  LYS291      0.0035
    155  CD       -48.8700  -45.6230  -16.6850 C.3   291  LYS291      0.0206
    156  CE       -48.7340  -44.1190  -16.4610 C.3   291  LYS291      0.1093
    157  NZ       -49.8540  -43.5170  -15.6810 N.3   291  LYS291     -0.1314
    158  N        -48.4800  -45.8000  -22.8230 N.3   293  ILE293     -0.1231
    159  CA       -49.6360  -44.9440  -23.0240 C.3   293  ILE293      0.1692
    160  C        -49.6060  -44.2520  -24.3750 C.2   293  ILE293      0.2593
    161  O        -48.5680  -44.1860  -25.0360 O.2   293  ILE293     -0.2718
    162  CB       -49.7360  -43.8580  -21.9340 C.3   293  ILE293      0.0266
    163  CG1      -48.5050  -42.9510  -21.9930 C.3   293  ILE293      0.0019
    164  CG2      -49.8760  -44.4830  -20.5520 C.3   293  ILE293      0.0020
    165  CD1      -48.4520  -41.9490  -20.8880 C.3   293  ILE293      0.0001
    166  N        -50.7630  -43.7240  -24.7600 N.am  294  THR294     -0.1939
    167  CA       -50.9220  -42.9730  -25.9950 C.3   294  THR294      0.2028
    168  C        -51.3800  -41.5820  -25.6030 C.2   294  THR294      0.2642
    169  O        -52.4120  -41.4140  -24.9510 O.2   294  THR294     -0.2714
    170  CB       -51.9370  -43.6240  -26.9410 C.3   294  THR294      0.1808
    171  OG1      -51.4340  -44.8930  -27.3730 O.3   294  THR294     -0.2208
    172  CG2      -52.1920  -42.7410  -28.1540 C.3   294  THR294      0.0379
    173  N        -50.6070  -40.5810  -25.9940 N.am  295  PHE295     -0.1973
    174  CA       -50.8930  -39.2060  -25.6010 C.3   295  PHE295      0.1639
    175  C        -50.3520  -38.2170  -26.6250 C.2   295  PHE295      0.2290
    176  O        -49.6530  -38.5930  -27.5710 O.2   295  PHE295     -0.2864
    177  CB       -50.2920  -38.9200  -24.2230 C.3   295  PHE295      0.0560
    178  CG       -48.7810  -38.9270  -24.2060 C.ar  295  PHE295     -0.0200
    179  CD1      -48.0830  -40.1090  -24.0050 C.ar  295  PHE295     -0.0042
    180  CD2      -48.0600  -37.7620  -24.3960 C.ar  295  PHE295     -0.0042
    181  CE1      -46.6980  -40.1260  -23.9890 C.ar  295  PHE295     -0.0003
    182  CE2      -46.6750  -37.7760  -24.3820 C.ar  295  PHE295     -0.0003
    183  CZ       -45.9960  -38.9570  -24.1770 C.ar  295  PHE295     -0.0000
@<TRIPOS>BOND
     1   172   170    1
     2   176   175    2
     3   171   170    1
     4   124   121    1
     5   170   167    1
     6   175   174    1
     7   167   168    1
     8   167   166    1
     9   173   168   am
    10   173   174    1
    11   121   122    1
    12   121   120    1
    13   123   122    2
    14   168   169    2
    15   174   177    1
    16   122   125   am
    17   161   160    2
    18   120   117   am
    19   166   160   am
    20   180   182   ar
    21   180   178   ar
    22   182   183   ar
    23   160   159    1
    24   177   178    1
    25   109   108    2
    26   178   179   ar
    27   125   126    1
    28   183   181   ar
    29   179   181   ar
    30   118   117    2
    31   117   116    1
    32     1     2    1
    33   126   127    1
    34   126   129    1
    35   108   107    1
    36   108   115   am
    37   107   106    1
    38   107   110    1
    39   159   158    1
    40   159   162    1
    41   127   128    2
    42   116   115    1
    43   116   119    1
    44     2     3    1
    45     2     5    1
    46   129   130    1
    47   110   111    1
    48     3     4    2
    49   163   162    1
    50   163   165    1
    51   162   164    1
    52   111   112    1
    53   114   112   am
    54     5     6    1
    55   112   113    2
    56   137   135    1
    57   131   132    1
    58     6     7   ar
    59     6     8   ar
    60   152   151    2
    61   151   150    1
    62   135   132    1
    63   135   136    1
    64   132   133    1
    65   103   105   ar
    66   103   101   ar
    67   105   104   ar
    68    79    78    1
    69    79    80    1
    70     9    10    1
    71    78    75    1
    72   150   149    1
    73   150   153    1
    74    65    66    1
    75   101   100   ar
    76   133   134    2
    77    87    88    1
    78    87    84    1
    79    81    80    1
    80    81    82    1
    81    66    67    1
    82    66    69    1
    83    74    75    1
    84    74    67   am
    85   104   102   ar
    86   153   154    1
    87   154   155    1
    88    10    11    1
    89    10    13    1
    90    11    12    2
    91    75    76    1
    92    83    84    1
    93    83    76   am
    94    67    68    2
    95    84    85    1
    96    76    77    2
    97   100   102   ar
    98   100    99    1
    99   155   156    1
   100    69    70    1
   101    98    97    2
   102    13    14    1
   103   156   157    1
   104    97    96    1
   105    14    15    1
   106    70    71    1
   107    85    86    2
   108    85    89   am
   109    99    96    1
   110    17    15   ar
   111    15    16   ar
   112    96    95    1
   113    71    72    2
   114    71    73   am
   115    95    91   am
   116    89    90    1
   117    28    29    1
   118    45    44    1
   119    91    90    1
   120    91    92    2
   121    90    93    1
   122    29    30    1
   123    29    32    1
   124    42    43    1
   125    42    41    1
   126    40    41    1
   127    40    37    1
   128    44    43    2
   129    44    46    1
   130    94    93    1
   131    36    30   am
   132    36    37    1
   133    30    31    2
   134    34    33    1
   135   144   143    1
   136   144   145    1
   137    32    33    1
   138   147   146    1
   139    39    38    2
   140    37    38    1
   141   143   142    1
   142   138   139    1
   143    38    47   am
   144    33    35    1
   145    26    27   ar
   146    26    24   ar
   147   145   146    2
   148   146   148    1
   149    27    25   ar
   150   142   139    1
   151    24    23   ar
   152    47    48    1
   153   139   140    1
   154    48    51    1
   155    48    49    1
   156    51    52    1
   157   140   141    2
   158    25    23   ar
   159    23    22    1
   160    20    19    1
   161    20    21    2
   162    49    50    2
   163    19    22    1
   164    19    18    1
   165    52    53    1
   166    53    54    1
   167    64    63    1
   168    54    55    1
   169    63    62    1
   170    62    61    1
   171    59    58    2
   172    57    56    1
   173    57    58    1
   174    57    60    1
   175    61    60    1
