@<TRIPOS>MOLECULE
tmp/5w40C01.pdb
 118 111 0 0 0
SMALL
GASTEIGER

@<TRIPOS>ATOM
      1  N        -79.5490  -27.2010  -71.1640 N.3    39  ASP39      -0.1239
      2  CA       -80.8670  -26.9500  -70.6020 C.3    39  ASP39       0.1674
      3  C        -81.9180  -27.5660  -71.5120 C.2    39  ASP39       0.2266
      4  O        -81.8410  -27.4250  -72.7280 O.2    39  ASP39      -0.2867
      5  CB       -81.1240  -25.4520  -70.4360 C.3    39  ASP39       0.1410
      6  CG       -82.5430  -25.1540  -69.9880 C.2    39  ASP39       0.3668
      7  OD1      -82.8460  -25.3490  -68.7900 O.co2  39  ASP39      -0.2456
      8  OD2      -83.3580  -24.7350  -70.8380 O.co2  39  ASP39      -0.2456
      9  N        -85.1020  -26.8460  -72.0040 N.3    41  GLU41      -0.1245
     10  CA       -86.0050  -25.9190  -72.6680 C.3    41  GLU41       0.1567
     11  C        -85.3920  -25.2780  -73.9130 C.2    41  GLU41       0.2260
     12  O        -86.0910  -25.0130  -74.8910 O.2    41  GLU41      -0.2867
     13  CB       -86.4150  -24.8160  -71.6950 C.3    41  GLU41       0.0388
     14  CG       -87.6370  -25.1380  -70.8720 C.3    41  GLU41       0.1160
     15  CD       -88.0580  -23.9860  -69.9860 C.2    41  GLU41       0.3649
     16  OE1      -87.2360  -23.4870  -69.1870 O.co2  41  GLU41      -0.2457
     17  OE2      -89.2370  -23.5910  -70.0820 O.co2  41  GLU41      -0.2457
     18  N        -85.7560  -22.6930  -59.0100 N.3   173  LYS173     -0.1231
     19  CA       -85.3330  -21.4780  -59.6870 C.3   173  LYS173      0.1693
     20  C        -85.7580  -21.5110  -61.1390 C.2   173  LYS173      0.2592
     21  O        -85.9470  -20.4650  -61.7680 O.2   173  LYS173     -0.2718
     22  CB       -83.8210  -21.2980  -59.6100 C.3   173  LYS173      0.0285
     23  CG       -83.3190  -20.8560  -58.2500 C.3   173  LYS173      0.0035
     24  CD       -84.0270  -19.5890  -57.7990 C.3   173  LYS173      0.0206
     25  CE       -83.7200  -19.2780  -56.3410 C.3   173  LYS173      0.1093
     26  NZ       -84.3140  -17.9780  -55.9520 N.3   173  LYS173     -0.1314
     27  N        -85.8700  -22.7190  -61.6810 N.am  174  SER174     -0.1952
     28  CA       -86.3440  -22.8930  -63.0470 C.3   174  SER174      0.1924
     29  C        -87.8650  -22.8670  -63.0240 C.2   174  SER174      0.2314
     30  O        -88.4740  -22.7180  -61.9660 O.2   174  SER174     -0.2863
     31  CB       -85.8470  -24.2050  -63.6480 C.3   174  SER174      0.2116
     32  OG       -86.6610  -25.2790  -63.2160 O.3   174  SER174     -0.2180
     33  N        -89.7840  -25.3790  -64.5770 N.3   176  PHE176     -0.1241
     34  CA       -90.3600  -26.7000  -64.8240 C.3   176  PHE176      0.1605
     35  C        -89.9320  -27.8030  -63.8560 C.2   176  PHE176      0.2264
     36  O        -90.2470  -28.9690  -64.0800 O.2   176  PHE176     -0.2867
     37  CB       -90.0310  -27.1450  -66.2510 C.3   176  PHE176      0.0534
     38  CG       -88.5600  -27.1340  -66.5710 C.ar  176  PHE176     -0.0203
     39  CD1      -87.7470  -28.1980  -66.2130 C.ar  176  PHE176     -0.0042
     40  CD2      -87.9900  -26.0500  -67.2240 C.ar  176  PHE176     -0.0042
     41  CE1      -86.3990  -28.1840  -66.5060 C.ar  176  PHE176     -0.0003
     42  CE2      -86.6420  -26.0270  -67.5170 C.ar  176  PHE176     -0.0003
     43  CZ       -85.8440  -27.0950  -67.1570 C.ar  176  PHE176     -0.0000
     44  N        -81.6030  -25.2740  -56.3450 N.3   242  GLN242     -0.1231
     45  CA       -80.9080  -25.0020  -57.6040 C.3   242  GLN242      0.1698
     46  C        -79.9100  -23.8470  -57.5660 C.2   242  GLN242      0.2592
     47  O        -78.8760  -23.8990  -58.2310 O.2   242  GLN242     -0.2718
     48  CB       -81.9360  -24.7570  -58.6990 C.3   242  GLN242      0.0381
     49  CG       -83.0000  -25.8300  -58.7500 C.3   242  GLN242      0.0905
     50  CD       -83.8080  -25.7670  -60.0240 C.2   242  GLN242      0.2608
     51  OE1      -84.7560  -24.9890  -60.1380 O.2   242  GLN242     -0.2717
     52  NE2      -83.4070  -26.5530  -61.0110 N.am  242  GLN242     -0.0878
     53  N        -80.2080  -22.8160  -56.7840 N.am  243  ALA243     -0.1966
     54  CA       -79.3140  -21.6710  -56.6960 C.3   243  ALA243      0.1728
     55  C        -78.3350  -21.8440  -55.5380 C.2   243  ALA243      0.2616
     56  O        -78.7460  -22.1230  -54.4080 O.2   243  ALA243     -0.2715
     57  CB       -80.1110  -20.3910  -56.5310 C.3   243  ALA243      0.0334
     58  N        -77.0440  -21.6590  -55.8070 N.am  244  ALA244     -0.1963
     59  CA       -76.0390  -21.7930  -54.7540 C.3   244  ALA244      0.1728
     60  C        -76.2410  -20.7260  -53.6810 C.2   244  ALA244      0.2616
     61  O        -75.8940  -20.9320  -52.5200 O.2   244  ALA244     -0.2715
     62  CB       -74.6400  -21.6940  -55.3360 C.3   244  ALA244      0.0334
     63  N        -76.8320  -19.5970  -54.0630 N.am  245  SER245     -0.1950
     64  CA       -77.0820  -18.5260  -53.1040 C.3   245  SER245      0.1924
     65  C        -78.1960  -18.9210  -52.1330 C.2   245  SER245      0.2314
     66  O        -78.1900  -18.5070  -50.9800 O.2   245  SER245     -0.2863
     67  CB       -77.4100  -17.2140  -53.8260 C.3   245  SER245      0.2116
     68  OG       -78.4540  -17.3810  -54.7690 O.3   245  SER245     -0.2180
     69  N        -79.4890  -20.6640  -70.2100 N.3   282  VAL282     -0.1245
     70  CA       -80.8740  -20.8840  -69.8190 C.3   282  VAL282      0.1561
     71  C        -81.6920  -19.7740  -70.4950 C.2   282  VAL282      0.2260
     72  O        -81.1270  -18.7370  -70.8360 O.2   282  VAL282     -0.2867
     73  CB       -80.9880  -20.8830  -68.2650 C.3   282  VAL282      0.0252
     74  CG1      -82.3300  -20.3790  -67.7630 C.3   282  VAL282      0.0019
     75  CG2      -80.6720  -22.2730  -67.7090 C.3   282  VAL282      0.0019
     76  N        -84.2000  -16.5770  -70.7640 N.3   284  ASN284     -0.1240
     77  CA       -84.4870  -15.4290  -69.9120 C.3   284  ASN284      0.1653
     78  C        -85.9830  -15.2390  -69.6480 C.2   284  ASN284      0.2266
     79  O        -86.3830  -14.6750  -68.6260 O.2   284  ASN284     -0.2867
     80  CB       -83.9160  -14.1660  -70.5560 C.3   284  ASN284      0.1155
     81  CG       -83.3150  -13.2200  -69.5470 C.2   284  ASN284      0.2627
     82  OD1      -83.6510  -13.2580  -68.3630 O.2   284  ASN284     -0.2716
     83  ND2      -82.4260  -12.3490  -70.0130 N.am  284  ASN284     -0.0877
     84  N        -79.5100  -16.5070  -71.0260 N.3   288  LYS288     -0.1245
     85  CA       -78.5630  -15.9390  -70.0640 C.3   288  LYS288      0.1561
     86  C        -77.6840  -17.0690  -69.5350 C.2   288  LYS288      0.2260
     87  O        -78.1580  -18.1910  -69.3510 O.2   288  LYS288     -0.2867
     88  CB       -79.2660  -15.2430  -68.8900 C.3   288  LYS288      0.0271
     89  CG       -80.0700  -16.1730  -67.9850 C.3   288  LYS288      0.0035
     90  CD       -80.8220  -15.4120  -66.9040 C.3   288  LYS288      0.0206
     91  CE       -81.8600  -16.2990  -66.2360 C.3   288  LYS288      0.1093
     92  NZ       -82.5190  -15.6210  -65.0850 N.3   288  LYS288     -0.1314
     93  N        -75.7110  -18.8390  -66.5800 N.3   290  ILE290     -0.1231
     94  CA       -75.7280  -18.8810  -65.1240 C.3   290  ILE290      0.1692
     95  C        -75.0340  -20.1130  -64.5540 C.2   290  ILE290      0.2593
     96  O        -74.7440  -21.0780  -65.2700 O.2   290  ILE290     -0.2718
     97  CB       -77.1630  -18.8570  -64.5820 C.3   290  ILE290      0.0266
     98  CG1      -77.9050  -20.1100  -65.0430 C.3   290  ILE290      0.0019
     99  CG2      -77.8920  -17.6040  -65.0310 C.3   290  ILE290      0.0020
    100  CD1      -79.3550  -20.1090  -64.6970 C.3   290  ILE290      0.0001
    101  N        -74.7850  -20.0700  -63.2500 N.am  291  THR291     -0.1939
    102  CA       -74.1670  -21.1830  -62.5500 C.3   291  THR291      0.2028
    103  C        -75.1420  -21.6660  -61.4980 C.2   291  THR291      0.2642
    104  O        -75.5670  -20.9000  -60.6370 O.2   291  THR291     -0.2714
    105  CB       -72.8420  -20.7880  -61.8830 C.3   291  THR291      0.1808
    106  OG1      -71.9000  -20.3890  -62.8840 O.3   291  THR291     -0.2208
    107  CG2      -72.2800  -21.9530  -61.0870 C.3   291  THR291      0.0379
    108  N        -75.5050  -22.9390  -61.5640 N.am  292  PHE292     -0.1973
    109  CA       -76.4890  -23.4660  -60.6350 C.3   292  PHE292      0.1639
    110  C        -76.2650  -24.9530  -60.3940 C.2   292  PHE292      0.2290
    111  O        -75.4210  -25.5840  -61.0420 O.2   292  PHE292     -0.2864
    112  CB       -77.8980  -23.2250  -61.1690 C.3   292  PHE292      0.0560
    113  CG       -78.2510  -24.0610  -62.3710 C.ar  292  PHE292     -0.0200
    114  CD1      -77.9380  -23.6370  -63.6500 C.ar  292  PHE292     -0.0042
    115  CD2      -78.9320  -25.2620  -62.2160 C.ar  292  PHE292     -0.0042
    116  CE1      -78.2810  -24.4080  -64.7520 C.ar  292  PHE292     -0.0003
    117  CE2      -79.2720  -26.0340  -63.3100 C.ar  292  PHE292     -0.0003
    118  CZ       -78.9460  -25.6070  -64.5780 C.ar  292  PHE292     -0.0000
@<TRIPOS>BOND
     1    12    11    2
     2    11    10    1
     3     4     3    2
     4    10     9    1
     5    10    13    1
     6    13    14    1
     7     3     2    1
     8     1     2    1
     9    84    85    1
    10    14    15    1
    11     8     6   ar
    12    72    71    2
    13    76    77    1
    14     2     5    1
    15    80    77    1
    16    80    81    1
    17    71    70    1
    18     5     6    1
    19    69    70    1
    20    17    15   ar
    21    85    86    1
    22    85    88    1
    23    83    81   am
    24     6     7   ar
    25    15    16   ar
    26    77    78    1
    27    70    73    1
    28    78    79    2
    29    81    82    2
    30    86    87    2
    31    88    89    1
    32    73    74    1
    33    73    75    1
    34    89    90    1
    35    42    40   ar
    36    42    43   ar
    37    40    38   ar
    38    43    41   ar
    39    90    91    1
    40    93    94    1
    41    38    37    1
    42    38    39   ar
    43    41    39   ar
    44    37    34    1
    45    91    92    1
    46    96    95    2
    47    94    97    1
    48    94    95    1
    49    98   100    1
    50    98    97    1
    51    99    97    1
    52    34    33    1
    53    34    35    1
    54   116   118   ar
    55   116   114   ar
    56   118   117   ar
    57    95   101   am
    58    36    35    2
    59   114   113   ar
    60    31    32    1
    61    31    28    1
    62   117   115   ar
    63   101   102    1
    64    28    29    1
    65    28    27    1
    66    29    30    2
    67   106   105    1
    68   102   105    1
    69   102   103    1
    70   113   115   ar
    71   113   112    1
    72   105   107    1
    73    21    20    2
    74    27    20   am
    75   108   103   am
    76   108   109    1
    77   103   104    2
    78   112   109    1
    79    20    19    1
    80   111   110    2
    81    52    50   am
    82   109   110    1
    83    51    50    2
    84    50    49    1
    85    19    22    1
    86    19    18    1
    87    22    23    1
    88    49    48    1
    89    48    45    1
    90    23    24    1
    91    47    46    2
    92    24    25    1
    93    45    46    1
    94    45    44    1
    95    46    53   am
    96    53    54    1
    97    54    57    1
    98    54    55    1
    99    25    26    1
   100    58    55   am
   101    58    59    1
   102    55    56    2
   103    62    59    1
   104    68    67    1
   105    59    60    1
   106    63    60   am
   107    63    64    1
   108    67    64    1
   109    60    61    2
   110    64    65    1
   111    65    66    2
