@<TRIPOS>MOLECULE
tmp/5w49A01.pdb
 161 151 0 0 0
SMALL
GASTEIGER

@<TRIPOS>ATOM
      1  N        -21.5550  -27.5220   26.3110 N.3    51  LEU51      -0.1231
      2  CA       -21.7170  -26.6910   25.1220 C.3    51  LEU51       0.1693
      3  C        -21.6660  -27.5690   23.8720 C.2    51  LEU51       0.2592
      4  O        -20.8340  -28.4780   23.7910 O.2    51  LEU51      -0.2718
      5  CB       -20.5670  -25.6800   25.0570 C.3    51  LEU51       0.0284
      6  CG       -20.7660  -24.2920   24.4520 C.3    51  LEU51       0.0019
      7  CD1      -19.4240  -23.5750   24.5080 C.3    51  LEU51       0.0001
      8  CD2      -21.3130  -24.2940   23.0320 C.3    51  LEU51       0.0001
      9  N        -22.5440  -27.2750   22.9130 N.am   52  HIS52      -0.1976
     10  CA       -22.5880  -27.9440   21.5960 C.3    52  HIS52       0.1656
     11  C        -21.2120  -28.3890   21.1530 C.2    52  HIS52       0.2291
     12  O        -20.3550  -27.5560   20.8500 O.2    52  HIS52      -0.2864
     13  CB       -23.1550  -27.0290   20.5050 C.3    52  HIS52       0.0771
     14  CG       -24.4000  -26.3110   20.9020 C.ar   52  HIS52       0.0820
     15  ND1      -25.6270  -26.9300   20.9760 N.ar   52  HIS52      -0.2267
     16  CD2      -24.6030  -25.0230   21.2620 C.ar   52  HIS52       0.1154
     17  CE1      -26.5370  -26.0530   21.3540 C.ar   52  HIS52       0.1986
     18  NE2      -25.9410  -24.8870   21.5360 N.ar   52  HIS52      -0.2212
     19  N        -19.1980  -29.0910   18.7930 N.3    54  THR54      -0.1218
     20  CA       -18.9570  -28.8470   17.3770 C.3    54  THR54       0.1862
     21  C        -17.4590  -28.7040   17.1240 C.2    54  THR54       0.2287
     22  O        -16.6580  -28.6860   18.0650 O.2    54  THR54      -0.2866
     23  CB       -19.6220  -27.5280   16.9290 C.3    54  THR54       0.1770
     24  OG1      -19.0990  -26.4330   17.7010 O.3    54  THR54      -0.2211
     25  CG2      -21.1340  -27.5950   17.0980 C.3    54  THR54       0.0375
     26  N        -16.1220  -26.0130   16.1640 N.3    56  GLU56      -0.1231
     27  CA       -15.7940  -24.7050   16.7210 C.3    56  GLU56       0.1699
     28  C        -15.4890  -24.8010   18.2170 C.2    56  GLU56       0.2592
     29  O        -14.4830  -24.2670   18.6930 O.2    56  GLU56      -0.2718
     30  CB       -16.9280  -23.6980   16.4580 C.3    56  GLU56       0.0402
     31  CG       -16.9960  -23.1820   15.0200 C.3    56  GLU56       0.1161
     32  CD       -17.7160  -24.1040   14.0400 C.2    56  GLU56       0.3649
     33  OE1      -18.2120  -25.1900   14.4380 O.co2  56  GLU56      -0.2457
     34  OE2      -17.7960  -23.7270   12.8480 O.co2  56  GLU56      -0.2457
     35  N        -16.3540  -25.4970   18.9470 N.am   57  THR57      -0.1953
     36  CA       -16.1750  -25.7040   20.3870 C.3    57  THR57       0.1897
     37  C        -14.9110  -26.5130   20.6930 C.2    57  THR57       0.2313
     38  O        -14.3080  -26.3450   21.7500 O.2    57  THR57      -0.2863
     39  CB       -17.4070  -26.4070   20.9830 C.3    57  THR57       0.1794
     40  OG1      -18.5650  -25.5850   20.7790 O.3    57  THR57      -0.2208
     41  CG2      -17.2450  -26.6700   22.4840 C.3    57  THR57       0.0378
     42  N        -26.9050  -29.9250   24.0620 N.3    77  ASN77      -0.1240
     43  CA       -28.0410  -30.3300   23.2500 C.3    77  ASN77       0.1653
     44  C        -27.7720  -31.7430   22.7320 C.2    77  ASN77       0.2266
     45  O        -26.6240  -32.1150   22.4840 O.2    77  ASN77      -0.2867
     46  CB       -28.2430  -29.3370   22.1030 C.3    77  ASN77       0.1155
     47  CG       -29.4160  -29.6980   21.2120 C.2    77  ASN77       0.2627
     48  OD1      -29.2850  -30.5140   20.3010 O.2    77  ASN77      -0.2716
     49  ND2      -30.5660  -29.0850   21.4620 N.am   77  ASN77      -0.0877
     50  N        -26.7290  -31.5850   18.6030 N.3    80  SER80      -0.1217
     51  CA       -25.7550  -30.6160   18.0700 C.3    80  SER80       0.1889
     52  C        -24.3130  -31.1400   17.9840 C.2    80  SER80       0.2288
     53  O        -23.4580  -30.4950   17.3680 O.2    80  SER80      -0.2866
     54  CB       -25.7720  -29.3450   18.9110 C.3    80  SER80       0.2089
     55  OG       -25.3820  -29.6190   20.2490 O.3    80  SER80      -0.2183
     56  N        -21.1680  -32.8890   16.7180 N.3    82  GLN82      -0.1245
     57  CA       -20.5860  -33.3140   15.4540 C.3    82  GLN82       0.1566
     58  C        -19.5550  -34.3870   15.8100 C.2    82  GLN82       0.2260
     59  O        -18.5280  -34.0830   16.4190 O.2    82  GLN82      -0.2867
     60  CB       -19.9390  -32.1190   14.7500 C.3    82  GLN82       0.0367
     61  CG       -20.9310  -31.0290   14.3350 C.3    82  GLN82       0.0905
     62  CD       -20.2780  -29.7110   13.9120 C.2    82  GLN82       0.2608
     63  OE1      -19.0990  -29.4710   14.1530 O.2    82  GLN82      -0.2717
     64  NE2      -21.0640  -28.8440   13.2870 N.am   82  GLN82      -0.0878
     65  N        -23.5120  -23.2230   28.5430 N.3   128  ASP128     -0.1239
     66  CA       -24.3680  -22.6610   27.5030 C.3   128  ASP128      0.1674
     67  C        -25.7370  -23.3030   27.7200 C.2   128  ASP128      0.2266
     68  O        -25.9620  -24.4380   27.3080 O.2   128  ASP128     -0.2867
     69  CB       -23.7790  -22.9760   26.1140 C.3   128  ASP128      0.1410
     70  CG       -24.6500  -22.4780   24.9430 C.2   128  ASP128      0.3668
     71  OD1      -25.8210  -22.9030   24.8000 O.co2 128  ASP128     -0.2456
     72  OD2      -24.1420  -21.6760   24.1290 O.co2 128  ASP128     -0.2456
     73  N        -23.4030  -13.1360   17.4590 N.3   187  ASP187     -0.1239
     74  CA       -24.4290  -14.1690   17.6400 C.3   187  ASP187      0.1674
     75  C        -25.7980  -13.7560   17.0750 C.2   187  ASP187      0.2266
     76  O        -26.4910  -14.5800   16.4880 O.2   187  ASP187     -0.2867
     77  CB       -24.5620  -14.5320   19.1280 C.3   187  ASP187      0.1410
     78  CG       -25.4260  -15.7720   19.3660 C.2   187  ASP187      0.3668
     79  OD1      -25.3010  -16.7590   18.6060 O.co2 187  ASP187     -0.2456
     80  OD2      -26.2280  -15.7610   20.3280 O.co2 187  ASP187     -0.2456
     81  N        -36.8200  -20.4080   19.0770 N.3   299  PHE299     -0.1241
     82  CA       -36.8980  -21.8400   18.8290 C.3   299  PHE299      0.1605
     83  C        -37.9980  -22.3520   17.8970 C.2   299  PHE299      0.2264
     84  O        -37.6820  -22.6990   16.7700 O.2   299  PHE299     -0.2867
     85  CB       -36.9210  -22.6070   20.1550 C.3   299  PHE299      0.0534
     86  CG       -36.6210  -24.0630   19.9980 C.ar  299  PHE299     -0.0203
     87  CD1      -35.4420  -24.4700   19.3680 C.ar  299  PHE299     -0.0042
     88  CD2      -37.5080  -25.0340   20.4560 C.ar  299  PHE299     -0.0042
     89  CE1      -35.1510  -25.8140   19.2020 C.ar  299  PHE299     -0.0003
     90  CE2      -37.2190  -26.3820   20.2960 C.ar  299  PHE299     -0.0003
     91  CZ       -36.0400  -26.7730   19.6680 C.ar  299  PHE299     -0.0000
     92  N        -35.5580  -23.0110   13.6760 N.3   341  LEU341     -0.1245
     93  CA       -34.5630  -22.0720   13.1970 C.3   341  LEU341      0.1561
     94  C        -34.0860  -22.4740   11.8110 C.2   341  LEU341      0.2260
     95  O        -33.4910  -23.5430   11.6320 O.2   341  LEU341     -0.2867
     96  CB       -33.3940  -21.9780   14.1680 C.3   341  LEU341      0.0270
     97  CG       -33.7370  -21.5910   15.6080 C.3   341  LEU341      0.0019
     98  CD1      -32.4640  -21.5600   16.4400 C.3   341  LEU341      0.0001
     99  CD2      -34.4610  -20.2570   15.6990 C.3   341  LEU341      0.0001
    100  N        -31.7630  -21.1860    9.9520 N.3   343  ASN343     -0.1225
    101  CA       -30.3010  -21.2330    9.8530 C.3   343  ASN343      0.1785
    102  C        -29.6810  -22.5510   10.3670 C.2   343  ASN343      0.2597
    103  O        -28.6060  -22.9240    9.9250 O.2   343  ASN343     -0.2718
    104  CB       -29.6650  -20.0150   10.5490 C.3   343  ASN343      0.1169
    105  CG       -29.9050  -19.9910   12.0550 C.2   343  ASN343      0.2627
    106  OD1      -30.9810  -20.3480   12.5250 O.2   343  ASN343     -0.2716
    107  ND2      -28.9040  -19.5590   12.8150 N.am  343  ASN343     -0.0877
    108  N        -30.3520  -23.2390   11.2910 N.am  344  LEU344     -0.1980
    109  CA       -29.9190  -24.5630   11.7540 C.3   344  LEU344      0.1596
    110  C        -30.5230  -25.7130   10.9510 C.2   344  LEU344      0.2287
    111  O        -29.8700  -26.7410   10.7480 O.2   344  LEU344     -0.2864
    112  CB       -30.2910  -24.7710   13.2200 C.3   344  LEU344      0.0297
    113  CG       -29.8590  -23.7300   14.2500 C.3   344  LEU344      0.0022
    114  CD1      -30.1230  -24.2760   15.6440 C.3   344  LEU344      0.0001
    115  CD2      -28.3990  -23.3490   14.0960 C.3   344  LEU344      0.0001
    116  N        -29.3980  -24.6320    6.8450 N.3   347  ALA347     -0.1231
    117  CA       -28.0080  -24.2560    6.5840 C.3   347  ALA347      0.1694
    118  C        -27.1270  -24.8070    7.7110 C.2   347  ALA347      0.2592
    119  O        -27.5590  -25.6920    8.4460 O.2   347  ALA347     -0.2718
    120  CB       -27.8990  -22.7460    6.4590 C.3   347  ALA347      0.0304
    121  N        -25.9110  -24.2950    7.8630 N.am  348  MET348     -0.1965
    122  CA       -24.9670  -24.8430    8.8340 C.3   348  MET348      0.1736
    123  C        -24.8040  -24.0090   10.1100 C.2   348  MET348      0.2617
    124  O        -23.7930  -24.1220   10.8000 O.2   348  MET348     -0.2715
    125  CB       -23.6260  -25.0600    8.1300 C.3   348  MET348      0.0427
    126  CG       -23.7140  -26.0150    6.9440 C.3   348  MET348      0.0599
    127  SD       -24.4190  -27.6390    7.3270 S.3   348  MET348     -0.1393
    128  CE       -23.2250  -28.2450    8.5190 C.3   348  MET348      0.0692
    129  N        -25.8140  -23.2120   10.4550 N.am  349  GLY349     -0.1940
    130  CA       -25.7510  -22.3500   11.6370 C.3   349  GLY349      0.2014
    131  C        -24.8490  -21.1450   11.4230 C.2   349  GLY349      0.2638
    132  O        -24.7900  -20.6020   10.3190 O.2   349  GLY349     -0.2714
    133  N        -24.1570  -20.7280   12.4810 N.am  350  HIS350     -0.1973
    134  CA       -23.2840  -19.5520   12.4320 C.3   350  HIS350      0.1656
    135  C        -21.9370  -19.8900   11.8040 C.2   350  HIS350      0.2291
    136  O        -21.4190  -20.9770   12.0240 O.2   350  HIS350     -0.2864
    137  CB       -23.0320  -18.9990   13.8400 C.3   350  HIS350      0.0771
    138  CG       -24.1830  -18.2370   14.4220 C.ar  350  HIS350      0.0820
    139  ND1      -25.0350  -17.4600   13.6650 N.ar  350  HIS350     -0.2267
    140  CD2      -24.5830  -18.0860   15.7070 C.ar  350  HIS350      0.1154
    141  CE1      -25.9280  -16.8920   14.4530 C.ar  350  HIS350      0.1986
    142  NE2      -25.6730  -17.2540   15.6970 N.ar  350  HIS350     -0.2212
    143  N        -18.5140  -17.7450   15.9900 N.3   355  MET355     -0.1245
    144  CA       -18.2200  -18.5450   17.1790 C.3   355  MET355      0.1570
    145  C        -16.9000  -18.1430   17.8350 C.2   355  MET355      0.2261
    146  O        -16.7570  -18.2310   19.0550 O.2   355  MET355     -0.2867
    147  CB       -18.1820  -20.0450   16.8410 C.3   355  MET355      0.0387
    148  CG       -19.4270  -20.6100   16.1500 C.3   355  MET355      0.0595
    149  SD       -20.9860  -20.0070   16.8160 S.3   355  MET355     -0.1393
    150  CE       -20.7900  -20.4190   18.5540 C.3   355  MET355      0.0692
    151  N        -16.7590  -17.5690   21.8460 N.3   359  PHE359     -0.1241
    152  CA       -15.8890  -18.4260   22.6460 C.3   359  PHE359      0.1605
    153  C        -14.6600  -17.6970   23.1980 C.2   359  PHE359      0.2264
    154  O        -14.1920  -18.0370   24.2940 O.2   359  PHE359     -0.2867
    155  CB       -15.4690  -19.6730   21.8550 C.3   359  PHE359      0.0534
    156  CG       -16.6180  -20.5660   21.4390 C.ar  359  PHE359     -0.0203
    157  CD1      -17.8820  -20.4900   22.0440 C.ar  359  PHE359     -0.0042
    158  CD2      -16.4150  -21.5290   20.4540 C.ar  359  PHE359     -0.0042
    159  CE1      -18.9060  -21.3340   21.6490 C.ar  359  PHE359     -0.0003
    160  CE2      -17.4450  -22.3750   20.0600 C.ar  359  PHE359     -0.0003
    161  CZ       -18.6870  -22.2790   20.6590 C.ar  359  PHE359     -0.0000
@<TRIPOS>BOND
     1   120   117    1
     2   117   116    1
     3   117   118    1
     4   126   127    1
     5   126   125    1
     6   127   128    1
     7   118   121   am
     8   118   119    2
     9   121   122    1
    10   125   122    1
    11   122   123    1
    12   101   100    1
    13   101   102    1
    14   101   104    1
    15   103   102    2
    16   123   129   am
    17   123   124    2
    18   132   131    2
    19   102   108   am
    20   129   130    1
    21   104   105    1
    22   111   110    2
    23   110   109    1
    24   108   109    1
    25   131   130    1
    26   131   133   am
    27    95    94    2
    28   109   112    1
    29   135   136    2
    30   135   134    1
    31    94    93    1
    32   105   106    2
    33   105   107   am
    34   134   133    1
    35   134   137    1
    36    34    32   ar
    37    93    92    1
    38    93    96    1
    39   112   113    1
    40    64    62   am
    41   139   138   ar
    42   139   141   ar
    43   137   138    1
    44    62    63    2
    45    62    61    1
    46    32    33   ar
    47    32    31    1
    48   115   113    1
    49    96    97    1
    50   113   114    1
    51    61    60    1
    52   138   140   ar
    53   141   142   ar
    54    60    57    1
    55    31    30    1
    56    57    58    1
    57    57    56    1
    58    97    99    1
    59    97    98    1
    60   142   140   ar
    61    58    59    2
    62   143   144    1
    63   148   149    1
    64   148   147    1
    65    26    27    1
    66    30    27    1
    67    76    75    2
    68    27    28    1
    69    84    83    2
    70   149   150    1
    71   147   144    1
    72    23    25    1
    73    23    20    1
    74    23    24    1
    75    75    74    1
    76    21    20    1
    77    21    22    2
    78   144   145    1
    79    53    52    2
    80    20    19    1
    81    73    74    1
    82    74    77    1
    83   145   146    2
    84    83    82    1
    85    52    51    1
    86    51    50    1
    87    51    54    1
    88    28    29    2
    89    28    35   am
    90    79    78   ar
    91    82    81    1
    92    82    85    1
    93    54    55    1
    94    35    36    1
    95    77    78    1
    96    89    87   ar
    97    89    91   ar
    98    78    80   ar
    99    87    86   ar
   100    91    90   ar
   101    86    85    1
   102    86    88   ar
   103   160   158   ar
   104   160   161   ar
   105    90    88   ar
   106    48    47    2
   107    36    37    1
   108    36    39    1
   109   158   156   ar
   110    13    14    1
   111    13    10    1
   112   161   159   ar
   113    37    38    2
   114    40    39    1
   115    12    11    2
   116    14    15   ar
   117    14    16   ar
   118    15    17   ar
   119    39    41    1
   120    11    10    1
   121    47    49   am
   122    47    46    1
   123    16    18   ar
   124    17    18   ar
   125   156   155    1
   126   156   157   ar
   127    10     9    1
   128   159   157   ar
   129   151   152    1
   130   155   152    1
   131    46    43    1
   132    45    44    2
   133   152   153    1
   134    44    43    1
   135     9     3   am
   136     8     6    1
   137   153   154    2
   138    43    42    1
   139     4     3    2
   140     3     2    1
   141    72    70   ar
   142     6     7    1
   143     6     5    1
   144    71    70   ar
   145    70    69    1
   146     5     2    1
   147     2     1    1
   148    69    66    1
   149    68    67    2
   150    66    67    1
   151    66    65    1
