@<TRIPOS>MOLECULE
tmp/5w4aB00.pdb
 115 108 0 0 0
SMALL
GASTEIGER

@<TRIPOS>ATOM
      1  N        -28.3670    4.8480   -0.2700 N.3     2  THR2       -0.1218
      2  CA       -27.9430    5.0390    1.1140 C.3     2  THR2        0.1862
      3  C        -26.4490    4.7770    1.2160 C.2     2  THR2        0.2287
      4  O        -25.8700    4.0370    0.4130 O.2     2  THR2       -0.2866
      5  CB       -28.7030    4.1140    2.0770 C.3     2  THR2        0.1770
      6  OG1      -28.2580    4.3540    3.4220 O.3     2  THR2       -0.2211
      7  CG2      -28.4790    2.6230    1.6980 C.3     2  THR2        0.0375
      8  N        -25.3290    3.5640    4.2180 N.3     4  LYS4       -0.1245
      9  CA       -25.2140    2.6170    5.3270 C.3     4  LYS4        0.1561
     10  C        -24.9170    1.2060    4.8160 C.2     4  LYS4        0.2260
     11  O        -25.4230    0.8000    3.7670 O.2     4  LYS4       -0.2867
     12  CB       -26.5180    2.5850    6.1250 C.3     4  LYS4        0.0271
     13  CG       -26.4110    1.8550    7.4650 C.3     4  LYS4        0.0035
     14  CD       -27.8000    1.6240    8.0630 C.3     4  LYS4        0.0206
     15  CE       -27.7330    1.3570    9.5570 C.3     4  LYS4        0.1093
     16  NZ       -29.1030    1.2720   10.1610 N.3     4  LYS4       -0.1314
     17  N        -25.7950   -2.3670    4.8860 N.3     6  GLU6       -0.1245
     18  CA       -27.0180   -3.0690    5.2370 C.3     6  GLU6        0.1567
     19  C        -27.0230   -4.4740    4.6480 C.2     6  GLU6        0.2260
     20  O        -26.8000   -4.6510    3.4460 O.2     6  GLU6       -0.2867
     21  CB       -28.2360   -2.2930    4.7280 C.3     6  GLU6        0.0388
     22  CG       -28.2870   -0.8910    5.3090 C.3     6  GLU6        0.1160
     23  CD       -29.6320   -0.2260    5.0870 C.2     6  GLU6        0.3649
     24  OE1      -29.6590    0.8550    4.4650 O.co2   6  GLU6       -0.2457
     25  OE2      -30.6610   -0.8060    5.5170 O.co2   6  GLU6       -0.2457
     26  N        -29.0090   -7.6070    3.1910 N.3     8  VAL8       -0.1245
     27  CA       -30.2610   -7.8000    2.4580 C.3     8  VAL8        0.1561
     28  C        -30.4850   -9.2970    2.2760 C.2     8  VAL8        0.2260
     29  O        -29.5910  -10.1330    2.4720 O.2     8  VAL8       -0.2867
     30  CB       -30.2580   -7.0690    1.1120 C.3     8  VAL8        0.0252
     31  CG1      -30.0680   -5.5500    1.3040 C.3     8  VAL8        0.0019
     32  CG2      -29.1900   -7.6310    0.1940 C.3     8  VAL8        0.0019
     33  N        -32.7850  -12.2850   -0.1650 N.3    10  PHE10      -0.1241
     34  CA       -33.6320  -12.7000   -1.2800 C.3    10  PHE10       0.1605
     35  C        -33.9280  -14.1860   -1.1210 C.2    10  PHE10       0.2264
     36  O        -33.0500  -15.0200   -1.3350 O.2    10  PHE10      -0.2867
     37  CB       -32.9620  -12.4290   -2.6390 C.3    10  PHE10       0.0534
     38  CG       -32.6410  -10.9990   -2.9080 C.ar   10  PHE10      -0.0203
     39  CD1      -31.3610  -10.5170   -2.7020 C.ar   10  PHE10      -0.0042
     40  CD2      -33.6060  -10.1510   -3.4050 C.ar   10  PHE10      -0.0042
     41  CE1      -31.0640   -9.1480   -2.9900 C.ar   10  PHE10      -0.0003
     42  CE2      -33.3000   -8.8130   -3.6780 C.ar   10  PHE10      -0.0003
     43  CZ       -32.0310   -8.3380   -3.4740 C.ar   10  PHE10      -0.0000
     44  N        -25.3050   -8.9520   -2.9730 N.3    19  PRO19      -0.2102
     45  CA       -26.7630   -8.8650   -3.2130 C.3    19  PRO19       0.1504
     46  C        -27.2000   -9.1710   -4.6320 C.2    19  PRO19       0.2575
     47  O        -28.2400   -9.8310   -4.8090 O.2    19  PRO19      -0.2718
     48  CB       -27.1010   -7.4200   -2.8300 C.3    19  PRO19       0.0282
     49  CG       -25.8290   -6.6950   -2.9030 C.3    19  PRO19       0.0208
     50  CD       -24.7560   -7.6710   -2.5040 C.3    19  PRO19       0.0893
     51  N        -26.4750   -8.7030   -5.6490 N.am   20  ASN20      -0.1975
     52  CA       -26.9280   -8.9940   -7.0030 C.3    20  ASN20       0.1688
     53  C        -26.6600  -10.4500   -7.3940 C.2    20  ASN20       0.2292
     54  O        -27.3790  -10.9910   -8.2300 O.2    20  ASN20      -0.2864
     55  CB       -26.2840   -8.0400   -8.0070 C.3    20  ASN20       0.1181
     56  CG       -26.9880   -8.0660   -9.3530 C.2    20  ASN20       0.2629
     57  OD1      -28.2330   -8.0770   -9.4240 O.2    20  ASN20      -0.2716
     58  ND2      -26.2040   -8.1040  -10.4250 N.am   20  ASN20      -0.0877
     59  N        -29.7330  -12.1690   -5.8780 N.3    23  LEU23      -0.1245
     60  CA       -30.8990  -11.8880   -6.7200 C.3    23  LEU23       0.1561
     61  C        -30.8290  -12.6670   -8.0300 C.2    23  LEU23       0.2260
     62  O        -31.8510  -13.1920   -8.5020 O.2    23  LEU23      -0.2867
     63  CB       -31.0080  -10.3860   -6.9920 C.3    23  LEU23       0.0270
     64  CG       -32.2150   -9.9620   -7.8640 C.3    23  LEU23       0.0019
     65  CD1      -33.5480  -10.4350   -7.2480 C.3    23  LEU23       0.0001
     66  CD2      -32.1740   -8.4660   -8.0370 C.3    23  LEU23       0.0001
     67  N        -23.8630   -3.9860  -11.8290 N.3    65  PRO65      -0.2102
     68  CA       -24.7420   -4.0420  -13.0010 C.3    65  PRO65       0.1504
     69  C        -25.1390   -2.6510  -13.4740 C.2    65  PRO65       0.2576
     70  O        -24.9810   -1.6500  -12.7690 O.2    65  PRO65      -0.2718
     71  CB       -25.9480   -4.8340  -12.4940 C.3    65  PRO65       0.0282
     72  CG       -25.9890   -4.5750  -11.0590 C.3    65  PRO65       0.0208
     73  CD       -24.5410   -4.4670  -10.6160 C.3    65  PRO65       0.0893
     74  N        -25.6380   -2.5940  -14.7090 N.am   66  SER66      -0.1938
     75  CA       -26.1280   -1.3280  -15.2420 C.3    66  SER66       0.2055
     76  C        -27.2050   -0.7530  -14.3300 C.2    66  SER66       0.2644
     77  O        -28.0580   -1.4790  -13.8070 O.2    66  SER66      -0.2714
     78  CB       -26.6800   -1.5190  -16.6590 C.3    66  SER66       0.2130
     79  OG       -25.6220   -1.7290  -17.5800 O.3    66  SER66      -0.2179
     80  N        -27.1270    0.5540  -14.0920 N.am   67  GLY67      -0.1939
     81  CA       -28.0900    1.2120  -13.2380 C.3    67  GLY67       0.2014
     82  C        -27.7860    1.1600  -11.7580 C.2    67  GLY67       0.2640
     83  O        -28.6220    1.5980  -10.9590 O.2    67  GLY67      -0.2714
     84  N        -26.6200    0.6580  -11.3650 N.am   68  SER68      -0.1935
     85  CA       -26.3010    0.5780   -9.9430 C.3    68  SER68       0.2055
     86  C        -26.3710    1.9610   -9.3160 C.2    68  SER68       0.2643
     87  O        -25.8320    2.9270   -9.8600 O.2    68  SER68      -0.2714
     88  CB       -24.8980    0.0050   -9.7350 C.3    68  SER68       0.2130
     89  OG       -24.8330   -1.3610  -10.1180 O.3    68  SER68      -0.2179
     90  N        -26.9920    2.0480   -8.1480 N.am   69  ASP69      -0.1971
     91  CA       -27.0360    3.3060   -7.4270 C.3    69  ASP69       0.1709
     92  C        -25.8820    3.4140   -6.4200 C.2    69  ASP69       0.2293
     93  O        -25.0120    2.5370   -6.3150 O.2    69  ASP69      -0.2864
     94  CB       -28.3930    3.4880   -6.7500 C.3    69  ASP69       0.1436
     95  CG       -28.6570    2.5100   -5.6390 C.2    69  ASP69       0.3671
     96  OD1      -27.7380    1.8220   -5.1410 O.co2  69  ASP69      -0.2456
     97  OD2      -29.8390    2.4080   -5.2450 O.co2  69  ASP69      -0.2456
     98  N        -25.4840    3.2630   -3.1240 N.3    71  GLY71      -0.1210
     99  CA       -25.2680    2.2330   -2.1180 C.3    71  GLY71       0.1956
    100  C        -24.8140    0.9100   -2.7060 C.2    71  GLY71       0.2612
    101  O        -23.9830    0.2120   -2.1180 O.2    71  GLY71      -0.2717
    102  N        -25.3390    0.5560   -3.8860 N.am   72  THR72      -0.1952
    103  CA       -24.8890   -0.6480   -4.5760 C.3    72  THR72       0.1897
    104  C        -23.4140   -0.5540   -4.9280 C.2    72  THR72       0.2313
    105  O        -22.6530   -1.5090   -4.7220 O.2    72  THR72      -0.2863
    106  CB       -25.7230   -0.8670   -5.8430 C.3    72  THR72       0.1794
    107  OG1      -27.0470   -1.2430   -5.4680 O.3    72  THR72      -0.2208
    108  CG2      -25.1390   -1.9740   -6.7310 C.3    72  THR72       0.0378
    109  N        -21.2700   -0.6740   -1.6170 N.3    75  THR75      -0.1218
    110  CA       -21.2660   -2.0470   -1.1030 C.3    75  THR75       0.1862
    111  C        -20.3690   -2.9460   -1.9390 C.2    75  THR75       0.2287
    112  O        -19.5320   -3.6790   -1.3940 O.2    75  THR75      -0.2866
    113  CB       -22.7110   -2.5630   -1.0420 C.3    75  THR75       0.1770
    114  OG1      -23.4260   -1.7390   -0.1220 O.3    75  THR75      -0.2211
    115  CG2      -22.7950   -4.0160   -0.5620 C.3    75  THR75       0.0375
@<TRIPOS>BOND
     1    79    78    1
     2    78    75    1
     3    75    74    1
     4    75    76    1
     5    74    69   am
     6    76    80   am
     7    76    77    2
     8    80    81    1
     9    69    68    1
    10    69    70    2
    11    81    82    1
    12    68    71    1
    13    68    67    1
    14    71    72    1
    15    67    73    1
    16    82    84   am
    17    82    83    2
    18    84    85    1
    19    72    73    1
    20    58    56   am
    21    89    88    1
    22    85    88    1
    23    85    86    1
    24    87    86    2
    25    57    56    2
    26    56    55    1
    27    86    90   am
    28    62    61    2
    29    54    53    2
    30    90    91    1
    31    66    64    1
    32    61    60    1
    33    55    52    1
    34    64    65    1
    35    64    63    1
    36    91    94    1
    37    91    92    1
    38    53    52    1
    39    52    51    1
    40    63    60    1
    41    94    95    1
    42   108   106    1
    43    60    59    1
    44    92    93    2
    45   106   107    1
    46   106   103    1
    47    51    46   am
    48    95    97   ar
    49    95    96   ar
    50   104   105    2
    51   104   103    1
    52    47    46    2
    53    46    45    1
    54   103   102    1
    55   102   100   am
    56    42    43   ar
    57    42    40   ar
    58    43    41   ar
    59    40    38   ar
    60    45    44    1
    61    45    48    1
    62    98    99    1
    63    41    39   ar
    64    44    50    1
    65    38    39   ar
    66    38    37    1
    67    49    48    1
    68    49    50    1
    69   100    99    1
    70   100   101    2
    71    37    34    1
    72   111   112    2
    73   111   110    1
    74   109   110    1
    75    36    35    2
    76    34    35    1
    77    34    33    1
    78   110   113    1
    79   113   115    1
    80   113   114    1
    81     1     2    1
    82    32    30    1
    83     4     3    2
    84    30    31    1
    85    30    27    1
    86     2     3    1
    87     2     5    1
    88     7     5    1
    89     5     6    1
    90    28    27    1
    91    28    29    2
    92    27    26    1
    93    20    19    2
    94    11    10    2
    95     8     9    1
    96    24    23   ar
    97    19    18    1
    98    21    18    1
    99    21    22    1
   100    10     9    1
   101    17    18    1
   102    23    22    1
   103    23    25   ar
   104     9    12    1
   105    12    13    1
   106    13    14    1
   107    14    15    1
   108    15    16    1
