@<TRIPOS>MOLECULE
tmp/5w4aB01.pdb
 99 95 0 0 0
SMALL
GASTEIGER

@<TRIPOS>ATOM
      1  N        -20.3850  -20.9550  -11.2030 N.3    45  TYR45      -0.1241
      2  CA       -19.2890  -21.4900  -10.4090 C.3    45  TYR45       0.1605
      3  C        -19.6380  -21.5630   -8.9230 C.2    45  TYR45       0.2264
      4  O        -19.4210  -22.5910   -8.2730 O.2    45  TYR45      -0.2867
      5  CB       -18.0530  -20.6300  -10.6520 C.3    45  TYR45       0.0534
      6  CG       -16.8140  -21.1510   -9.9930 C.ar   45  TYR45      -0.0201
      7  CD1      -16.1720  -22.2720  -10.4950 C.ar   45  TYR45      -0.0009
      8  CD2      -16.2710  -20.5220   -8.8820 C.ar   45  TYR45      -0.0009
      9  CE1      -15.0280  -22.7590   -9.9160 C.ar   45  TYR45       0.0417
     10  CE2      -15.1220  -21.0120   -8.2860 C.ar   45  TYR45       0.0417
     11  CZ       -14.5060  -22.1320   -8.8150 C.ar   45  TYR45       0.1957
     12  OH       -13.3500  -22.6360   -8.2570 O.3    45  TYR45      -0.2866
     13  N        -13.9250  -21.3730  -13.6060 N.3    53  LYS53      -0.1231
     14  CA       -13.7870  -20.2220  -12.7250 C.3    53  LYS53       0.1678
     15  C        -14.1130  -18.9380  -13.4900 C.2    53  LYS53       0.2434
     16  O        -13.7250  -18.7960  -14.6470 O.2    53  LYS53      -0.2733
     17  CB       -12.3650  -20.1620  -12.1600 C.3    53  LYS53       0.0284
     18  CG       -12.0050  -21.3780  -11.3030 C.3    53  LYS53       0.0035
     19  CD       -10.5100  -21.6940  -11.3190 C.3    53  LYS53       0.0206
     20  CE       -10.1620  -22.7250  -10.2500 C.3    53  LYS53       0.1093
     21  NZ        -8.6930  -22.8250  -10.0080 N.3    53  LYS53      -0.1314
     22  N        -14.8490  -18.0030  -12.8910 N.am   54  PRO54      -0.2729
     23  CA       -15.1620  -16.7500  -13.5850 C.3    54  PRO54       0.1401
     24  C        -13.9570  -15.8230  -13.6380 C.2    54  PRO54       0.2269
     25  O        -13.0490  -15.8910  -12.8070 O.2    54  PRO54      -0.2865
     26  CB       -16.2900  -16.1430  -12.7360 C.3    54  PRO54       0.0296
     27  CG       -16.0220  -16.6960  -11.3560 C.3    54  PRO54       0.0237
     28  CD       -15.5220  -18.0900  -11.5810 C.3    54  PRO54       0.0939
     29  N        -12.1850  -11.9450  -13.5780 N.3    56  VAL56      -0.1245
     30  CA       -12.3730  -10.6890  -12.8480 C.3    56  VAL56       0.1561
     31  C        -13.5540   -9.9130  -13.4150 C.2    56  VAL56       0.2260
     32  O        -14.4060   -9.4130  -12.6750 O.2    56  VAL56      -0.2867
     33  CB       -11.0810   -9.8470  -12.8980 C.3    56  VAL56       0.0252
     34  CG1      -11.3250   -8.4280  -12.4240 C.3    56  VAL56       0.0019
     35  CG2      -10.0320  -10.4950  -12.0400 C.3    56  VAL56       0.0019
     36  N        -17.0040  -11.2590  -12.5460 N.3    59  ILE59      -0.1245
     37  CA       -17.3910  -10.9090  -11.1800 C.3    59  ILE59       0.1561
     38  C        -17.8220   -9.4440  -11.1010 C.2    59  ILE59       0.2260
     39  O        -18.8720   -9.1110  -10.5250 O.2    59  ILE59      -0.2867
     40  CB       -16.2130  -11.2150  -10.2340 C.3    59  ILE59       0.0252
     41  CG1      -16.0110  -12.7350  -10.1200 C.3    59  ILE59       0.0019
     42  CG2      -16.4200  -10.5770   -8.8320 C.3    59  ILE59       0.0019
     43  CD1      -14.6470  -13.1370   -9.5570 C.3    59  ILE59       0.0001
     44  N        -11.8060   -8.8400   -1.9030 N.3    82  LEU82      -0.1245
     45  CA       -11.3160   -9.7700   -2.9210 C.3    82  LEU82       0.1561
     46  C         -9.8260   -9.6270   -3.2050 C.2    82  LEU82       0.2260
     47  O         -9.2500  -10.5290   -3.8160 O.2    82  LEU82      -0.2867
     48  CB       -12.0960   -9.6100   -4.2200 C.3    82  LEU82       0.0270
     49  CG       -13.5130  -10.2000   -4.1850 C.3    82  LEU82       0.0019
     50  CD1      -14.3140   -9.7930   -5.4270 C.3    82  LEU82       0.0001
     51  CD2      -13.5070  -11.7300   -4.0210 C.3    82  LEU82       0.0001
     52  N         -6.2150   -8.4440   -7.2680 N.3    85  ASP85      -0.1225
     53  CA        -6.7510   -8.4430   -8.6260 C.3    85  ASP85       0.1805
     54  C         -7.9130   -7.4700   -8.8110 C.2    85  ASP85       0.2597
     55  O         -8.3710   -7.2820   -9.9480 O.2    85  ASP85      -0.2718
     56  CB        -7.2320   -9.8500   -9.0080 C.3    85  ASP85       0.1424
     57  CG        -6.0960  -10.8200   -9.2110 C.2    85  ASP85       0.3668
     58  OD1       -4.9700  -10.3540   -9.4700 O.co2  85  ASP85      -0.2456
     59  OD2       -6.3390  -12.0440   -9.1150 O.co2  85  ASP85      -0.2456
     60  N         -8.4220   -6.8720   -7.7290 N.am   86  PHE86      -0.1976
     61  CA        -9.6010   -6.0310   -7.8060 C.3    86  PHE86       0.1639
     62  C         -9.3450   -4.6060   -7.3520 C.2    86  PHE86       0.2290
     63  O        -10.2660   -3.7850   -7.3640 O.2    86  PHE86      -0.2864
     64  CB       -10.7220   -6.6610   -6.9790 C.3    86  PHE86       0.0560
     65  CG       -11.1780   -7.9860   -7.5340 C.ar   86  PHE86      -0.0200
     66  CD1      -10.5070   -9.1580   -7.2220 C.ar   86  PHE86      -0.0042
     67  CD2      -12.2610   -8.0540   -8.3980 C.ar   86  PHE86      -0.0042
     68  CE1      -10.9160  -10.3640   -7.7400 C.ar   86  PHE86      -0.0003
     69  CE2      -12.6700   -9.2750   -8.9170 C.ar   86  PHE86      -0.0003
     70  CZ       -12.0020  -10.4220   -8.5830 C.ar   86  PHE86      -0.0000
     71  N        -14.9550  -19.8670   -2.2330 N.3   174  LYS174     -0.1231
     72  CA       -14.9200  -20.4020   -3.5920 C.3   174  LYS174      0.1693
     73  C        -14.0830  -19.5240   -4.5010 C.2   174  LYS174      0.2592
     74  O        -13.2280  -20.0210   -5.2480 O.2   174  LYS174     -0.2718
     75  CB       -16.3450  -20.5090   -4.1400 C.3   174  LYS174      0.0285
     76  CG       -17.1780  -21.6130   -3.5190 C.3   174  LYS174      0.0035
     77  CD       -16.8240  -23.0020   -4.0700 C.3   174  LYS174      0.0206
     78  CE       -17.2610  -23.1720   -5.5180 C.3   174  LYS174      0.1093
     79  NZ       -16.7660  -24.4660   -6.0670 N.3   174  LYS174     -0.1314
     80  N        -14.3210  -18.2140   -4.4730 N.am  175  ILE175     -0.1966
     81  CA       -13.6790  -17.3410   -5.4540 C.3   175  ILE175      0.1727
     82  C        -12.2040  -17.1760   -5.1450 C.2   175  ILE175      0.2616
     83  O        -11.3830  -17.0810   -6.0600 O.2   175  ILE175     -0.2715
     84  CB       -14.4060  -15.9810   -5.5100 C.3   175  ILE175      0.0290
     85  CG1      -15.7840  -16.1590   -6.1440 C.3   175  ILE175      0.0022
     86  CG2      -13.5640  -14.9240   -6.2510 C.3   175  ILE175      0.0023
     87  CD1      -15.7570  -16.6100   -7.5900 C.3   175  ILE175      0.0001
     88  N        -11.8350  -17.1760   -3.8790 N.am  176  LEU176     -0.1963
     89  CA       -10.4630  -16.9070   -3.4960 C.3   176  LEU176      0.1728
     90  C         -9.6580  -18.1720   -3.3080 C.2   176  LEU176      0.2616
     91  O         -8.4550  -18.0860   -3.0400 O.2   176  LEU176     -0.2715
     92  CB       -10.4420  -16.0650   -2.2220 C.3   176  LEU176      0.0311
     93  CG       -11.0110  -14.6500   -2.3890 C.3   176  LEU176      0.0022
     94  CD1      -11.0140  -13.9620   -1.0430 C.3   176  LEU176      0.0001
     95  CD2      -10.2300  -13.8520   -3.4220 C.3   176  LEU176      0.0001
     96  N        -10.2830  -19.3320   -3.4520 N.am  177  GLY177     -0.1955
     97  CA        -9.5750  -20.5930   -3.3440 C.3   177  GLY177      0.1869
     98  C         -9.0940  -20.9030   -1.9500 C.2   177  GLY177      0.2309
     99  O         -7.9830  -21.4160   -1.7800 O.2   177  GLY177     -0.2863
@<TRIPOS>BOND
     1    16    15    2
     2    24    23    1
     3    24    25    2
     4    13    14    1
     5    23    22    1
     6    23    26    1
     7    29    30    1
     8    15    22   am
     9    15    14    1
    10    31    30    1
    11    31    32    2
    12    33    30    1
    13    33    34    1
    14    33    35    1
    15    22    28    1
    16    26    27    1
    17    14    17    1
    18    36    37    1
    19    17    18    1
    20    28    27    1
    21    19    18    1
    22    19    20    1
    23     1     2    1
    24    37    38    1
    25    37    40    1
    26    38    39    2
    27     5     2    1
    28     5     6    1
    29     7     6   ar
    30     7     9   ar
    31     2     3    1
    32    20    21    1
    33    40    41    1
    34    40    42    1
    35    41    43    1
    36     6     8   ar
    37    55    54    2
    38     9    11   ar
    39    58    57   ar
    40    57    59   ar
    41    57    56    1
    42    56    53    1
    43     3     4    2
    44    69    70   ar
    45    69    67   ar
    46     8    10   ar
    47    11    10   ar
    48    11    12    1
    49    54    53    1
    50    54    60   am
    51    53    52    1
    52    70    68   ar
    53    67    65   ar
    54    61    60    1
    55    61    62    1
    56    61    64    1
    57    68    66   ar
    58    87    85    1
    59    65    66   ar
    60    65    64    1
    61    63    62    2
    62    86    84    1
    63    85    84    1
    64    79    78    1
    65    83    82    2
    66    78    77    1
    67    84    81    1
    68    81    82    1
    69    81    80    1
    70    50    49    1
    71    74    73    2
    72    82    88   am
    73    73    80   am
    74    73    72    1
    75    48    49    1
    76    48    45    1
    77    49    51    1
    78    75    72    1
    79    75    76    1
    80    77    76    1
    81    88    89    1
    82    47    46    2
    83    72    71    1
    84    89    90    1
    85    89    92    1
    86    96    97    1
    87    96    90   am
    88    95    93    1
    89    97    98    1
    90    90    91    2
    91    46    45    1
    92    45    44    1
    93    93    92    1
    94    93    94    1
    95    98    99    2
