@<TRIPOS>MOLECULE
tmp/5w4aC01.pdb
 79 76 0 0 0
SMALL
GASTEIGER

@<TRIPOS>ATOM
      1  N        -37.7150   -8.7320   33.5430 N.3     8  VAL8       -0.1245
      2  CA       -36.4600   -8.9940   34.2410 C.3     8  VAL8        0.1561
      3  C        -36.2840  -10.5110   34.3510 C.2     8  VAL8        0.2260
      4  O        -37.2060  -11.2990   34.1340 O.2     8  VAL8       -0.2867
      5  CB       -36.4110   -8.3230   35.6200 C.3     8  VAL8        0.0252
      6  CG1      -36.5890   -6.8130   35.4870 C.3     8  VAL8        0.0019
      7  CG2      -37.4790   -8.8840   36.5340 C.3     8  VAL8        0.0019
      8  N        -34.0880  -13.7480   36.6050 N.3    10  PHE10      -0.1241
      9  CA       -33.2580  -14.2390   37.7030 C.3    10  PHE10       0.1605
     10  C        -32.9480  -15.7030   37.4220 C.2    10  PHE10       0.2264
     11  O        -33.8390  -16.5460   37.4980 O.2    10  PHE10      -0.2867
     12  CB       -33.9680  -14.1080   39.0500 C.3    10  PHE10       0.0534
     13  CG       -34.3480  -12.7050   39.4130 C.ar   10  PHE10      -0.0203
     14  CD1      -35.5920  -12.2170   39.0910 C.ar   10  PHE10      -0.0042
     15  CD2      -33.4510  -11.8720   40.0620 C.ar   10  PHE10      -0.0042
     16  CE1      -35.9560  -10.9070   39.4220 C.ar   10  PHE10      -0.0003
     17  CE2      -33.8340  -10.5570   40.4080 C.ar   10  PHE10      -0.0003
     18  CZ       -35.0950  -10.1020   40.0650 C.ar   10  PHE10      -0.0000
     19  N        -41.4420  -10.5120   39.7350 N.3    19  PRO19      -0.2102
     20  CA       -39.9760  -10.5200   39.9770 C.3    19  PRO19       0.1504
     21  C        -39.5470  -10.9210   41.3840 C.2    19  PRO19       0.2575
     22  O        -38.5460  -11.6420   41.5170 O.2    19  PRO19      -0.2718
     23  CB       -39.5660   -9.0780   39.6650 C.3    19  PRO19       0.0282
     24  CG       -40.8040   -8.2750   39.7890 C.3    19  PRO19       0.0208
     25  CD       -41.9010   -9.1640   39.3340 C.3    19  PRO19       0.0893
     26  N        -40.2490  -10.4890   42.4440 N.am   20  ASN20      -0.1975
     27  CA       -39.7910  -10.8730   43.7790 C.3    20  ASN20       0.1688
     28  C        -40.0660  -12.3500   44.0500 C.2    20  ASN20       0.2292
     29  O        -39.3240  -12.9780   44.8160 O.2    20  ASN20      -0.2864
     30  CB       -40.4480   -9.9780   44.8380 C.3    20  ASN20       0.1181
     31  CG       -39.7720  -10.0790   46.1900 C.2    20  ASN20       0.2629
     32  OD1      -38.5360  -10.1340   46.2820 O.2    20  ASN20      -0.2716
     33  ND2      -40.5740  -10.0560   47.2540 N.am   20  ASN20      -0.0877
     34  N        -37.0960  -14.1280   42.3580 N.3    23  LEU23      -0.1245
     35  CA       -35.9020  -13.9650   43.1620 C.3    23  LEU23       0.1561
     36  C        -35.9780  -14.8270   44.4140 C.2    23  LEU23       0.2260
     37  O        -34.9910  -15.4760   44.7870 O.2    23  LEU23      -0.2867
     38  CB       -35.7360  -12.4940   43.5480 C.3    23  LEU23       0.0270
     39  CG       -34.5400  -12.2100   44.4760 C.3    23  LEU23       0.0019
     40  CD1      -33.2060  -12.6570   43.8410 C.3    23  LEU23       0.0001
     41  CD2      -34.4860  -10.7340   44.8090 C.3    23  LEU23       0.0001
     42  N        -42.8650   -5.8420   48.8620 N.3    65  PRO65      -0.2102
     43  CA       -41.9590   -5.9250   50.0180 C.3    65  PRO65       0.1504
     44  C        -41.5800   -4.5450   50.5410 C.2    65  PRO65       0.2576
     45  O        -41.7190   -3.5270   49.8620 O.2    65  PRO65      -0.2718
     46  CB       -40.7440   -6.6650   49.4570 C.3    65  PRO65       0.0282
     47  CG       -40.7620   -6.3920   48.0000 C.3    65  PRO65       0.0208
     48  CD       -42.2100   -6.2970   47.6220 C.3    65  PRO65       0.0893
     49  N        -41.1020   -4.5120   51.7840 N.am   66  SER66      -0.1938
     50  CA       -40.6850   -3.2380   52.3590 C.3    66  SER66       0.2055
     51  C        -39.5890   -2.6160   51.5100 C.2    66  SER66       0.2644
     52  O        -38.6990   -3.3090   51.0000 O.2    66  SER66      -0.2714
     53  CB       -40.1880   -3.4210   53.7930 C.3    66  SER66       0.2130
     54  OG       -39.6830   -2.1930   54.3020 O.3    66  SER66      -0.2179
     55  N        -39.6750   -1.2960   51.3370 N.am   67  GLY67      -0.1939
     56  CA       -38.7140   -0.5710   50.5380 C.3    67  GLY67       0.2014
     57  C        -38.9630   -0.6250   49.0510 C.2    67  GLY67       0.2640
     58  O        -38.1030   -0.1950   48.2760 O.2    67  GLY67      -0.2714
     59  N        -40.1000   -1.1660   48.6260 N.am   68  SER68      -0.1935
     60  CA       -40.4340   -1.1690   47.2110 C.3    68  SER68       0.2055
     61  C        -40.3830    0.2470   46.6660 C.2    68  SER68       0.2643
     62  O        -40.9390    1.1710   47.2650 O.2    68  SER68      -0.2714
     63  CB       -41.8290   -1.7600   47.0080 C.3    68  SER68       0.2130
     64  OG       -41.8250   -3.1550   47.2740 O.3    68  SER68      -0.2179
     65  N        -39.7180    0.4140   45.5320 N.am   69  ASP69      -0.1971
     66  CA       -39.7060    1.7130   44.8820 C.3    69  ASP69       0.1709
     67  C        -40.8910    1.8340   43.9240 C.2    69  ASP69       0.2293
     68  O        -41.7420    0.9430   43.8130 O.2    69  ASP69      -0.2864
     69  CB       -38.3640    1.9800   44.1830 C.3    69  ASP69       0.1436
     70  CG       -38.0740    1.0500   43.0110 C.2    69  ASP69       0.3671
     71  OD1      -38.9820    0.3870   42.4750 O.co2  69  ASP69      -0.2456
     72  OD2      -36.8940    0.9930   42.5950 O.co2  69  ASP69      -0.2456
     73  N        -41.3700   -0.8220   41.2190 N.3    72  THR72      -0.1218
     74  CA       -41.8400   -2.0740   41.8130 C.3    72  THR72       0.1862
     75  C        -43.3220   -1.9980   42.1440 C.2    72  THR72       0.2287
     76  O        -44.0800   -2.9330   41.8680 O.2    72  THR72      -0.2866
     77  CB       -41.0400   -2.3970   43.0750 C.3    72  THR72       0.1770
     78  OG1      -39.7080   -2.7550   42.6950 O.3    72  THR72      -0.2211
     79  CG2      -41.6850   -3.5340   43.8620 C.3    72  THR72       0.0375
@<TRIPOS>BOND
     1     1     2    1
     2     4     3    2
     3     2     3    1
     4     2     5    1
     5     6     5    1
     6     5     7    1
     7     8     9    1
     8    10    11    2
     9    10     9    1
    10     9    12    1
    11    12    13    1
    12    14    13   ar
    13    14    16   ar
    14    25    19    1
    15    25    24    1
    16    13    15   ar
    17    16    18   ar
    18    23    24    1
    19    23    20    1
    20    19    20    1
    21    20    21    1
    22    15    17   ar
    23    18    17   ar
    24    73    74    1
    25    21    22    2
    26    21    26   am
    27    74    75    1
    28    74    77    1
    29    76    75    2
    30    34    35    1
    31    26    27    1
    32    71    70   ar
    33    72    70   ar
    34    78    77    1
    35    70    69    1
    36    77    79    1
    37    35    38    1
    38    35    36    1
    39    38    39    1
    40    27    28    1
    41    27    30    1
    42    68    67    2
    43    40    39    1
    44    67    66    1
    45    28    29    2
    46    69    66    1
    47    36    37    2
    48    39    41    1
    49    30    31    1
    50    66    65    1
    51    65    61   am
    52    31    32    2
    53    31    33   am
    54    61    60    1
    55    61    62    2
    56    63    60    1
    57    63    64    1
    58    60    59    1
    59    48    47    1
    60    48    42    1
    61    47    46    1
    62    58    57    2
    63    59    57   am
    64    42    43    1
    65    57    56    1
    66    46    43    1
    67    45    44    2
    68    43    44    1
    69    56    55    1
    70    44    49   am
    71    52    51    2
    72    55    51   am
    73    51    50    1
    74    49    50    1
    75    50    53    1
    76    53    54    1
