@<TRIPOS>MOLECULE
tmp/5w4bC01.pdb
 157 148 0 0 0
SMALL
GASTEIGER

@<TRIPOS>ATOM
      1  N        -16.6600   26.3890  159.3080 N.3    50  LEU50      -0.1231
      2  CA       -16.8420   25.6540  160.5610 C.3    50  LEU50       0.1693
      3  C        -16.7260   26.5810  161.7690 C.2    50  LEU50       0.2592
      4  O        -15.8720   27.4700  161.7990 O.2    50  LEU50      -0.2718
      5  CB       -15.8070   24.5260  160.6770 C.3    50  LEU50       0.0284
      6  CG       -15.5810   23.8620  162.0450 C.3    50  LEU50       0.0019
      7  CD1      -16.7930   23.0660  162.4990 C.3    50  LEU50       0.0001
      8  CD2      -14.3660   22.9530  161.9940 C.3    50  LEU50       0.0001
      9  N        -17.5960   26.3320  162.7490 N.am   51  HIS51      -0.1976
     10  CA       -17.6450   27.0640  164.0210 C.3    51  HIS51       0.1656
     11  C        -16.2790   27.5840  164.3960 C.2    51  HIS51       0.2291
     12  O        -15.3360   26.8010  164.5270 O.2    51  HIS51      -0.2864
     13  CB       -18.1340   26.1650  165.1620 C.3    51  HIS51       0.0771
     14  CG       -19.3840   25.4080  164.8500 C.ar   51  HIS51       0.0820
     15  ND1      -20.6150   26.0150  164.7400 N.ar   51  HIS51      -0.2267
     16  CD2      -19.5890   24.0920  164.6130 C.ar   51  HIS51       0.1154
     17  CE1      -21.5270   25.1050  164.4540 C.ar   51  HIS51       0.1986
     18  NE2      -20.9310   23.9300  164.3720 N.ar   51  HIS51      -0.2212
     19  N        -14.1950   28.3560  166.8300 N.3    53  THR53      -0.1218
     20  CA       -13.8850   28.1130  168.2400 C.3    53  THR53       0.1862
     21  C        -12.3890   27.8800  168.4650 C.2    53  THR53       0.2287
     22  O        -11.6070   27.7570  167.5180 O.2    53  THR53      -0.2866
     23  CB       -14.6520   26.8730  168.7530 C.3    53  THR53       0.1770
     24  OG1      -14.3090   25.7260  167.9600 O.3    53  THR53      -0.2211
     25  CG2      -16.1540   27.1170  168.6870 C.3    53  THR53       0.0375
     26  N        -11.1000   25.1470  169.4620 N.3    55  GLU55      -0.1231
     27  CA       -10.7980   23.8210  168.9200 C.3    55  GLU55       0.1699
     28  C        -10.5880   23.8760  167.4000 C.2    55  GLU55       0.2592
     29  O         -9.6130   23.3300  166.8770 O.2    55  GLU55      -0.2718
     30  CB       -11.9120   22.8210  169.2860 C.3    55  GLU55       0.0402
     31  CG       -11.9270   22.3750  170.7540 C.3    55  GLU55       0.1161
     32  CD       -12.4220   23.4380  171.7340 C.2    55  GLU55       0.3649
     33  OE1      -13.2860   24.2640  171.3660 O.co2  55  GLU55      -0.2457
     34  OE2      -11.9370   23.4530  172.8850 O.co2  55  GLU55      -0.2457
     35  N        -11.5020   24.5530  166.7090 N.am   56  THR56      -0.1953
     36  CA       -11.3860   24.7810  165.2650 C.3    56  THR56       0.1897
     37  C        -10.1160   25.5550  164.9020 C.2    56  THR56       0.2313
     38  O         -9.4950   25.3020  163.8650 O.2    56  THR56      -0.2863
     39  CB       -12.6050   25.5560  164.7490 C.3    56  THR56       0.1794
     40  OG1      -13.7980   24.8310  165.0810 O.3    56  THR56      -0.2208
     41  CG2      -12.5420   25.7770  163.2270 C.3    56  THR56       0.0378
     42  N        -22.0660   28.8530  161.7270 N.3    76  ASN76      -0.1240
     43  CA       -23.2160   29.2630  162.5260 C.3    76  ASN76       0.1653
     44  C        -22.9930   30.7060  162.9930 C.2    76  ASN76       0.2266
     45  O        -21.8540   31.1170  163.2260 O.2    76  ASN76      -0.2867
     46  CB       -23.3870   28.3070  163.7070 C.3    76  ASN76       0.1155
     47  CG       -24.6300   28.5920  164.5290 C.2    76  ASN76       0.2627
     48  OD1      -24.6570   29.5360  165.3170 O.2    76  ASN76      -0.2716
     49  ND2      -25.6550   27.7600  164.3750 N.am   76  ASN76      -0.0877
     50  N        -23.8600   32.3930  165.8020 N.3    78  PHE78      -0.1227
     51  CA       -23.5120   32.6190  167.2280 C.3    78  PHE78       0.1736
     52  C        -22.3640   31.7570  167.7780 C.2    78  PHE78       0.2596
     53  O        -21.8790   32.0160  168.8840 O.2    78  PHE78      -0.2718
     54  CB       -24.7460   32.4130  168.1210 C.3    78  PHE78       0.0547
     55  CG       -25.9030   33.3140  167.7820 C.ar   78  PHE78      -0.0202
     56  CD1      -25.8430   34.6780  168.0590 C.ar   78  PHE78      -0.0042
     57  CD2      -27.0570   32.8010  167.1870 C.ar   78  PHE78      -0.0042
     58  CE1      -26.9080   35.5150  167.7420 C.ar   78  PHE78      -0.0003
     59  CE2      -28.1240   33.6330  166.8690 C.ar   78  PHE78      -0.0003
     60  CZ       -28.0500   34.9910  167.1480 C.ar   78  PHE78      -0.0000
     61  N        -21.9290   30.7500  167.0220 N.am   79  SER79      -0.1952
     62  CA       -20.9820   29.7480  167.5290 C.3    79  SER79       0.1924
     63  C        -19.5130   30.1940  167.5940 C.2    79  SER79       0.2314
     64  O        -18.6960   29.5190  168.2310 O.2    79  SER79      -0.2863
     65  CB       -21.0800   28.4780  166.6940 C.3    79  SER79       0.2116
     66  OG       -20.5050   28.6700  165.4130 O.3    79  SER79      -0.2180
     67  N        -16.2010   32.0080  168.7680 N.3    81  GLN81      -0.1245
     68  CA       -15.5740   32.5080  169.9930 C.3    81  GLN81       0.1566
     69  C        -14.5650   33.5800  169.5890 C.2    81  GLN81       0.2260
     70  O        -13.5020   33.2590  169.0470 O.2    81  GLN81      -0.2867
     71  CB       -14.8760   31.3800  170.7550 C.3    81  GLN81       0.0367
     72  CG       -15.8160   30.5380  171.6040 C.3    81  GLN81       0.0905
     73  CD       -15.1280   29.3370  172.2330 C.2    81  GLN81       0.2608
     74  OE1      -14.8090   28.3620  171.5510 O.2    81  GLN81      -0.2717
     75  NE2      -14.9050   29.3960  173.5420 N.am   81  GLN81      -0.0878
     76  N        -31.5390   30.5100  179.5060 N.3   320  GLN320     -0.1245
     77  CA       -31.8240   29.1860  178.9370 C.3   320  GLN320      0.1566
     78  C        -32.4950   28.2010  179.9200 C.2   320  GLN320      0.2260
     79  O        -32.4360   26.9820  179.7300 O.2   320  GLN320     -0.2867
     80  CB       -30.5520   28.5950  178.2900 C.3   320  GLN320      0.0367
     81  CG       -29.9340   29.4790  177.2080 C.3   320  GLN320      0.0905
     82  CD       -30.8610   29.6860  176.0120 C.2   320  GLN320      0.2608
     83  OE1      -31.2110   28.7330  175.3110 O.2   320  GLN320     -0.2717
     84  NE2      -31.2650   30.9310  175.7740 N.am  320  GLN320     -0.0878
     85  N        -34.8190   26.2560  175.7290 N.3   337  GLU337     -0.1245
     86  CA       -35.9740   26.3960  174.8260 C.3   337  GLU337      0.1567
     87  C        -36.2180   25.1850  173.9190 C.2   337  GLU337      0.2260
     88  O        -36.7180   25.3330  172.7980 O.2   337  GLU337     -0.2867
     89  CB       -35.8430   27.6910  174.0020 C.3   337  GLU337      0.0388
     90  CG       -36.4590   28.8910  174.6900 C.3   337  GLU337      0.1160
     91  CD       -35.6920   30.1600  174.4330 C.2   337  GLU337      0.3649
     92  OE1      -36.1280   30.9670  173.5840 O.co2 337  GLU337     -0.2457
     93  OE2      -34.6410   30.3320  175.0780 O.co2 337  GLU337     -0.2457
     94  N        -33.8210   23.3410  172.7170 N.3   339  ARG339     -0.1245
     95  CA       -32.6670   23.2350  171.8310 C.3   339  ARG339      0.1563
     96  C        -31.6190   22.3610  172.5050 C.2   339  ARG339      0.2260
     97  O        -31.8660   21.8370  173.5940 O.2   339  ARG339     -0.2867
     98  CB       -32.1240   24.6270  171.4810 C.3   339  ARG339      0.0307
     99  CG       -33.1230   25.4380  170.6690 C.3   339  ARG339      0.0489
    100  CD       -32.5530   26.7120  170.0650 C.3   339  ARG339      0.2205
    101  NE       -32.9840   27.9100  170.7940 N.pl3 339  ARG339     -0.0865
    102  CZ       -32.3680   28.4450  171.8580 C.cat 339  ARG339      0.5346
    103  NH1      -31.2510   27.9080  172.3730 N.pl3 339  ARG339      0.1354
    104  NH2      -32.8780   29.5450  172.4210 N.pl3 339  ARG339      0.1354
    105  N        -25.1480   22.4320  174.3520 N.3   343  LEU343     -0.1231
    106  CA       -24.6600   23.6850  173.7630 C.3   343  LEU343      0.1693
    107  C        -25.3220   24.9130  174.3990 C.2   343  LEU343      0.2592
    108  O        -24.6600   25.9260  174.6270 O.2   343  LEU343     -0.2718
    109  CB       -24.8580   23.6870  172.2380 C.3   343  LEU343      0.0284
    110  CG       -23.9080   22.7510  171.4730 C.3   343  LEU343      0.0019
    111  CD1      -24.4040   22.5200  170.0570 C.3   343  LEU343      0.0001
    112  CD2      -22.4760   23.2730  171.4460 C.3   343  LEU343      0.0001
    113  N        -26.6170   24.8060  174.6860 N.am  344  GLY344     -0.1957
    114  CA       -27.3920   25.9010  175.2570 C.3   344  GLY344      0.1869
    115  C        -27.1260   26.1810  176.7260 C.2   344  GLY344      0.2309
    116  O        -27.0690   27.3480  177.1300 O.2   344  GLY344     -0.2863
    117  N        -20.9180   24.0380  177.6090 N.3   347  MET347     -0.1230
    118  CA       -19.9330   24.4450  176.5950 C.3   347  MET347      0.1702
    119  C        -19.7010   23.4200  175.4740 C.2   347  MET347      0.2593
    120  O        -18.6540   23.4340  174.8100 O.2   347  MET347     -0.2718
    121  CB       -18.6120   24.7880  177.2960 C.3   347  MET347      0.0401
    122  CG       -18.6630   26.0560  178.1440 C.3   347  MET347      0.0596
    123  SD       -19.2710   27.5340  177.2930 S.3   347  MET347     -0.1393
    124  CE       -18.3490   27.5070  175.7510 C.3   347  MET347      0.0692
    125  N        -20.6830   22.5520  175.2420 N.am  348  GLY348     -0.1942
    126  CA       -20.6060   21.5710  174.1620 C.3   348  GLY348      0.2014
    127  C        -19.6900   20.4280  174.5320 C.2   348  GLY348      0.2638
    128  O        -19.5040   20.1440  175.7110 O.2   348  GLY348     -0.2714
    129  N        -19.1220   19.7710  173.5260 N.am  349  HIS349     -0.1973
    130  CA       -18.1890   18.6730  173.7650 C.3   349  HIS349      0.1656
    131  C        -16.8450   19.2020  174.2680 C.2   349  HIS349      0.2291
    132  O        -16.4630   20.3170  173.9190 O.2   349  HIS349     -0.2864
    133  CB       -17.9310   17.8900  172.4850 C.3   349  HIS349      0.0771
    134  CG       -19.1310   17.1970  171.9310 C.ar  349  HIS349      0.0820
    135  ND1      -20.1130   16.6440  172.7250 N.ar  349  HIS349     -0.2267
    136  CD2      -19.4780   16.9240  170.6530 C.ar  349  HIS349      0.1154
    137  CE1      -21.0260   16.0810  171.9550 C.ar  349  HIS349      0.1986
    138  NE2      -20.6610   16.2330  170.6940 N.ar  349  HIS349     -0.2212
    139  N        -13.4400   16.8760  170.0110 N.3   354  MET354     -0.1245
    140  CA       -13.2670   17.6700  168.7940 C.3   354  MET354      0.1570
    141  C        -11.9950   17.2950  168.0470 C.2   354  MET354      0.2261
    142  O        -11.9550   17.3450  166.8180 O.2   354  MET354     -0.2867
    143  CB       -13.2310   19.1690  169.1210 C.3   354  MET354      0.0387
    144  CG       -14.4410   19.7200  169.8830 C.3   354  MET354      0.0595
    145  SD       -16.0450   19.1820  169.2630 S.3   354  MET354     -0.1393
    146  CE       -15.9200   19.6770  167.5390 C.3   354  MET354      0.0692
    147  N        -11.9260   16.5070  164.1200 N.3   358  PHE358     -0.1241
    148  CA       -11.0980   17.3510  163.2600 C.3   358  PHE358      0.1605
    149  C         -9.8820   16.6390  162.6880 C.2   358  PHE358      0.2264
    150  O         -9.4380   16.9770  161.5880 O.2   358  PHE358     -0.2867
    151  CB       -10.6530   18.6180  163.9990 C.3   358  PHE358      0.0534
    152  CG       -11.7860   19.5130  164.4580 C.ar  358  PHE358     -0.0203
    153  CD1      -13.0630   19.4490  163.8900 C.ar  358  PHE358     -0.0042
    154  CD2      -11.5500   20.4600  165.4450 C.ar  358  PHE358     -0.0042
    155  CE1      -14.0710   20.2850  164.3220 C.ar  358  PHE358     -0.0003
    156  CE2      -12.5590   21.3030  165.8740 C.ar  358  PHE358     -0.0003
    157  CZ       -13.8200   21.2170  165.3120 C.ar  358  PHE358     -0.0000
@<TRIPOS>BOND
     1     1     2    1
     2     2     5    1
     3     2     3    1
     4     5     6    1
     5   150   149    2
     6    42    43    1
     7     3     4    2
     8     3     9   am
     9     8     6    1
    10     6     7    1
    11    43    44    1
    12    43    46    1
    13   149   148    1
    14     9    10    1
    15    44    45    2
    16    41    39    1
    17   148   151    1
    18   148   147    1
    19    46    47    1
    20    38    37    2
    21   153   155   ar
    22   153   152   ar
    23   151   152    1
    24    10    11    1
    25    10    13    1
    26   155   157   ar
    27    18    17   ar
    28    18    16   ar
    29    49    47   am
    30    11    12    2
    31    17    15   ar
    32   152   154   ar
    33    47    48    2
    34    16    14   ar
    35    15    14   ar
    36    39    40    1
    37    39    36    1
    38    14    13    1
    39    37    36    1
    40    36    35    1
    41   157   156   ar
    42    66    65    1
    43   154   156   ar
    44    50    51    1
    45    65    62    1
    46    35    28   am
    47   142   141    2
    48    19    20    1
    49    59    60   ar
    50    59    57   ar
    51    29    28    2
    52    61    62    1
    53    61    52   am
    54    60    58   ar
    55    57    55   ar
    56    51    52    1
    57    51    54    1
    58    28    27    1
    59    22    21    2
    60    62    63    1
    61   146   145    1
    62    63    64    2
    63    58    56   ar
    64    52    53    2
    65    55    56   ar
    66    55    54    1
    67    24    23    1
    68   141   140    1
    69    20    21    1
    70    20    23    1
    71    25    23    1
    72    67    68    1
    73   140   143    1
    74   140   139    1
    75    27    30    1
    76    27    26    1
    77    70    69    2
    78   143   144    1
    79   145   144    1
    80    30    31    1
    81    69    68    1
    82    68    71    1
    83   111   110    1
    84   100    99    1
    85   100   101    1
    86   136   138   ar
    87   136   134   ar
    88    99    98    1
    89   138   137   ar
    90    31    32    1
    91    71    72    1
    92   101   102    2
    93    33    32   ar
    94   112   110    1
    95   110   109    1
    96    98    95    1
    97    74    73    2
    98    72    73    1
    99    32    34   ar
   100    95    96    1
   101    95    94    1
   102   102   103    1
   103   102   104    1
   104   134   133    1
   105   134   135   ar
   106   137   135   ar
   107    73    75   am
   108   109   106    1
   109   133   130    1
   110    96    97    2
   111    88    87    2
   112   129   130    1
   113   129   127   am
   114    92    91   ar
   115   106   105    1
   116   106   107    1
   117   130   131    1
   118    87    86    1
   119   132   131    2
   120    89    90    1
   121    89    86    1
   122   126   127    1
   123   126   125    1
   124   107   108    2
   125   107   113   am
   126    91    90    1
   127    91    93   ar
   128   127   128    2
   129   113   114    1
   130   120   119    2
   131    86    85    1
   132   125   119   am
   133   114   115    1
   134    83    82    2
   135   119   118    1
   136   124   123    1
   137    84    82   am
   138    82    81    1
   139   118   121    1
   140   118   117    1
   141   115   116    2
   142    81    80    1
   143   123   122    1
   144   121   122    1
   145    80    77    1
   146    77    76    1
   147    77    78    1
   148    79    78    2
