@<TRIPOS>MOLECULE
tmp/5w4bD01.pdb
 131 125 0 0 0
SMALL
GASTEIGER

@<TRIPOS>ATOM
      1  N        -25.5410   29.2960  210.6100 N.3    51  LEU51      -0.1231
      2  CA       -25.3680   28.4160  209.4550 C.3    51  LEU51       0.1693
      3  C        -25.4560   29.1840  208.1420 C.2    51  LEU51       0.2592
      4  O        -26.3080   30.0620  207.9950 O.2    51  LEU51      -0.2718
      5  CB       -26.4230   27.3100  209.4740 C.3    51  LEU51       0.0284
      6  CG       -26.5290   26.3750  208.2650 C.3    51  LEU51       0.0019
      7  CD1      -25.2610   25.5600  208.0460 C.3    51  LEU51       0.0001
      8  CD2      -27.7210   25.4610  208.4790 C.3    51  LEU51       0.0001
      9  N        -24.5700   28.8170  207.2100 N.am   52  HIS52      -0.1976
     10  CA       -24.4830   29.3850  205.8510 C.3    52  HIS52       0.1656
     11  C        -25.8440   29.8390  205.3440 C.2    52  HIS52       0.2291
     12  O        -26.7560   29.0200  205.2310 O.2    52  HIS52      -0.2864
     13  CB       -23.8960   28.3660  204.8560 C.3    52  HIS52       0.0771
     14  CG       -22.6380   27.7020  205.3280 C.ar   52  HIS52       0.0820
     15  ND1      -21.4500   28.3810  205.4920 N.ar   52  HIS52      -0.2267
     16  CD2      -22.3870   26.4190  205.6790 C.ar   52  HIS52       0.1154
     17  CE1      -20.5200   27.5440  205.9150 C.ar   52  HIS52       0.1986
     18  NE2      -21.0630   26.3470  206.0400 N.ar   52  HIS52      -0.2212
     19  N        -27.9130   30.3090  202.8570 N.3    54  THR54      -0.1218
     20  CA       -28.2630   29.8860  201.5080 C.3    54  THR54       0.1862
     21  C        -29.7620   29.6370  201.3400 C.2    54  THR54       0.2287
     22  O        -30.5240   29.6410  202.3130 O.2    54  THR54      -0.2866
     23  CB       -27.5570   28.5650  201.1780 C.3    54  THR54       0.1770
     24  OG1      -28.0030   27.5470  202.0930 O.3    54  THR54      -0.2211
     25  CG2      -26.0380   28.7390  201.2440 C.3    54  THR54       0.0375
     26  N        -31.1100   26.7900  200.5770 N.3    56  GLU56      -0.1231
     27  CA       -31.3620   25.5590  201.3220 C.3    56  GLU56       0.1699
     28  C        -31.6020   25.8710  202.7980 C.2    56  GLU56       0.2592
     29  O        -32.5730   25.4060  203.3970 O.2    56  GLU56      -0.2718
     30  CB       -30.1900   24.5850  201.1670 C.3    56  GLU56       0.0402
     31  CG       -30.0950   23.9200  199.7900 C.3    56  GLU56       0.1161
     32  CD       -29.6060   24.8420  198.6710 C.2    56  GLU56       0.3649
     33  OE1      -28.8830   25.8260  198.9660 O.co2  56  GLU56      -0.2457
     34  OE2      -29.9530   24.5850  197.4930 O.co2  56  GLU56      -0.2457
     35  N        -30.7220   26.6870  203.3630 N.am   57  THR57      -0.1953
     36  CA       -30.8190   27.1000  204.7670 C.3    57  THR57       0.1897
     37  C        -32.0640   27.9400  205.0490 C.2    57  THR57       0.2313
     38  O        -32.6540   27.8470  206.1280 O.2    57  THR57      -0.2863
     39  CB       -29.5700   27.9000  205.1670 C.3    57  THR57       0.1794
     40  OG1      -28.4140   27.0510  205.0710 O.3    57  THR57      -0.2208
     41  CG2      -29.6770   28.4840  206.5890 C.3    57  THR57       0.0378
     42  N        -20.1650   31.3490  207.8960 N.3    77  ASN77      -0.1240
     43  CA       -19.0270   31.6700  207.0370 C.3    77  ASN77       0.1653
     44  C        -19.2680   33.0170  206.3420 C.2    77  ASN77       0.2266
     45  O        -20.3860   33.3220  205.9400 O.2    77  ASN77      -0.2867
     46  CB       -18.7950   30.5550  206.0230 C.3    77  ASN77       0.1155
     47  CG       -17.4750   30.6920  205.2850 C.2    77  ASN77       0.2627
     48  OD1      -17.3490   31.4940  204.3580 O.2    77  ASN77      -0.2716
     49  ND2      -16.4860   29.9010  205.6840 N.am   77  ASN77      -0.0877
     50  N        -18.3210   34.3150  203.3780 N.3    79  PHE79      -0.1227
     51  CA       -18.6250   34.3320  201.9260 C.3    79  PHE79       0.1736
     52  C        -19.8050   33.4510  201.4920 C.2    79  PHE79       0.2596
     53  O        -20.2810   33.5770  200.3640 O.2    79  PHE79      -0.2718
     54  CB       -17.3910   33.9100  201.1180 C.3    79  PHE79       0.0547
     55  CG       -16.2060   34.8270  201.2800 C.ar   79  PHE79      -0.0202
     56  CD1      -16.1940   36.0900  200.6850 C.ar   79  PHE79      -0.0042
     57  CD2      -15.0850   34.4220  202.0080 C.ar   79  PHE79      -0.0042
     58  CE1      -15.0950   36.9350  200.8280 C.ar   79  PHE79      -0.0003
     59  CE2      -13.9840   35.2620  202.1540 C.ar   79  PHE79      -0.0003
     60  CZ       -13.9890   36.5200  201.5630 C.ar   79  PHE79      -0.0000
     61  N        -20.2760   32.5740  202.3750 N.am   80  SER80      -0.1952
     62  CA       -21.2430   31.5280  202.0080 C.3    80  SER80       0.1924
     63  C        -22.6910   31.9890  201.8240 C.2    80  SER80       0.2314
     64  O        -23.5260   31.2250  201.3160 O.2    80  SER80      -0.2863
     65  CB       -21.2360   30.4390  203.0690 C.3    80  SER80       0.2116
     66  OG       -21.7380   30.9450  204.2960 O.3    80  SER80      -0.2180
     67  N        -11.8860   23.8670  198.7240 N.3   341  LEU341     -0.1245
     68  CA       -12.8810   22.8590  198.3230 C.3   341  LEU341      0.1561
     69  C        -13.4330   23.1310  196.9270 C.2   341  LEU341      0.2260
     70  O        -14.1790   24.0870  196.7310 O.2   341  LEU341     -0.2867
     71  CB       -14.0170   22.7730  199.3440 C.3   341  LEU341      0.0270
     72  CG       -13.5980   22.5320  200.8010 C.3   341  LEU341      0.0019
     73  CD1      -14.8190   22.3490  201.6820 C.3   341  LEU341      0.0001
     74  CD2      -12.6710   21.3400  200.9520 C.3   341  LEU341      0.0001
     75  N        -15.6680   21.7690  195.0050 N.3   343  ASN343     -0.1225
     76  CA       -17.1200   21.7440  194.8100 C.3   343  ASN343      0.1785
     77  C        -17.8050   23.0500  195.2480 C.2   343  ASN343      0.2597
     78  O        -18.8600   23.4000  194.7220 O.2   343  ASN343     -0.2718
     79  CB       -17.7610   20.5100  195.4840 C.3   343  ASN343      0.1169
     80  CG       -17.6690   20.5310  197.0120 C.2   343  ASN343      0.2627
     81  OD1      -16.6810   20.9890  197.5840 O.2   343  ASN343     -0.2716
     82  ND2      -18.6980   20.0050  197.6770 N.am  343  ASN343     -0.0877
     83  N        -17.2050   23.7550  196.2050 N.am  344  LEU344     -0.1980
     84  CA       -17.6970   25.0690  196.6570 C.3   344  LEU344      0.1596
     85  C        -16.9430   26.2600  196.0570 C.2   344  LEU344      0.2287
     86  O        -17.4810   27.3640  195.9910 O.2   344  LEU344     -0.2864
     87  CB       -17.6200   25.1480  198.1770 C.3   344  LEU344      0.0297
     88  CG       -18.4810   24.1200  198.9100 C.3   344  LEU344      0.0022
     89  CD1      -17.9770   23.9570  200.3310 C.3   344  LEU344      0.0001
     90  CD2      -19.9490   24.5210  198.8960 C.3   344  LEU344      0.0001
     91  N        -21.5090   25.1650  192.8390 N.3   348  MET348     -0.1230
     92  CA       -22.4120   25.6790  193.8750 C.3   348  MET348      0.1702
     93  C        -22.5890   24.8010  195.1200 C.2   348  MET348      0.2593
     94  O        -23.3710   25.1380  196.0090 O.2   348  MET348     -0.2718
     95  CB       -23.7610   26.0720  193.2440 C.3   348  MET348      0.0401
     96  CG       -23.7340   27.4320  192.5340 C.3   348  MET348      0.0596
     97  SD       -23.0360   28.8090  193.4990 S.3   348  MET348     -0.1393
     98  CE       -23.8560   28.6200  195.0850 C.3   348  MET348      0.0692
     99  N        -21.8310   23.7110  195.2090 N.am  349  GLY349     -0.1942
    100  CA       -21.8540   22.8440  196.3860 C.3   349  GLY349      0.2014
    101  C        -22.8180   21.6970  196.1780 C.2   349  GLY349      0.2638
    102  O        -23.0620   21.2920  195.0420 O.2   349  GLY349     -0.2714
    103  N        -23.3670   21.1720  197.2670 N.am  350  HIS350     -0.1973
    104  CA       -24.2800   20.0340  197.1830 C.3   350  HIS350      0.1656
    105  C        -25.6620   20.4340  196.6690 C.2   350  HIS350      0.2291
    106  O        -26.0980   21.5670  196.8800 O.2   350  HIS350     -0.2864
    107  CB       -24.4410   19.3600  198.5400 C.3   350  HIS350      0.0771
    108  CG       -23.2010   18.6920  199.0490 C.ar  350  HIS350      0.0820
    109  ND1      -22.1410   18.3340  198.2400 N.ar  350  HIS350     -0.2267
    110  CD2      -22.8750   18.2830  200.2960 C.ar  350  HIS350      0.1154
    111  CE1      -21.2110   17.7520  198.9730 C.ar  350  HIS350      0.1986
    112  NE2      -21.6360   17.7010  200.2220 N.ar  350  HIS350     -0.2212
    113  N        -28.6910   18.5210  201.1510 N.3   355  MET355     -0.1245
    114  CA       -28.8740   19.4220  202.2840 C.3   355  MET355      0.1570
    115  C        -30.1790   19.1380  203.0380 C.2   355  MET355      0.2261
    116  O        -30.2290   19.2710  204.2680 O.2   355  MET355     -0.2867
    117  CB       -28.8530   20.8850  201.8260 C.3   355  MET355      0.0387
    118  CG       -27.6000   21.3390  201.0750 C.3   355  MET355      0.0595
    119  SD       -26.0160   20.8730  201.8140 S.3   355  MET355     -0.1393
    120  CE       -26.1490   21.7080  203.3900 C.3   355  MET355      0.0692
    121  N        -30.3240   19.0400  207.0270 N.3   359  PHE359     -0.1241
    122  CA       -31.0960   20.0320  207.7960 C.3   359  PHE359      0.1605
    123  C        -32.3600   19.4650  208.4430 C.2   359  PHE359      0.2264
    124  O        -32.8310   20.0080  209.4440 O.2   359  PHE359     -0.2867
    125  CB       -31.4610   21.2510  206.9370 C.3   359  PHE359      0.0534
    126  CG       -30.2790   22.0190  206.3940 C.ar  359  PHE359     -0.0203
    127  CD1      -28.9900   21.8830  206.9180 C.ar  359  PHE359     -0.0042
    128  CD2      -30.4760   22.9250  205.3600 C.ar  359  PHE359     -0.0042
    129  CE1      -27.9310   22.6070  206.3920 C.ar  359  PHE359     -0.0003
    130  CE2      -29.4200   23.6580  204.8390 C.ar  359  PHE359     -0.0003
    131  CZ       -28.1450   23.5000  205.3560 C.ar  359  PHE359     -0.0000
@<TRIPOS>BOND
     1    96    95    1
     2    96    97    1
     3    91    92    1
     4    95    92    1
     5    97    98    1
     6    92    93    1
     7    78    77    2
     8    76    75    1
     9    76    77    1
    10    76    79    1
    11   102   101    2
    12    93    99   am
    13    93    94    2
    14    99   100    1
    15    77    83   am
    16    79    80    1
    17    86    85    2
    18    85    84    1
    19   101   100    1
    20   101   103   am
    21    83    84    1
    22    84    87    1
    23   105   106    2
    24   105   104    1
    25    70    69    2
    26    69    68    1
    27    80    81    2
    28    80    82   am
    29   104   103    1
    30   104   107    1
    31    34    32   ar
    32    87    88    1
    33   109   111   ar
    34   109   108   ar
    35    68    67    1
    36    68    71    1
    37   107   108    1
    38    32    33   ar
    39    32    31    1
    40    90    88    1
    41    88    89    1
    42   111   112   ar
    43   108   110   ar
    44    71    72    1
    45    31    30    1
    46   112   110   ar
    47    53    52    2
    48    26    27    1
    49    56    58   ar
    50    56    55   ar
    51    72    74    1
    52    72    73    1
    53    58    60   ar
    54   118   119    1
    55   118   117    1
    56    54    55    1
    57    54    51    1
    58   113   114    1
    59    30    27    1
    60    23    25    1
    61    23    20    1
    62    23    24    1
    63    55    57   ar
    64    64    63    2
    65    27    28    1
    66    21    20    1
    67    21    22    2
    68    52    51    1
    69    52    61   am
    70    20    19    1
    71    60    59   ar
    72   119   120    1
    73    63    62    1
    74   117   114    1
    75    51    50    1
    76    62    61    1
    77    62    65    1
    78    57    59   ar
    79   114   115    1
    80    28    35   am
    81    28    29    2
    82   115   116    2
    83    65    66    1
    84    35    36    1
    85    48    47    2
    86    36    37    1
    87    36    39    1
    88   130   131   ar
    89   130   128   ar
    90    13    14    1
    91    13    10    1
    92    37    38    2
    93    40    39    1
    94    39    41    1
    95    12    11    2
    96    47    49   am
    97    47    46    1
    98    14    15   ar
    99    14    16   ar
   100    11    10    1
   101   131   129   ar
   102   128   126   ar
   103    15    17   ar
   104    16    18   ar
   105    10     9    1
   106    17    18   ar
   107    45    44    2
   108    46    43    1
   109    44    43    1
   110   129   127   ar
   111   126   127   ar
   112   126   125    1
   113   125   122    1
   114   121   122    1
   115    43    42    1
   116     9     3   am
   117   122   123    1
   118     4     3    2
   119     7     6    1
   120     3     2    1
   121     6     8    1
   122     6     5    1
   123   123   124    2
   124     2     5    1
   125     2     1    1
