@<TRIPOS>MOLECULE
tmp/5w4cA01.pdb
 75 74 0 0 0
SMALL
GASTEIGER

@<TRIPOS>ATOM
      1  N         12.6510    3.1060   -2.3540 N.3    62  THR62      -0.1203
      2  CA        12.8150    1.7330   -2.8160 C.3    62  THR62       0.1994
      3  C         12.2040    1.4910   -4.1920 C.2    62  THR62       0.2619
      4  O         12.1590    0.3430   -4.6380 O.2    62  THR62      -0.2717
      5  CB        12.2420    0.7340   -1.8130 C.3    62  THR62       0.1784
      6  OG1       10.8160    0.7300   -1.8850 O.3    62  THR62      -0.2211
      7  CG2       12.6990    1.0540   -0.3980 C.3    62  THR62       0.0376
      8  N         11.7660    2.5330   -4.8960 N.am   63  THR63      -0.1938
      9  CA        11.2990    2.3570   -6.2700 C.3    63  THR63       0.2028
     10  C         12.2030    3.1280   -7.2160 C.2    63  THR63       0.2642
     11  O         13.1460    3.8080   -6.8000 O.2    63  THR63      -0.2714
     12  CB         9.8420    2.7950   -6.4620 C.3    63  THR63       0.1808
     13  OG1        9.3740    2.2910   -7.7230 O.3    63  THR63      -0.2208
     14  CG2        9.7090    4.3380   -6.4780 C.3    63  THR63       0.0379
     15  N         11.9080    3.0140   -8.5070 N.am   64  THR64      -0.1950
     16  CA        12.6660    3.7710   -9.4920 C.3    64  THR64       0.1897
     17  C         11.8600    4.9730   -9.9960 C.2    64  THR64       0.2313
     18  O         11.6530    5.9460   -9.2630 O.2    64  THR64      -0.2863
     19  CB        13.0750    2.8300  -10.6240 C.3    64  THR64       0.1794
     20  OG1       11.9400    2.0510  -11.0120 O.3    64  THR64      -0.2208
     21  CG2       14.1300    1.8770  -10.1050 C.3    64  THR64       0.0378
     22  N         14.4920  -12.3470   -2.6550 N.3   150  TRP150     -0.1227
     23  CA        13.8130  -11.0650   -2.5350 C.3   150  TRP150      0.1737
     24  C         14.4600  -10.0530   -3.4700 C.2   150  TRP150      0.2595
     25  O         15.6850   -9.8990   -3.4900 O.2   150  TRP150     -0.2718
     26  CB        13.8560  -10.5650   -1.0980 C.3   150  TRP150      0.0564
     27  CG        13.2790   -9.1870   -0.9060 C.ar  150  TRP150      0.0003
     28  CD1       13.9620   -8.0650   -0.5400 C.ar  150  TRP150      0.0946
     29  CD2       11.9020   -8.7930   -1.0370 C.ar  150  TRP150      0.0152
     30  NE1       13.0980   -6.9940   -0.4370 N.ar  150  TRP150     -0.2442
     31  CE2       11.8300   -7.4130   -0.7390 C.ar  150  TRP150      0.0810
     32  CE3       10.7250   -9.4690   -1.3810 C.ar  150  TRP150      0.0012
     33  CZ2       10.6390   -6.7030   -0.7690 C.ar  150  TRP150      0.0191
     34  CZ3        9.5380   -8.7570   -1.4110 C.ar  150  TRP150      0.0001
     35  CH2        9.5060   -7.3870   -1.1130 C.ar  150  TRP150      0.0015
     36  N         13.6290   -9.3900   -4.2700 N.am  151  GLN151     -0.1979
     37  CA        14.0360   -8.4860   -5.3410 C.3   151  GLN151      0.1601
     38  C         14.8960   -9.1670   -6.3860 C.2   151  GLN151      0.2287
     39  O         15.4930   -8.4920   -7.2310 O.2   151  GLN151     -0.2864
     40  CB        14.7450   -7.2420   -4.7940 C.3   151  GLN151      0.0394
     41  CG        13.7940   -6.2760   -4.0920 C.3   151  GLN151      0.0908
     42  CD        12.4260   -6.2070   -4.7510 C.2   151  GLN151      0.2608
     43  OE1       12.3090   -6.0400   -5.9700 O.2   151  GLN151     -0.2717
     44  NE2       11.3780   -6.3440   -3.9440 N.am  151  GLN151     -0.0878
     45  N          8.6510  -10.2860   -5.3370 N.3   155  SER155     -0.1202
     46  CA         8.2690   -8.8880   -5.3140 C.3   155  SER155      0.2020
     47  C          7.0370   -8.7240   -4.4330 C.2   155  SER155      0.2619
     48  O          6.3620   -9.6970   -4.0760 O.2   155  SER155     -0.2717
     49  CB         7.9950   -8.3620   -6.7400 C.3   155  SER155      0.2103
     50  OG         7.3990   -7.0660   -6.7340 O.3   155  SER155     -0.2182
     51  N          6.7600   -7.4670   -4.0650 N.am  156  ALA156     -0.1965
     52  CA         5.5330   -7.1180   -3.3620 C.3   156  ALA156      0.1728
     53  C          4.7880   -5.9840   -4.0520 C.2   156  ALA156      0.2616
     54  O          3.8790   -5.3970   -3.4560 O.2   156  ALA156     -0.2715
     55  CB         5.8210   -6.7530   -1.9040 C.3   156  ALA156      0.0334
     56  N          5.1330   -5.6690   -5.2940 N.am  157  CYS157     -0.1968
     57  CA         4.3600   -4.7080   -6.0720 C.3   157  CYS157      0.1712
     58  C          4.3150   -5.1900   -7.5200 C.2   157  CYS157      0.2296
     59  O          5.2760   -5.0010   -8.2770 O.2   157  CYS157     -0.2864
     60  CB         4.9470   -3.3060   -5.9740 C.3   157  CYS157      0.0983
     61  SG         4.0020   -2.1890   -6.9880 S.3   157  CYS157     -0.0798
     62  N          4.4980   -2.4940  -10.0910 N.3   160  CYS160     -0.1221
     63  CA         5.8330   -1.9060  -10.1750 C.3   160  CYS160      0.1808
     64  C          6.7950   -2.7740  -10.9670 C.2   160  CYS160      0.2601
     65  O          7.6280   -2.2550  -11.7140 O.2   160  CYS160     -0.2717
     66  CB         6.4140   -1.6830   -8.7800 C.3   160  CYS160      0.0970
     67  SG         5.3490   -0.7990   -7.6410 S.3   160  CYS160     -0.0800
     68  N          6.7330   -4.0890  -10.7860 N.am  161  ASP161     -0.1973
     69  CA         7.7690   -4.9730  -11.2900 C.3   161  ASP161      0.1709
     70  C          7.2950   -5.8340  -12.4470 C.2   161  ASP161      0.2293
     71  O          8.1120   -6.5410  -13.0440 O.2   161  ASP161     -0.2864
     72  CB         8.3020   -5.8570  -10.1510 C.3   161  ASP161      0.1436
     73  CG         9.0930   -5.0640   -9.1090 C.2   161  ASP161      0.3671
     74  OD1        9.5190   -3.9310   -9.4260 O.co2 161  ASP161     -0.2456
     75  OD2        9.2950   -5.5730   -7.9760 O.co2 161  ASP161     -0.2456
@<TRIPOS>BOND
     1    71    70    2
     2    70    69    1
     3    65    64    2
     4    69    68    1
     5    69    72    1
     6    20    19    1
     7    64    68   am
     8    64    63    1
     9    19    21    1
    10    19    16    1
    11    63    62    1
    12    63    66    1
    13    72    73    1
    14    17    16    1
    15    17    18    2
    16    16    15    1
    17    74    73   ar
    18    73    75   ar
    19    66    67    1
    20    15    10   am
    21    59    58    2
    22    13    12    1
    23    67    61    1
    24    58    57    1
    25    39    38    2
    26    10    11    2
    27    10     9    1
    28    61    60    1
    29    49    50    1
    30    49    46    1
    31    14    12    1
    32    12     9    1
    33    38    37    1
    34     9     8    1
    35    57    60    1
    36    57    56    1
    37    43    42    2
    38    37    40    1
    39    37    36    1
    40    45    46    1
    41    46    47    1
    42    56    53   am
    43     8     3   am
    44    40    41    1
    45    42    41    1
    46    42    44   am
    47     4     3    2
    48    47    48    2
    49    47    51   am
    50    36    24   am
    51     3     2    1
    52    51    52    1
    53    53    54    2
    54    53    52    1
    55    25    24    2
    56    24    23    1
    57    52    55    1
    58     2     1    1
    59     2     5    1
    60    22    23    1
    61    23    26    1
    62     6     5    1
    63     5     7    1
    64    34    32   ar
    65    34    35   ar
    66    32    29   ar
    67    35    33   ar
    68    26    27    1
    69    29    27   ar
    70    29    31   ar
    71    27    28   ar
    72    33    31   ar
    73    31    30   ar
    74    28    30   ar
