@<TRIPOS>MOLECULE
tmp/5w4dA02.pdb
 99 95 0 0 0
SMALL
GASTEIGER

@<TRIPOS>ATOM
      1  N        -52.7320   -2.7400   -6.9850 N.3    42  TYR42      -0.1241
      2  CA       -53.7550   -2.4890   -5.9850 C.3    42  TYR42       0.1605
      3  C        -53.1810   -2.4990   -4.5680 C.2    42  TYR42       0.2264
      4  O        -53.4680   -1.6060   -3.7660 O.2    42  TYR42      -0.2867
      5  CB       -54.8520   -3.5450   -6.1320 C.3    42  TYR42       0.0534
      6  CG       -56.0960   -3.3190   -5.2910 C.ar   42  TYR42      -0.0201
      7  CD1      -56.9350   -2.2420   -5.5460 C.ar   42  TYR42      -0.0009
      8  CD2      -56.4730   -4.2140   -4.2910 C.ar   42  TYR42      -0.0009
      9  CE1      -58.0770   -2.0360   -4.8190 C.ar   42  TYR42       0.0417
     10  CE2      -57.6600   -4.0010   -3.5460 C.ar   42  TYR42       0.0417
     11  CZ       -58.4460   -2.9210   -3.8250 C.ar   42  TYR42       0.1957
     12  OH       -59.6270   -2.7310   -3.1230 O.3    42  TYR42      -0.2866
     13  N        -59.5880   -3.0660   -8.7550 N.3    50  LYS50      -0.1231
     14  CA       -59.4390   -4.3150   -8.0050 C.3    50  LYS50       0.1678
     15  C        -58.8970   -5.4310   -8.9030 C.2    50  LYS50       0.2434
     16  O        -59.2800   -5.5370  -10.0760 O.2    50  LYS50      -0.2733
     17  CB       -60.7760   -4.7630   -7.4130 C.3    50  LYS50       0.0284
     18  CG       -61.3490   -3.8640   -6.3480 C.3    50  LYS50       0.0035
     19  CD       -62.3810   -2.9160   -6.9130 C.3    50  LYS50       0.0206
     20  CE       -63.7690   -3.3170   -6.4580 C.3    50  LYS50       0.1093
     21  NZ       -64.8130   -2.5910   -7.2200 N.3    50  LYS50      -0.1314
     22  N        -58.0290   -6.2960   -8.3830 N.am   51  PRO51      -0.2729
     23  CA       -57.6240   -7.4790   -9.1550 C.3    51  PRO51       0.1401
     24  C        -58.7560   -8.4880   -9.2330 C.2    51  PRO51       0.2269
     25  O        -59.6650   -8.5280   -8.4000 O.2    51  PRO51      -0.2865
     26  CB       -56.4340   -8.0500   -8.3710 C.3    51  PRO51       0.0296
     27  CG       -56.6410   -7.5450   -6.9690 C.3    51  PRO51       0.0237
     28  CD       -57.3310   -6.2150   -7.0890 C.3    51  PRO51       0.0939
     29  N        -60.1000  -12.5350   -9.3130 N.3    53  VAL53      -0.1245
     30  CA       -59.7250  -13.7970   -8.6690 C.3    53  VAL53       0.1561
     31  C        -58.5980  -14.4930   -9.4440 C.2    53  VAL53       0.2260
     32  O        -57.6380  -15.0230   -8.8610 O.2    53  VAL53      -0.2867
     33  CB       -60.9720  -14.7010   -8.5490 C.3    53  VAL53       0.0252
     34  CG1      -60.5880  -16.0860   -8.0550 C.3    53  VAL53       0.0019
     35  CG2      -62.0120  -14.0490   -7.6390 C.3    53  VAL53       0.0019
     36  N        -55.2120  -13.1610   -8.7100 N.3    56  ILE56      -0.1245
     37  CA       -54.6860  -13.6120   -7.4250 C.3    56  ILE56       0.1561
     38  C        -54.1060  -15.0130   -7.5540 C.2    56  ILE56       0.2260
     39  O        -52.9930  -15.2910   -7.0750 O.2    56  ILE56      -0.2867
     40  CB       -55.7890  -13.5480   -6.3630 C.3    56  ILE56       0.0252
     41  CG1      -56.1570  -12.0840   -6.1180 C.3    56  ILE56       0.0019
     42  CG2      -55.3100  -14.1740   -5.0770 C.3    56  ILE56       0.0019
     43  CD1      -57.4850  -11.9110   -5.5230 C.3    56  ILE56       0.0001
     44  N        -57.6650  -17.0610    2.5180 N.3    78  LEU78      -0.1245
     45  CA       -58.5620  -16.2280    1.7180 C.3    78  LEU78       0.1561
     46  C        -59.9970  -16.7040    1.8100 C.2    78  LEU78       0.2260
     47  O        -60.9200  -15.9130    1.5940 O.2    78  LEU78      -0.2867
     48  CB       -58.0980  -16.1990    0.2500 C.3    78  LEU78       0.0270
     49  CG       -56.7910  -15.4390    0.0150 C.3    78  LEU78       0.0019
     50  CD1      -56.2860  -15.6930   -1.3850 C.3    78  LEU78       0.0001
     51  CD2      -57.0120  -13.9840    0.2250 C.3    78  LEU78       0.0001
     52  N        -64.1810  -19.1630   -1.0150 N.3    81  ASP81      -0.1225
     53  CA       -64.1290  -18.8660   -2.4400 C.3    81  ASP81       0.1805
     54  C        -63.0090  -19.6210   -3.1520 C.2    81  ASP81       0.2597
     55  O        -63.0760  -19.8420   -4.3670 O.2    81  ASP81      -0.2718
     56  CB       -63.9420  -17.3690   -2.6720 C.3    81  ASP81       0.1424
     57  CG       -65.2120  -16.5580   -2.4020 C.2    81  ASP81       0.3668
     58  OD1      -66.3200  -17.1190   -2.4560 O.co2  81  ASP81      -0.2456
     59  OD2      -65.1030  -15.3380   -2.1600 O.co2  81  ASP81      -0.2456
     60  N        -61.9530  -19.9860   -2.4270 N.am   82  PHE82      -0.1976
     61  CA       -60.7590  -20.5610   -3.0300 C.3    82  PHE82       0.1639
     62  C        -60.6210  -22.0520   -2.7370 C.2    82  PHE82       0.2290
     63  O        -59.5890  -22.6510   -3.0750 O.2    82  PHE82      -0.2864
     64  CB       -59.5260  -19.7900   -2.5470 C.3    82  PHE82       0.0560
     65  CG       -59.4740  -18.3820   -3.0620 C.ar   82  PHE82      -0.0200
     66  CD1      -60.0690  -17.3730   -2.3560 C.ar   82  PHE82      -0.0042
     67  CD2      -58.8790  -18.0880   -4.2810 C.ar   82  PHE82      -0.0042
     68  CE1      -60.0650  -16.0600   -2.8230 C.ar   82  PHE82      -0.0003
     69  CE2      -58.8540  -16.7670   -4.7630 C.ar   82  PHE82      -0.0003
     70  CZ       -59.4580  -15.7620   -4.0340 C.ar   82  PHE82      -0.0000
     71  N        -56.5990   -5.8880    2.4890 N.3   170  LYS170     -0.1231
     72  CA       -56.9330   -5.2450    1.2170 C.3   170  LYS170      0.1693
     73  C        -57.7770   -6.1600    0.3410 C.2   170  LYS170      0.2592
     74  O        -58.8140   -5.7330   -0.2010 O.2   170  LYS170     -0.2718
     75  CB       -55.6420   -4.8450    0.5060 C.3   170  LYS170      0.0285
     76  CG       -54.9480   -3.6340    1.0890 C.3   170  LYS170      0.0035
     77  CD       -55.6720   -2.3340    0.6990 C.3   170  LYS170      0.0206
     78  CE       -55.6470   -2.1540   -0.7980 C.3   170  LYS170      0.1093
     79  NZ       -55.7840   -0.7530   -1.2400 N.3   170  LYS170     -0.1314
     80  N        -57.3420   -7.4180    0.1770 N.am  171  ILE171     -0.1966
     81  CA       -57.9830   -8.3330   -0.7530 C.3   171  ILE171      0.1727
     82  C        -59.3380   -8.7900   -0.2200 C.2   171  ILE171      0.2616
     83  O        -60.2710   -9.0000   -1.0100 O.2   171  ILE171     -0.2715
     84  CB       -57.0600   -9.5370   -1.0730 C.3   171  ILE171      0.0290
     85  CG1      -55.8210   -9.0760   -1.8370 C.3   171  ILE171      0.0022
     86  CG2      -57.8450  -10.6860   -1.7870 C.3   171  ILE171      0.0023
     87  CD1      -56.1220   -8.2270   -3.0840 C.3   171  ILE171      0.0001
     88  N        -59.4850   -8.9390    1.0990 N.am  172  LEU172     -0.1963
     89  CA       -60.7220   -9.4490    1.6870 C.3   172  LEU172      0.1728
     90  C        -61.6770   -8.3340    2.1000 C.2   172  LEU172      0.2616
     91  O        -62.7750   -8.6230    2.6080 O.2   172  LEU172     -0.2715
     92  CB       -60.4190  -10.3500    2.9000 C.3   172  LEU172      0.0311
     93  CG       -59.6400  -11.6150    2.5360 C.3   172  LEU172      0.0022
     94  CD1      -59.2450  -12.3790    3.7810 C.3   172  LEU172      0.0001
     95  CD2      -60.4510  -12.4990    1.5620 C.3   172  LEU172      0.0001
     96  N        -61.2880   -7.0820    1.9080 N.am  173  GLY173     -0.1955
     97  CA       -62.1540   -5.9490    2.2420 C.3   173  GLY173      0.1869
     98  C        -62.4470   -5.7990    3.7290 C.2   173  GLY173      0.2309
     99  O        -63.5980   -5.4890    4.1140 O.2   173  GLY173     -0.2863
@<TRIPOS>BOND
     1    16    15    2
     2    31    32    2
     3    31    30    1
     4    29    30    1
     5    24    23    1
     6    24    25    2
     7    23    22    1
     8    23    26    1
     9    15    22   am
    10    15    14    1
    11    13    14    1
    12    36    37    1
    13    30    33    1
    14    33    34    1
    15    33    35    1
    16    22    28    1
    17    26    27    1
    18    14    17    1
    19    38    37    1
    20    38    39    2
    21    37    40    1
    22    17    18    1
    23    21    20    1
    24    28    27    1
    25     1     2    1
    26    19    20    1
    27    19    18    1
    28    40    41    1
    29    40    42    1
    30     5     2    1
    31     5     6    1
    32    41    43    1
    33     2     3    1
    34     7     6   ar
    35     7     9   ar
    36     6     8   ar
    37     9    11   ar
    38    69    67   ar
    39    69    70   ar
    40     3     4    2
    41    55    54    2
    42     8    10   ar
    43    67    65   ar
    44    70    68   ar
    45    11    10   ar
    46    11    12    1
    47    54    53    1
    48    54    60   am
    49    87    85    1
    50    63    62    2
    51    65    64    1
    52    65    66   ar
    53    61    62    1
    54    61    64    1
    55    61    60    1
    56    68    66   ar
    57    56    53    1
    58    56    57    1
    59    58    57   ar
    60    53    52    1
    61    57    59   ar
    62    85    84    1
    63    86    84    1
    64    50    49    1
    65    79    78    1
    66    84    81    1
    67    83    82    2
    68    78    77    1
    69    81    82    1
    70    81    80    1
    71    82    88   am
    72    74    73    2
    73    49    51    1
    74    49    48    1
    75    80    73   am
    76    48    45    1
    77    73    72    1
    78    75    76    1
    79    75    72    1
    80    77    76    1
    81    88    89    1
    82    72    71    1
    83    95    93    1
    84    47    46    2
    85    89    90    1
    86    89    92    1
    87    45    46    1
    88    45    44    1
    89    96    90   am
    90    96    97    1
    91    90    91    2
    92    97    98    1
    93    93    92    1
    94    93    94    1
    95    98    99    2
