@<TRIPOS>MOLECULE
tmp/5w4dC01.pdb
 99 95 0 0 0
SMALL
GASTEIGER

@<TRIPOS>ATOM
      1  N        -47.2660  -23.1700   47.0840 N.3    45  TYR45      -0.1241
      2  CA       -48.4200  -23.5830   46.2930 C.3    45  TYR45       0.1605
      3  C        -48.1080  -23.5630   44.7980 C.2    45  TYR45       0.2264
      4  O        -48.4170  -24.5200   44.0780 O.2    45  TYR45      -0.2867
      5  CB       -49.6090  -22.6780   46.5980 C.3    45  TYR45       0.0534
      6  CG       -50.9010  -23.1170   45.9670 C.ar   45  TYR45      -0.0201
      7  CD1      -51.5400  -24.2570   46.4150 C.ar   45  TYR45      -0.0009
      8  CD2      -51.4930  -22.3820   44.9500 C.ar   45  TYR45      -0.0009
      9  CE1      -52.7390  -24.6660   45.8820 C.ar   45  TYR45       0.0417
     10  CE2      -52.7020  -22.7940   44.3890 C.ar   45  TYR45       0.0417
     11  CZ       -53.3140  -23.9370   44.8700 C.ar   45  TYR45       0.1957
     12  OH       -54.5110  -24.3600   44.3570 O.3    45  TYR45      -0.2866
     13  N        -53.6880  -23.4760   49.7040 N.3    53  LYS53      -0.1231
     14  CA       -53.8060  -22.2440   48.9350 C.3    53  LYS53       0.1678
     15  C        -53.3370  -21.0460   49.7650 C.2    53  LYS53       0.2434
     16  O        -53.6400  -20.9510   50.9610 O.2    53  LYS53      -0.2733
     17  CB       -55.2560  -22.0260   48.4930 C.3    53  LYS53       0.0284
     18  CG       -55.7580  -23.0230   47.4640 C.3    53  LYS53       0.0035
     19  CD       -57.2550  -22.8800   47.2460 C.3    53  LYS53       0.0206
     20  CE       -57.8090  -24.0180   46.3940 C.3    53  LYS53       0.1093
     21  NZ       -59.2420  -23.8170   46.0460 N.3    53  LYS53      -0.1314
     22  N        -52.6030  -20.1130   49.1720 N.am   54  PRO54      -0.2729
     23  CA       -52.2650  -18.8910   49.9050 C.3    54  PRO54       0.1401
     24  C        -53.4910  -18.0130   50.1020 C.2    54  PRO54       0.2269
     25  O        -54.4530  -18.0450   49.3330 O.2    54  PRO54      -0.2865
     26  CB       -51.2380  -18.2020   49.0030 C.3    54  PRO54       0.0296
     27  CG       -51.6030  -18.6800   47.6220 C.3    54  PRO54       0.0237
     28  CD       -52.0220  -20.1110   47.8130 C.3    54  PRO54       0.0939
     29  N        -55.2550  -14.0880   50.3290 N.3    56  VAL56      -0.1245
     30  CA       -55.1220  -12.7710   49.7030 C.3    56  VAL56       0.1561
     31  C        -53.9540  -12.0150   50.3290 C.2    56  VAL56       0.2260
     32  O        -53.1230  -11.4240   49.6230 O.2    56  VAL56      -0.2867
     33  CB       -56.4510  -11.9960   49.8300 C.3    56  VAL56       0.0252
     34  CG1      -56.3050  -10.5170   49.4690 C.3    56  VAL56       0.0019
     35  CG2      -57.5210  -12.6330   48.9600 C.3    56  VAL56       0.0019
     36  N        -50.5290  -13.1990   49.1810 N.3    59  ILE59      -0.1245
     37  CA       -50.2310  -12.7700   47.8210 C.3    59  ILE59       0.1561
     38  C        -49.8500  -11.3000   47.8110 C.2    59  ILE59       0.2260
     39  O        -48.8640  -10.9140   47.1780 O.2    59  ILE59      -0.2867
     40  CB       -51.4430  -13.0580   46.9250 C.3    59  ILE59       0.0252
     41  CG1      -51.5820  -14.5700   46.7370 C.3    59  ILE59       0.0019
     42  CG2      -51.2940  -12.3480   45.5610 C.3    59  ILE59       0.0019
     43  CD1      -52.9360  -14.9800   46.1870 C.3    59  ILE59       0.0001
     44  N        -55.7610  -10.1250   38.8520 N.3    81  LEU81      -0.1245
     45  CA       -56.2480  -11.0690   39.8560 C.3    81  LEU81       0.1561
     46  C        -57.6960  -10.8190   40.2550 C.2    81  LEU81       0.2260
     47  O        -58.2750  -11.6330   40.9870 O.2    81  LEU81      -0.2867
     48  CB       -55.3810  -11.0160   41.1050 C.3    81  LEU81       0.0270
     49  CG       -53.9690  -11.5860   40.9440 C.3    81  LEU81       0.0019
     50  CD1      -53.1420  -11.3560   42.1840 C.3    81  LEU81       0.0001
     51  CD2      -54.0350  -13.0880   40.6170 C.3    81  LEU81       0.0001
     52  N        -61.1780   -9.5120   44.3220 N.3    84  ASP84      -0.1225
     53  CA       -60.7010   -9.5430   45.7060 C.3    84  ASP84       0.1805
     54  C        -59.4790   -8.6570   45.9390 C.2    84  ASP84       0.2597
     55  O        -59.0000   -8.5920   47.0820 O.2    84  ASP84      -0.2718
     56  CB       -60.3550  -10.9750   46.1270 C.3    84  ASP84       0.1424
     57  CG       -61.5670  -11.8960   46.1330 C.2    84  ASP84       0.3668
     58  OD1      -62.7110  -11.3930   46.1460 O.co2  84  ASP84      -0.2456
     59  OD2      -61.3660  -13.1260   46.1310 O.co2  84  ASP84      -0.2456
     60  N        -58.9790   -7.9770   44.9020 N.am   85  PHE85      -0.1976
     61  CA       -57.7360   -7.2260   44.9950 C.3    85  PHE85       0.1639
     62  C        -57.9130   -5.7580   44.6270 C.2    85  PHE85       0.2290
     63  O        -56.9430   -4.9910   44.7050 O.2    85  PHE85      -0.2864
     64  CB       -56.6740   -7.8950   44.1050 C.3    85  PHE85       0.0560
     65  CG       -56.2720   -9.2680   44.5870 C.ar   85  PHE85      -0.0200
     66  CD1      -56.9460  -10.3950   44.1460 C.ar   85  PHE85      -0.0042
     67  CD2      -55.2190   -9.4320   45.4850 C.ar   85  PHE85      -0.0042
     68  CE1      -56.5790  -11.6640   44.5880 C.ar   85  PHE85      -0.0003
     69  CE2      -54.8480  -10.7090   45.9350 C.ar   85  PHE85      -0.0003
     70  CZ       -55.5340  -11.8270   45.4690 C.ar   85  PHE85      -0.0000
     71  N        -52.7170  -21.0860   38.2440 N.3   166  LYS166     -0.1231
     72  CA       -52.7760  -21.7370   39.5580 C.3   166  LYS166      0.1693
     73  C        -53.6120  -20.9270   40.5440 C.2   166  LYS166      0.2592
     74  O        -54.5030  -21.4660   41.2150 O.2   166  LYS166     -0.2718
     75  CB       -51.3530  -21.9210   40.1110 C.3   166  LYS166      0.0285
     76  CG       -50.5550  -22.9710   39.4190 C.3   166  LYS166      0.0035
     77  CD       -51.0270  -24.3680   39.7830 C.3   166  LYS166      0.0206
     78  CE       -50.8700  -24.6280   41.2650 C.3   166  LYS166      0.1093
     79  NZ       -50.8160  -26.0910   41.5630 N.3   166  LYS166     -0.1314
     80  N        -53.3330  -19.6190   40.6600 N.am  167  ILE167     -0.1966
     81  CA       -53.9990  -18.8110   41.6800 C.3   167  ILE167      0.1727
     82  C        -55.4690  -18.5680   41.3690 C.2   167  ILE167      0.2616
     83  O        -56.2940  -18.4720   42.2940 O.2   167  ILE167     -0.2715
     84  CB       -53.2310  -17.4770   41.8470 C.3   167  ILE167      0.0290
     85  CG1      -51.8250  -17.7550   42.3640 C.3   167  ILE167      0.0022
     86  CG2      -54.0180  -16.4980   42.7140 C.3   167  ILE167      0.0023
     87  CD1      -51.7710  -18.4860   43.7200 C.3   167  ILE167      0.0001
     88  N        -55.8310  -18.4470   40.0950 N.am  168  LEU168     -0.1963
     89  CA       -57.1990  -18.1370   39.7080 C.3   168  LEU168      0.1728
     90  C        -58.0080  -19.4030   39.4450 C.2   168  LEU168      0.2616
     91  O        -59.1940  -19.3110   39.1450 O.2   168  LEU168     -0.2715
     92  CB       -57.2170  -17.2320   38.4680 C.3   168  LEU168      0.0311
     93  CG       -56.5800  -15.8370   38.6710 C.3   168  LEU168      0.0022
     94  CD1      -56.5640  -15.1170   37.3480 C.3   168  LEU168      0.0001
     95  CD2      -57.3500  -15.0320   39.7170 C.3   168  LEU168      0.0001
     96  N        -57.3800  -20.5650   39.5210 N.am  169  GLY169     -0.1955
     97  CA       -58.0930  -21.8130   39.3050 C.3   169  GLY169      0.1869
     98  C        -58.5700  -21.9990   37.8820 C.2   169  GLY169      0.2309
     99  O        -59.7080  -22.4390   37.6550 O.2   169  GLY169     -0.2863
@<TRIPOS>BOND
     1    94    93    1
     2    99    98    2
     3    98    97    1
     4    71    72    1
     5    92    93    1
     6    92    89    1
     7    93    95    1
     8    44    45    1
     9    91    90    2
    10    97    96    1
    11    76    77    1
    12    76    75    1
    13    90    96   am
    14    90    89    1
    15    72    75    1
    16    72    73    1
    17    89    88    1
    18    77    78    1
    19    45    46    1
    20    45    48    1
    21    88    82   am
    22    46    47    2
    23    73    80   am
    24    73    74    2
    25    51    49    1
    26    80    81    1
    27    49    48    1
    28    49    50    1
    29    78    79    1
    30    82    81    1
    31    82    83    2
    32    81    84    1
    33    84    85    1
    34    84    86    1
    35    85    87    1
    36     4     3    2
    37    64    65    1
    38    64    61    1
    39    66    65   ar
    40    66    68   ar
    41    52    53    1
    42    12    11    1
    43    10    11   ar
    44    10     8   ar
    45    65    67   ar
    46    68    70   ar
    47    62    63    2
    48    62    61    1
    49     3     2    1
    50    11     9   ar
    51    60    61    1
    52    60    54   am
    53     8     6   ar
    54    70    69   ar
    55    67    69   ar
    56    42    40    1
    57    53    54    1
    58    53    56    1
    59     9     7   ar
    60    54    55    2
    61     6     7   ar
    62     6     5    1
    63    21    20    1
    64    56    57    1
    65    59    57   ar
    66    57    58   ar
    67    43    41    1
    68     2     5    1
    69     2     1    1
    70    20    19    1
    71    41    40    1
    72    40    37    1
    73    39    38    2
    74    19    18    1
    75    18    17    1
    76    27    28    1
    77    27    26    1
    78    38    37    1
    79    28    22    1
    80    37    36    1
    81    17    14    1
    82    14    13    1
    83    14    15    1
    84    35    33    1
    85    26    23    1
    86    22    15   am
    87    22    23    1
    88    25    24    2
    89    34    33    1
    90    32    31    2
    91    30    33    1
    92    30    29    1
    93    30    31    1
    94    15    16    2
    95    23    24    1
