@<TRIPOS>MOLECULE
tmp/5w4dB02.pdb
 84 76 0 0 0
SMALL
GASTEIGER

@<TRIPOS>ATOM
      1  N        -28.5180    4.8790   -0.1070 N.3     2  THR2       -0.1218
      2  CA       -28.1010    5.0960    1.2740 C.3     2  THR2        0.1862
      3  C        -26.6020    4.8710    1.4150 C.2     2  THR2        0.2287
      4  O        -25.9940    4.1160    0.6510 O.2     2  THR2       -0.2866
      5  CB       -28.8270    4.1600    2.2410 C.3     2  THR2        0.1770
      6  OG1      -28.3910    4.4310    3.5780 O.3     2  THR2       -0.2211
      7  CG2      -28.5360    2.6880    1.9000 C.3     2  THR2        0.0375
      8  N        -25.4680    3.6750    4.4310 N.3     4  LYS4       -0.1245
      9  CA       -25.3370    2.7380    5.5490 C.3     4  LYS4        0.1561
     10  C        -25.0430    1.3190    5.0510 C.2     4  LYS4        0.2260
     11  O        -25.5280    0.9160    3.9910 O.2     4  LYS4       -0.2867
     12  CB       -26.6340    2.7430    6.3600 C.3     4  LYS4        0.0271
     13  CG       -26.6050    1.9050    7.6270 C.3     4  LYS4        0.0035
     14  CD       -27.9730    1.9590    8.3050 C.3     4  LYS4        0.0206
     15  CE       -27.9060    1.6700    9.7930 C.3     4  LYS4        0.1093
     16  NZ       -29.2390    1.9600   10.4420 N.3     4  LYS4       -0.1314
     17  N        -25.9260   -2.2870    5.1370 N.3     6  GLU6       -0.1245
     18  CA       -27.1470   -2.9970    5.5030 C.3     6  GLU6        0.1567
     19  C        -27.1630   -4.3930    4.8750 C.2     6  GLU6        0.2260
     20  O        -26.9360   -4.5420    3.6670 O.2     6  GLU6       -0.2867
     21  CB       -28.3760   -2.2120    5.0300 C.3     6  GLU6        0.0388
     22  CG       -28.4780   -0.7890    5.6050 C.3     6  GLU6        0.1160
     23  CD       -29.8700   -0.1700    5.4670 C.2     6  GLU6        0.3649
     24  OE1      -29.9540    1.0420    5.1720 O.co2   6  GLU6       -0.2457
     25  OE2      -30.8770   -0.8920    5.6530 O.co2   6  GLU6       -0.2457
     26  N        -29.1050   -7.5420    3.3660 N.3     8  VAL8       -0.1245
     27  CA       -30.3530   -7.7080    2.6350 C.3     8  VAL8        0.1561
     28  C        -30.6250   -9.1880    2.4880 C.2     8  VAL8        0.2260
     29  O        -29.7250  -10.0320    2.6390 O.2     8  VAL8       -0.2867
     30  CB       -30.3410   -7.0360    1.2540 C.3     8  VAL8        0.0252
     31  CG1      -30.1150   -5.5400    1.4110 C.3     8  VAL8        0.0019
     32  CG2      -29.2900   -7.6330    0.3330 C.3     8  VAL8        0.0019
     33  N        -33.0100  -12.1140    0.0060 N.3    10  PHE10      -0.1241
     34  CA       -33.8940  -12.5070   -1.0880 C.3    10  PHE10       0.1605
     35  C        -34.1900  -13.9920   -0.9100 C.2    10  PHE10       0.2264
     36  O        -33.3120  -14.8200   -1.1040 O.2    10  PHE10      -0.2867
     37  CB       -33.2640  -12.2570   -2.4540 C.3    10  PHE10       0.0534
     38  CG       -32.8940  -10.8270   -2.7160 C.ar   10  PHE10      -0.0203
     39  CD1      -33.8280   -9.9200   -3.1630 C.ar   10  PHE10      -0.0042
     40  CD2      -31.5890  -10.3920   -2.5160 C.ar   10  PHE10      -0.0042
     41  CE1      -33.4600   -8.5950   -3.4170 C.ar   10  PHE10      -0.0003
     42  CE2      -31.2370   -9.0720   -2.7540 C.ar   10  PHE10      -0.0003
     43  CZ       -32.1540   -8.1910   -3.2070 C.ar   10  PHE10      -0.0000
     44  N        -25.3270   -8.7750   -2.8980 N.3    19  PRO19      -0.2116
     45  CA       -26.7860   -8.6310   -3.0790 C.3    19  PRO19       0.1372
     46  C        -27.2750   -8.9410   -4.4780 C.2    19  PRO19       0.2244
     47  O        -28.3300   -9.5720   -4.6230 O.2    19  PRO19      -0.2868
     48  CB       -27.0550   -7.1570   -2.7050 C.3    19  PRO19       0.0268
     49  CG       -25.7930   -6.4650   -2.8820 C.3    19  PRO19       0.0207
     50  CD       -24.7120   -7.5110   -2.4720 C.3    19  PRO19       0.0892
     51  N        -29.9580  -12.0700   -5.5940 N.3    23  LEU23      -0.1245
     52  CA       -31.1530  -11.8560   -6.4060 C.3    23  LEU23       0.1561
     53  C        -31.0640  -12.6000   -7.7310 C.2    23  LEU23       0.2260
     54  O        -32.0640  -13.1570   -8.2060 O.2    23  LEU23      -0.2867
     55  CB       -31.3700  -10.3640   -6.6430 C.3    23  LEU23       0.0270
     56  CG       -32.5980   -9.9820   -7.4590 C.3    23  LEU23       0.0019
     57  CD1      -33.8980  -10.5750   -6.8970 C.3    23  LEU23       0.0001
     58  CD2      -32.7210   -8.4850   -7.5040 C.3    23  LEU23       0.0001
     59  N        -27.2060    1.7720   -7.9450 N.3    68  ASP68      -0.1239
     60  CA       -27.3030    3.0300   -7.2240 C.3    68  ASP68       0.1674
     61  C        -26.1390    3.2050   -6.2420 C.2    68  ASP68       0.2266
     62  O        -25.2410    2.3640   -6.1300 O.2    68  ASP68      -0.2867
     63  CB       -28.6600    3.1420   -6.5130 C.3    68  ASP68       0.1410
     64  CG       -28.8660    2.1320   -5.4170 C.2    68  ASP68       0.3668
     65  OD1      -27.9110    1.4370   -5.0030 O.co2  68  ASP68      -0.2456
     66  OD2      -30.0370    2.0320   -4.9630 O.co2  68  ASP68      -0.2456
     67  N        -25.6940    3.1600   -2.9530 N.3    70  GLY70      -0.1210
     68  CA       -25.4310    2.1480   -1.9440 C.3    70  GLY70       0.1956
     69  C        -24.9360    0.8360   -2.5240 C.2    70  GLY70       0.2612
     70  O        -24.0750    0.1700   -1.9370 O.2    70  GLY70      -0.2717
     71  N        -25.4730    0.4350   -3.6780 N.am   71  THR71      -0.1952
     72  CA       -24.9730   -0.7710   -4.3370 C.3    71  THR71       0.1897
     73  C        -23.5120   -0.6140   -4.7180 C.2    71  THR71       0.2313
     74  O        -22.7020   -1.5370   -4.5190 O.2    71  THR71      -0.2863
     75  CB       -25.8190   -1.0820   -5.5820 C.3    71  THR71       0.1794
     76  OG1      -27.1640   -1.3930   -5.1720 O.3    71  THR71      -0.2208
     77  CG2      -25.2240   -2.2740   -6.3730 C.3    71  THR71       0.0378
     78  N        -21.3630   -0.6500   -1.4660 N.3    74  THR74      -0.1218
     79  CA       -21.3260   -2.0150   -0.9250 C.3    74  THR74       0.1862
     80  C        -20.4070   -2.9000   -1.7580 C.2    74  THR74       0.2287
     81  O        -19.5560   -3.6080   -1.2180 O.2    74  THR74      -0.2866
     82  CB       -22.7550   -2.5670   -0.8510 C.3    74  THR74       0.1770
     83  OG1      -23.5010   -1.7990    0.1010 O.3    74  THR74      -0.2211
     84  CG2      -22.7770   -4.0570   -0.4570 C.3    74  THR74       0.0375
@<TRIPOS>BOND
     1    54    53    2
     2    59    60    1
     3    53    52    1
     4    58    56    1
     5    56    57    1
     6    56    55    1
     7    60    63    1
     8    60    61    1
     9    55    52    1
    10    63    64    1
    11    52    51    1
    12    77    75    1
    13    61    62    2
    14    75    76    1
    15    75    72    1
    16    64    65   ar
    17    64    66   ar
    18    73    74    2
    19    73    72    1
    20    47    46    2
    21    46    45    1
    22    72    71    1
    23    71    69   am
    24    41    43   ar
    25    41    39   ar
    26    43    42   ar
    27    39    38   ar
    28    45    44    1
    29    45    48    1
    30    67    68    1
    31    44    50    1
    32    49    48    1
    33    49    50    1
    34    42    40   ar
    35    38    40   ar
    36    38    37    1
    37    69    68    1
    38    69    70    2
    39    37    34    1
    40    80    81    2
    41    80    79    1
    42    78    79    1
    43    36    35    2
    44    34    35    1
    45    34    33    1
    46    79    82    1
    47    82    84    1
    48    82    83    1
    49     1     2    1
    50    32    30    1
    51     4     3    2
    52    30    31    1
    53    30    27    1
    54     2     3    1
    55     2     5    1
    56     7     5    1
    57     5     6    1
    58    28    27    1
    59    28    29    2
    60    27    26    1
    61    20    19    2
    62    11    10    2
    63     8     9    1
    64    19    18    1
    65    21    18    1
    66    21    22    1
    67    10     9    1
    68    17    18    1
    69    24    23   ar
    70    23    22    1
    71    23    25   ar
    72     9    12    1
    73    12    13    1
    74    13    14    1
    75    14    15    1
    76    15    16    1
