@<TRIPOS>MOLECULE
tmp/5w4eA01.pdb
 101 96 0 0 0
SMALL
GASTEIGER

@<TRIPOS>ATOM
      1  N         -0.8310   10.6680   -0.5070 N.3   250  VAL250     -0.1231
      2  CA        -0.8960    9.5980   -1.4980 C.3   250  VAL250      0.1692
      3  C          0.1270    9.7550   -2.6090 C.2   250  VAL250      0.2593
      4  O          0.2030    8.8970   -3.4750 O.2   250  VAL250     -0.2718
      5  CB        -2.3180    9.3870   -2.0920 C.3   250  VAL250      0.0266
      6  CG1       -3.3020    9.0540   -0.9750 C.3   250  VAL250      0.0020
      7  CG2       -2.7680   10.5820   -2.9070 C.3   250  VAL250      0.0020
      8  N          0.9330   10.8230   -2.5930 N.am  251  THR251     -0.1939
      9  CA         2.0840   10.8590   -3.4910 C.3   251  THR251      0.2028
     10  C          3.2430   10.0320   -2.9120 C.2   251  THR251      0.2642
     11  O          4.2660    9.8670   -3.5550 O.2   251  THR251     -0.2714
     12  CB         2.6270   12.2660   -3.7350 C.3   251  THR251      0.1808
     13  OG1        3.1740   12.7740   -2.5130 O.3   251  THR251     -0.2208
     14  CG2        1.5470   13.1880   -4.2700 C.3   251  THR251      0.0379
     15  N          3.0810    9.5280   -1.6970 N.am  252  GLY252     -0.1954
     16  CA         4.1330    8.7780   -1.0430 C.3   252  GLY252      0.1869
     17  C          4.1320    7.3200   -1.4650 C.2   252  GLY252      0.2309
     18  O          3.9090    6.9970   -2.6350 O.2   252  GLY252     -0.2863
     19  N          3.0050    3.1870   -1.3800 N.3   254  ASP254     -0.1239
     20  CA         1.7610    2.4350   -1.4190 C.3   254  ASP254      0.1674
     21  C          1.2720    2.1610   -0.0090 C.2   254  ASP254      0.2266
     22  O          0.0630    2.1620    0.2500 O.2   254  ASP254     -0.2867
     23  CB         1.9560    1.1390   -2.2010 C.3   254  ASP254      0.1410
     24  CG         2.3310    1.3940   -3.6540 C.2   254  ASP254      0.3668
     25  OD1        1.8690    2.4080   -4.2120 O.co2 254  ASP254     -0.2456
     26  OD2        3.0980    0.5950   -4.2320 O.co2 254  ASP254     -0.2456
     27  N         -0.2360    5.4960    1.1460 N.3   257  THR257     -0.1218
     28  CA        -1.5200    5.5880    0.4690 C.3   257  THR257      0.1862
     29  C         -2.5590    4.6710    1.1130 C.2   257  THR257      0.2287
     30  O         -3.7130    5.0630    1.2820 O.2   257  THR257     -0.2866
     31  CB        -1.3750    5.2380   -1.0030 C.3   257  THR257      0.1770
     32  OG1       -0.4670    6.1590   -1.6120 O.3   257  THR257     -0.2211
     33  CG2       -2.7230    5.2940   -1.7300 C.3   257  THR257      0.0375
     34  N         -6.8190   14.8700   -8.8440 N.3   286  TRP286     -0.1241
     35  CA        -5.3830   14.7190   -8.7160 C.3   286  TRP286      0.1605
     36  C         -5.0600   13.6140   -7.7040 C.2   286  TRP286      0.2264
     37  O         -4.2540   12.7240   -7.9810 O.2   286  TRP286     -0.2867
     38  CB        -4.7440   16.0570   -8.3150 C.3   286  TRP286      0.0550
     39  CG        -3.3220   15.9340   -7.9050 C.ar  286  TRP286      0.0003
     40  CD1       -2.2640   15.5640   -8.6980 C.ar  286  TRP286      0.0946
     41  CD2       -2.7820   16.1740   -6.6050 C.ar  286  TRP286      0.0152
     42  NE1       -1.1070   15.5550   -7.9630 N.ar  286  TRP286     -0.2442
     43  CE2       -1.3940   15.9310   -6.6770 C.ar  286  TRP286      0.0810
     44  CE3       -3.3320   16.5840   -5.3900 C.ar  286  TRP286      0.0012
     45  CZ2       -0.5530   16.0740   -5.5800 C.ar  286  TRP286      0.0191
     46  CZ3       -2.4910   16.7400   -4.3000 C.ar  286  TRP286      0.0001
     47  CH2       -1.1190   16.4760   -4.4020 C.ar  286  TRP286      0.0015
     48  N         -5.7520   10.2080   -9.0580 N.3   289  SER289     -0.1202
     49  CA        -4.7220    9.7910  -10.0120 C.3   289  SER289      0.2020
     50  C         -3.5150    9.1410   -9.3350 C.2   289  SER289      0.2618
     51  O         -2.8850    8.2470   -9.9040 O.2   289  SER289     -0.2717
     52  CB        -4.2470   10.9670  -10.8730 C.3   289  SER289      0.2103
     53  OG        -3.3530   11.7980  -10.1540 O.3   289  SER289     -0.2182
     54  N         -3.2030    9.5810   -8.1220 N.am  290  ASN290     -0.1974
     55  CA        -2.1220    8.9790   -7.3580 C.3   290  ASN290      0.1688
     56  C         -2.5440    7.7400   -6.5990 C.2   290  ASN290      0.2292
     57  O         -1.7030    6.9690   -6.1550 O.2   290  ASN290     -0.2864
     58  CB        -1.5010   10.0090   -6.4130 C.3   290  ASN290      0.1181
     59  CG        -0.6110   10.9530   -7.1540 C.2   290  ASN290      0.2629
     60  OD1        0.1230   10.5310   -8.0380 O.2   290  ASN290     -0.2716
     61  ND2       -0.7110   12.2350   -6.8610 N.am  290  ASN290     -0.0877
     62  N         -2.4110    5.0220   -9.3150 N.3   293  ALA293     -0.1231
     63  CA        -1.0280    4.7180   -9.6780 C.3   293  ALA293      0.1694
     64  C         -0.4380    3.7010   -8.7120 C.2   293  ALA293      0.2592
     65  O          0.7170    3.3040   -8.8550 O.2   293  ALA293     -0.2718
     66  CB        -0.1910    5.9760   -9.6890 C.3   293  ALA293      0.0304
     67  N         -1.2410    3.2710   -7.7440 N.am  294  GLY294     -0.1957
     68  CA        -0.8160    2.2730   -6.7830 C.3   294  GLY294      0.1869
     69  C         -1.0560    0.8260   -7.2040 C.2   294  GLY294      0.2309
     70  O         -1.1100    0.5100   -8.4000 O.2   294  GLY294     -0.2863
     71  N         -6.3690   16.0400  -15.0210 N.3   325  GLU325     -0.1245
     72  CA        -6.0670   15.1410  -13.9050 C.3   325  GLU325      0.1567
     73  C         -6.8130   13.8220  -14.0500 C.2   325  GLU325      0.2260
     74  O         -6.3080   12.7910  -13.6150 O.2   325  GLU325     -0.2867
     75  CB        -6.4360   15.7650  -12.5560 C.3   325  GLU325      0.0388
     76  CG        -5.5930   16.9810  -12.1520 C.3   325  GLU325      0.1160
     77  CD        -4.1060   16.6630  -11.9900 C.2   325  GLU325      0.3649
     78  OE1       -3.7330   15.4750  -11.8530 O.co2 325  GLU325     -0.2457
     79  OE2       -3.3070   17.6160  -12.0180 O.co2 325  GLU325     -0.2457
     80  N         -5.0030   11.5470  -16.4530 N.3   328  TRP328     -0.1241
     81  CA        -3.9040   10.9420  -15.7030 C.3   328  TRP328      0.1605
     82  C         -4.3710    9.7940  -14.8330 C.2   328  TRP328      0.2264
     83  O         -3.7170    8.7450  -14.7550 O.2   328  TRP328     -0.2867
     84  CB        -3.2100   11.9870  -14.8210 C.3   328  TRP328      0.0550
     85  CG        -2.1420   12.7220  -15.5310 C.ar  328  TRP328      0.0003
     86  CD1       -2.1460   14.0380  -15.8880 C.ar  328  TRP328      0.0946
     87  CD2       -0.9030   12.1800  -15.9970 C.ar  328  TRP328      0.0152
     88  NE1       -0.9800   14.3540  -16.5440 N.ar  328  TRP328     -0.2442
     89  CE2       -0.1970   13.2310  -16.6220 C.ar  328  TRP328      0.0810
     90  CE3       -0.3190   10.9100  -15.9400 C.ar  328  TRP328      0.0012
     91  CZ2        1.0660   13.0540  -17.1850 C.ar  328  TRP328      0.0191
     92  CZ3        0.9340   10.7290  -16.5010 C.ar  328  TRP328      0.0001
     93  CH2        1.6150   11.7990  -17.1160 C.ar  328  TRP328      0.0015
     94  N         -3.0000    6.0200  -15.4230 N.3   332  ASN332     -0.1240
     95  CA        -2.4350    5.2800  -14.3010 C.3   332  ASN332      0.1653
     96  C         -3.2030    3.9950  -14.0440 C.2   332  ASN332      0.2266
     97  O         -2.6040    2.9310  -13.8580 O.2   332  ASN332     -0.2867
     98  CB        -2.3890    6.1340  -13.0270 C.3   332  ASN332      0.1155
     99  CG        -1.3900    7.2870  -13.1270 C.2   332  ASN332      0.2627
    100  OD1       -0.5600    7.3380  -14.0400 O.2   332  ASN332     -0.2716
    101  ND2       -1.4790    8.2180  -12.1970 N.am  332  ASN332     -0.0877
@<TRIPOS>BOND
     1    91    93   ar
     2    91    89   ar
     3    93    92   ar
     4    89    88   ar
     5    89    87   ar
     6    88    86   ar
     7    92    90   ar
     8    80    81    1
     9    87    90   ar
    10    87    85   ar
    11    86    85   ar
    12    81    82    1
    13    81    84    1
    14    85    84    1
    15    94    95    1
    16    71    72    1
    17    82    83    2
    18    95    96    1
    19    95    98    1
    20    73    72    1
    21    73    74    2
    22    96    97    2
    23   100    99    2
    24    72    75    1
    25    99    98    1
    26    99   101   am
    27    75    76    1
    28    76    77    1
    29    79    77   ar
    30    77    78   ar
    31    52    53    1
    32    52    49    1
    33    49    50    1
    34    49    48    1
    35    51    50    2
    36    66    63    1
    37    63    62    1
    38    63    64    1
    39    50    54   am
    40    65    64    2
    41    34    35    1
    42    35    38    1
    43    35    36    1
    44    64    67   am
    45    40    42   ar
    46    40    39   ar
    47    70    69    2
    48    38    39    1
    49    54    55    1
    50    60    59    2
    51    37    36    2
    52    42    43   ar
    53    39    41   ar
    54    67    68    1
    55    55    56    1
    56    55    58    1
    57    69    68    1
    58    59    61   am
    59    59    58    1
    60    43    41   ar
    61    43    45   ar
    62    41    44   ar
    63    56    57    2
    64    45    47   ar
    65    44    46   ar
    66    47    46   ar
    67    14    12    1
    68    26    24   ar
    69    25    24   ar
    70    12     9    1
    71    12    13    1
    72    24    23    1
    73    11    10    2
    74     9    10    1
    75     9     8    1
    76     4     3    2
    77    10    15   am
    78     7     5    1
    79    18    17    2
    80     3     8   am
    81     3     2    1
    82    23    20    1
    83     5     2    1
    84     5     6    1
    85    33    31    1
    86    15    16    1
    87    32    31    1
    88     2     1    1
    89    17    16    1
    90    20    19    1
    91    20    21    1
    92    31    28    1
    93    21    22    2
    94    28    29    1
    95    28    27    1
    96    29    30    2
