@<TRIPOS>MOLECULE
tmp/5w4lA02.pdb
 102 99 0 0 0
SMALL
GASTEIGER

@<TRIPOS>ATOM
      1  N        -41.2900  -21.4990   65.9540 N.3   108  ASP108     -0.1225
      2  CA       -40.2150  -21.3540   66.9390 C.3   108  ASP108      0.1790
      3  C        -38.8570  -21.2730   66.2440 C.2   108  ASP108      0.2439
      4  O        -38.5270  -22.1670   65.4710 O.2   108  ASP108     -0.2733
      5  CB       -40.1910  -22.5050   67.9400 C.3   108  ASP108      0.1423
      6  CG       -39.2780  -22.2150   69.1280 C.2   108  ASP108      0.3668
      7  OD1      -38.2990  -22.9680   69.3120 O.co2 108  ASP108     -0.2456
      8  OD2      -39.5290  -21.2230   69.8550 O.co2 108  ASP108     -0.2456
      9  N        -38.0720  -20.2110   66.5140 N.am  109  PRO109     -0.2729
     10  CA       -36.8080  -20.0500   65.7840 C.3   109  PRO109      0.1401
     11  C        -35.7480  -21.1300   66.0330 C.2   109  PRO109      0.2269
     12  O        -35.5440  -21.5590   67.1660 O.2   109  PRO109     -0.2865
     13  CB       -36.2970  -18.6760   66.2540 C.3   109  PRO109      0.0296
     14  CG       -37.5200  -17.9450   66.6750 C.3   109  PRO109      0.0237
     15  CD       -38.3930  -18.9990   67.2940 C.3   109  PRO109      0.0939
     16  N        -30.1910  -17.8110   66.0340 N.3   149  LYS149     -0.1245
     17  CA       -31.6440  -17.8060   65.9100 C.3   149  LYS149      0.1561
     18  C        -32.0690  -16.4160   65.4220 C.2   149  LYS149      0.2260
     19  O        -31.6870  -15.4200   66.0290 O.2   149  LYS149     -0.2867
     20  CB       -32.3180  -18.1170   67.2570 C.3   149  LYS149      0.0271
     21  CG       -32.1730  -19.5520   67.7530 C.3   149  LYS149      0.0035
     22  CD       -32.1860  -19.6270   69.2730 C.3   149  LYS149      0.0206
     23  CE       -32.2330  -21.0530   69.7910 C.3   149  LYS149      0.1093
     24  NZ       -33.6310  -21.5390   69.9390 N.3   149  LYS149     -0.1314
     25  N        -34.2220  -14.3190   66.0510 N.3   151  VAL151     -0.1245
     26  CA       -35.2370  -13.9050   67.0080 C.3   151  VAL151      0.1561
     27  C        -35.4380  -12.4060   66.8340 C.2   151  VAL151      0.2260
     28  O        -34.5460  -11.6150   67.1550 O.2   151  VAL151     -0.2867
     29  CB       -34.8210  -14.2190   68.4660 C.3   151  VAL151      0.0252
     30  CG1      -35.8830  -13.7370   69.4540 C.3   151  VAL151      0.0019
     31  CG2      -34.5710  -15.7090   68.6410 C.3   151  VAL151      0.0019
     32  N        -32.9720  -11.5890   72.8420 N.3   158  LEU158     -0.1231
     33  CA       -33.3570  -12.8990   73.3570 C.3   158  LEU158      0.1693
     34  C        -32.5930  -14.0510   72.7010 C.2   158  LEU158      0.2592
     35  O        -32.2030  -13.9720   71.5380 O.2   158  LEU158     -0.2718
     36  CB       -34.8590  -13.0950   73.1550 C.3   158  LEU158      0.0284
     37  CG       -35.7560  -12.0240   73.7770 C.3   158  LEU158      0.0019
     38  CD1      -37.2140  -12.3350   73.4680 C.3   158  LEU158      0.0001
     39  CD2      -35.5370  -11.9060   75.2810 C.3   158  LEU158      0.0001
     40  N        -32.3640  -15.1130   73.4740 N.am  159  ASN159     -0.1974
     41  CA       -31.8070  -16.3750   72.9700 C.3   159  ASN159      0.1688
     42  C        -30.5230  -16.2420   72.1310 C.2   159  ASN159      0.2292
     43  O        -30.1960  -17.1220   71.3270 O.2   159  ASN159     -0.2864
     44  CB       -32.8950  -17.1320   72.1920 C.3   159  ASN159      0.1181
     45  CG       -33.9870  -17.6880   73.0910 C.2   159  ASN159      0.2629
     46  OD1      -34.0590  -17.3900   74.2910 O.2   159  ASN159     -0.2716
     47  ND2      -34.8480  -18.5070   72.5010 N.am  159  ASN159     -0.0877
     48  N        -42.0690   -8.9640   70.7590 N.3   251  PHE251     -0.1227
     49  CA       -41.4180  -10.1820   70.2820 C.3   251  PHE251      0.1736
     50  C        -42.5060  -11.1400   69.8130 C.2   251  PHE251      0.2595
     51  O        -43.6920  -10.9050   70.0800 O.2   251  PHE251     -0.2718
     52  CB       -40.5650  -10.8100   71.3940 C.3   251  PHE251      0.0547
     53  CG       -41.3250  -11.0880   72.6630 C.ar  251  PHE251     -0.0202
     54  CD1      -41.5660  -10.0770   73.5820 C.ar  251  PHE251     -0.0042
     55  CD2      -41.8000  -12.3680   72.9440 C.ar  251  PHE251     -0.0042
     56  CE1      -42.2760  -10.3280   74.7500 C.ar  251  PHE251     -0.0003
     57  CE2      -42.5070  -12.6270   74.1170 C.ar  251  PHE251     -0.0003
     58  CZ       -42.7450  -11.6020   75.0210 C.ar  251  PHE251     -0.0000
     59  N        -42.1200  -12.1970   69.1050 N.am  252  ASN252     -0.1960
     60  CA       -43.0850  -13.2000   68.6600 C.3   252  ASN252      0.1819
     61  C        -42.8700  -14.5040   69.4160 C.2   252  ASN252      0.2621
     62  O        -41.7690  -15.0590   69.4140 O.2   252  ASN252     -0.2715
     63  CB       -42.9780  -13.4330   67.1560 C.3   252  ASN252      0.1195
     64  CG       -44.1000  -14.2980   66.6260 C.2   252  ASN252      0.2630
     65  OD1      -44.4310  -15.3190   67.2150 O.2   252  ASN252     -0.2716
     66  ND2      -44.6940  -13.8900   65.5140 N.am  252  ASN252     -0.0877
     67  N        -43.9350  -14.9970   70.0370 N.am  253  CYS253     -0.1954
     68  CA       -43.8840  -16.2260   70.8180 C.3   253  CYS253      0.1843
     69  C        -44.9400  -17.1890   70.3030 C.2   253  CYS253      0.2625
     70  O        -46.1280  -16.8820   70.3360 O.2   253  CYS253     -0.2714
     71  CB       -44.1240  -15.9060   72.2940 C.3   253  CYS253      0.0997
     72  SG       -44.3170  -17.3230   73.4090 S.3   253  CYS253     -0.0797
     73  N        -44.4940  -18.3420   69.8120 N.am  254  ARG254     -0.1977
     74  CA       -45.3760  -19.3770   69.2580 C.3   254  ARG254      0.1597
     75  C        -46.2750  -18.9150   68.1050 C.2   254  ARG254      0.2287
     76  O        -47.3270  -19.5120   67.8570 O.2   254  ARG254     -0.2864
     77  CB       -46.2230  -20.0110   70.3770 C.3   254  ARG254      0.0334
     78  CG       -45.4230  -20.5400   71.5600 C.3   254  ARG254      0.0492
     79  CD       -44.2450  -21.3900   71.1120 C.3   254  ARG254      0.2205
     80  NE       -43.8140  -22.3500   72.1230 N.pl3 254  ARG254     -0.0865
     81  CZ       -42.8750  -23.2790   71.9340 C.cat 254  ARG254      0.5346
     82  NH1      -42.2370  -23.3870   70.7650 N.pl3 254  ARG254      0.1354
     83  NH2      -42.5720  -24.1140   72.9250 N.pl3 254  ARG254      0.1354
     84  N        -43.3390  -19.0770   76.1580 N.3   310  CYS310     -0.1221
     85  CA       -41.9380  -19.0430   75.7630 C.3   310  CYS310      0.1808
     86  C        -41.0960  -18.6330   76.9530 C.2   310  CYS310      0.2601
     87  O        -41.4250  -17.6630   77.6300 O.2   310  CYS310     -0.2717
     88  CB       -41.7050  -18.0340   74.6450 C.3   310  CYS310      0.0970
     89  SG       -42.6110  -18.3780   73.1280 S.3   310  CYS310     -0.0800
     90  N        -40.0170  -19.3700   77.2030 N.am  311  VAL311     -0.1965
     91  CA       -38.9980  -18.9520   78.1530 C.3   311  VAL311      0.1727
     92  C        -37.7370  -18.6410   77.3630 C.2   311  VAL311      0.2616
     93  O        -37.1470  -19.5340   76.7390 O.2   311  VAL311     -0.2715
     94  CB       -38.7230  -20.0250   79.2190 C.3   311  VAL311      0.0290
     95  CG1      -37.8810  -19.4400   80.3510 C.3   311  VAL311      0.0023
     96  CG2      -40.0370  -20.5790   79.7550 C.3   311  VAL311      0.0023
     97  N        -37.3500  -17.3660   77.3720 N.am  312  SER312     -0.1950
     98  CA       -36.1920  -16.8860   76.6190 C.3   312  SER312      0.1924
     99  C        -35.0860  -16.4710   77.5830 C.2   312  SER312      0.2314
    100  O        -35.3670  -15.9860   78.6790 O.2   312  SER312     -0.2863
    101  CB       -36.5860  -15.6950   75.7270 C.3   312  SER312      0.2116
    102  OG       -37.8990  -15.8310   75.1990 O.3   312  SER312     -0.2180
@<TRIPOS>BOND
     1    18    17    1
     2    18    19    2
     3     4     3    2
     4    66    64   am
     5    10    11    1
     6    10    13    1
     7    10     9    1
     8    17    16    1
     9    17    20    1
    10     1     2    1
    11    11    12    2
    12    25    26    1
    13     3     9   am
    14     3     2    1
    15    13    14    1
    16     9    15    1
    17    64    63    1
    18    64    65    2
    19    14    15    1
    20    27    26    1
    21    27    28    2
    22     2     5    1
    23    26    29    1
    24    63    60    1
    25    20    21    1
    26    21    22    1
    27    76    75    2
    28     5     6    1
    29    75    74    1
    30    29    31    1
    31    29    30    1
    32    60    59    1
    33    60    61    1
    34    59    50   am
    35     6     7   ar
    36     6     8   ar
    37    74    73    1
    38    74    77    1
    39    22    23    1
    40    62    61    2
    41    61    67   am
    42    23    24    1
    43    73    69   am
    44    50    51    2
    45    50    49    1
    46    67    68    1
    47    49    48    1
    48    49    52    1
    49    69    70    2
    50    69    68    1
    51    77    78    1
    52    82    81    1
    53    68    71    1
    54    79    78    1
    55    79    80    1
    56    43    42    2
    57    52    53    1
    58    35    34    2
    59    81    80    2
    60    81    83    1
    61    42    41    1
    62    44    41    1
    63    44    45    1
    64    71    72    1
    65    47    45   am
    66    53    55   ar
    67    53    54   ar
    68    34    33    1
    69    34    40   am
    70    32    33    1
    71    55    57   ar
    72    41    40    1
    73    45    46    2
    74    89    72    1
    75    89    88    1
    76    36    33    1
    77    36    37    1
    78    38    37    1
    79    54    56   ar
    80    37    39    1
    81    57    58   ar
    82    88    85    1
    83    56    58   ar
    84   102   101    1
    85   101    98    1
    86    85    84    1
    87    85    86    1
    88    98    97    1
    89    98    99    1
    90    93    92    2
    91    86    90   am
    92    86    87    2
    93    90    91    1
    94    92    97   am
    95    92    91    1
    96    99   100    2
    97    91    94    1
    98    94    96    1
    99    94    95    1
