@<TRIPOS>MOLECULE
tmp/5w4vC00.pdb
 214 205 0 0 0
SMALL
GASTEIGER

@<TRIPOS>ATOM
      1  N          8.8420   52.0760  -45.5950 N.3    16  CYS16      -0.1221
      2  CA         8.4400   53.4770  -45.6130 C.3    16  CYS16       0.1808
      3  C          7.0140   53.6930  -45.1170 C.2    16  CYS16       0.2601
      4  O          6.6510   54.8370  -44.8160 O.2    16  CYS16      -0.2717
      5  CB         8.5900   54.0530  -47.0220 C.3    16  CYS16       0.0970
      6  SG         7.3840   53.4470  -48.2180 S.3    16  CYS16      -0.0800
      7  N          6.2060   52.6360  -45.0200 N.am   17  GLN17      -0.1965
      8  CA         4.8310   52.7380  -44.5440 C.3    17  GLN17       0.1733
      9  C          3.9350   53.3700  -45.6030 C.2    17  GLN17       0.2616
     10  O          3.1740   52.6700  -46.2780 O.2    17  GLN17      -0.2715
     11  CB         4.7700   53.5380  -43.2380 C.3    17  GLN17       0.0408
     12  CG         3.3660   53.7090  -42.6700 C.3    17  GLN17       0.0908
     13  CD         3.3500   54.4750  -41.3590 C.2    17  GLN17       0.2608
     14  OE1        4.3860   54.9470  -40.8890 O.2    17  GLN17      -0.2717
     15  NE2        2.1720   54.6000  -40.7600 N.am   17  GLN17      -0.0878
     16  N          4.0130   54.6890  -45.7520 N.am   18  LEU18      -0.1977
     17  CA         3.2710   55.4100  -46.7770 C.3    18  LEU18       0.1596
     18  C          4.2150   55.7530  -47.9210 C.2    18  LEU18       0.2287
     19  O          5.2390   56.4110  -47.7090 O.2    18  LEU18      -0.2864
     20  CB         2.6330   56.6740  -46.2040 C.3    18  LEU18       0.0297
     21  CG         1.1280   56.6070  -45.9370 C.3    18  LEU18       0.0022
     22  CD1        0.7660   55.3070  -45.2390 C.3    18  LEU18       0.0001
     23  CD2        0.6740   57.8010  -45.1120 C.3    18  LEU18       0.0001
     24  N          1.3160   59.9590  -51.2820 N.3    23  LEU23      -0.1245
     25  CA         1.1390   61.2050  -50.5430 C.3    23  LEU23       0.1561
     26  C          1.0380   62.4000  -51.4820 C.2    23  LEU23       0.2260
     27  O          0.2740   63.3370  -51.2220 O.2    23  LEU23      -0.2867
     28  CB         2.2890   61.3950  -49.5540 C.3    23  LEU23       0.0270
     29  CG         2.0660   60.8250  -48.1540 C.3    23  LEU23       0.0019
     30  CD1        3.3460   60.8840  -47.3390 C.3    23  LEU23       0.0001
     31  CD2        0.9520   61.5890  -47.4590 C.3    23  LEU23       0.0001
     32  N         -3.4260   60.6570  -31.9920 N.3    51  CYS51      -0.1235
     33  CA        -2.0200   60.9070  -32.2910 C.3    51  CYS51       0.1677
     34  C         -1.1210   59.8380  -31.6820 C.2    51  CYS51       0.2270
     35  O         -0.1910   59.3520  -32.3350 O.2    51  CYS51      -0.2867
     36  CB        -1.6140   62.2950  -31.7890 C.3    51  CYS51       0.0956
     37  SG        -2.5320   63.6700  -32.5230 S.3    51  CYS51      -0.0801
     38  N         -1.1730   56.7030  -33.9140 N.3    54  HIS54      -0.1226
     39  CA        -0.4640   56.8850  -35.1770 C.3    54  HIS54       0.1752
     40  C          1.0460   56.8660  -34.9730 C.2    54  HIS54       0.2595
     41  O          1.7780   56.2180  -35.7290 O.2    54  HIS54      -0.2718
     42  CB        -0.9010   58.1910  -35.8430 C.3    54  HIS54       0.0759
     43  CG        -2.2200   58.1000  -36.5450 C.ar   54  HIS54       0.0818
     44  ND1       -2.5720   57.0240  -37.3310 N.ar   54  HIS54      -0.2268
     45  CD2       -3.2730   58.9510  -36.5780 C.ar   54  HIS54       0.1154
     46  CE1       -3.7850   57.2170  -37.8190 C.ar   54  HIS54       0.1986
     47  NE2       -4.2330   58.3780  -37.3770 N.ar   54  HIS54      -0.2212
     48  N          1.5350   57.5740  -33.9530 N.am   55  LEU55      -0.1980
     49  CA         2.9740   57.6150  -33.7150 C.3    55  LEU55       0.1596
     50  C          3.5030   56.2450  -33.3150 C.2    55  LEU55       0.2287
     51  O          4.5440   55.7990  -33.8120 O.2    55  LEU55      -0.2864
     52  CB         3.3030   58.6550  -32.6450 C.3    55  LEU55       0.0297
     53  CG         3.0110   60.1050  -33.0290 C.3    55  LEU55       0.0022
     54  CD1        3.5710   61.0550  -31.9880 C.3    55  LEU55       0.0001
     55  CD2        3.5800   60.4110  -34.4020 C.3    55  LEU55       0.0001
     56  N          3.8470   54.2130  -36.3170 N.3    58  ALA58      -0.1245
     57  CA         4.9780   54.6330  -37.1370 C.3    58  ALA58       0.1562
     58  C          6.2910   54.0970  -36.5810 C.2    58  ALA58       0.2260
     59  O          7.1920   53.7300  -37.3440 O.2    58  ALA58      -0.2867
     60  CB         5.0140   56.1580  -37.2340 C.3    58  ALA58       0.0290
     61  N         11.9060   57.5980  -32.7040 N.3    89  MET89      -0.1245
     62  CA        10.9860   58.7150  -32.8970 C.3    89  MET89       0.1570
     63  C         11.6350   59.8500  -33.6780 C.2    89  MET89       0.2261
     64  O         10.9440   60.5740  -34.4040 O.2    89  MET89      -0.2867
     65  CB        10.4750   59.2180  -31.5460 C.3    89  MET89       0.0387
     66  CG         9.4160   60.3070  -31.6480 C.3    89  MET89       0.0595
     67  SD         7.9400   59.7830  -32.5450 S.3    89  MET89      -0.1393
     68  CE         7.3540   58.4580  -31.4970 C.3    89  MET89       0.0692
     69  N         10.8840   58.9040  -37.0700 N.3    92  VAL92      -0.1231
     70  CA         9.4700   59.0730  -37.3920 C.3    92  VAL92       0.1692
     71  C          9.1730   60.5260  -37.7380 C.2    92  VAL92       0.2591
     72  O          8.4710   60.8160  -38.7150 O.2    92  VAL92      -0.2718
     73  CB         8.5900   58.5740  -36.2300 C.3    92  VAL92       0.0266
     74  CG1        7.1550   59.0410  -36.4120 C.3    92  VAL92       0.0020
     75  CG2        8.6470   57.0590  -36.1390 C.3    92  VAL92       0.0020
     76  N          9.7040   61.4640  -36.9510 N.am   93  LEU93      -0.1980
     77  CA         9.4410   62.8730  -37.2230 C.3    93  LEU93       0.1596
     78  C         10.1090   63.3260  -38.5140 C.2    93  LEU93       0.2287
     79  O          9.5640   64.1710  -39.2340 O.2    93  LEU93      -0.2864
     80  CB         9.8940   63.7310  -36.0440 C.3    93  LEU93       0.0297
     81  CG         9.0660   63.5300  -34.7740 C.3    93  LEU93       0.0022
     82  CD1        9.3100   64.6630  -33.7940 C.3    93  LEU93       0.0001
     83  CD2        7.5870   63.4110  -35.1140 C.3    93  LEU93       0.0001
     84  N         10.5640   61.2880  -41.1000 N.3    95  ARG95      -0.1231
     85  CA         9.6760   60.7080  -42.1010 C.3    95  ARG95       0.1694
     86  C          8.4150   61.5410  -42.2880 C.2    95  ARG95       0.2591
     87  O          7.8340   61.5500  -43.3790 O.2    95  ARG95      -0.2718
     88  CB         9.3010   59.2800  -41.7070 C.3    95  ARG95       0.0321
     89  CG        10.4180   58.2630  -41.8230 C.3    95  ARG95       0.0489
     90  CD         9.8790   56.8770  -41.5250 C.3    95  ARG95       0.2205
     91  NE        10.8030   55.8240  -41.9270 N.pl3  95  ARG95      -0.0865
     92  CZ        10.4920   54.5330  -41.9590 C.cat  95  ARG95       0.5346
     93  NH1        9.2750   54.1310  -41.6160 N.pl3  95  ARG95       0.1354
     94  NH2       11.3980   53.6440  -42.3390 N.pl3  95  ARG95       0.1354
     95  N          7.9800   62.2440  -41.2400 N.am   96  MET96      -0.1979
     96  CA         6.7540   63.0300  -41.3080 C.3    96  MET96       0.1605
     97  C          6.8230   64.1580  -42.3320 C.2    96  MET96       0.2287
     98  O          5.7750   64.5790  -42.8320 O.2    96  MET96      -0.2864
     99  CB         6.4260   63.6100  -39.9340 C.3    96  MET96       0.0413
    100  CG         4.9920   64.0790  -39.8050 C.3    96  MET96       0.0598
    101  SD         4.5820   64.5450  -38.1180 S.3    96  MET96      -0.1393
    102  CE         4.9900   63.0300  -37.2550 C.3    96  MET96       0.0692
    103  N          7.7100   63.9710  -45.2880 N.3    98  ARG98      -0.1231
    104  CA         7.1590   63.4550  -46.5360 C.3    98  ARG98       0.1694
    105  C          5.6690   63.7470  -46.6440 C.2    98  ARG98       0.2591
    106  O          5.1520   63.9450  -47.7500 O.2    98  ARG98      -0.2718
    107  CB         7.4230   61.9520  -46.6440 C.3    98  ARG98       0.0321
    108  CG         8.8990   61.5840  -46.6460 C.3    98  ARG98       0.0489
    109  CD         9.1230   60.1070  -46.3430 C.3    98  ARG98       0.2205
    110  NE         8.7700   59.2330  -47.4590 N.pl3  98  ARG98      -0.0865
    111  CZ         7.6630   58.5000  -47.5150 C.cat  98  ARG98       0.5346
    112  NH1        6.7920   58.5320  -46.5160 N.pl3  98  ARG98       0.1354
    113  NH2        7.4290   57.7300  -48.5690 N.pl3  98  ARG98       0.1354
    114  N          4.9670   63.7870  -45.5130 N.am   99  ALA99      -0.1980
    115  CA         3.5390   64.0760  -45.4910 C.3    99  ALA99       0.1597
    116  C          3.2350   65.5660  -45.4710 C.2    99  ALA99       0.2287
    117  O          2.0590   65.9380  -45.3820 O.2    99  ALA99      -0.2864
    118  CB         2.8840   63.4070  -44.2800 C.3    99  ALA99       0.0319
    119  N         -0.4100   69.1010  -43.9070 N.3   107  VAL107     -0.1231
    120  CA         0.1710   67.8000  -43.6010 C.3   107  VAL107      0.1692
    121  C         -0.9010   66.7340  -43.7720 C.2   107  VAL107      0.2592
    122  O         -2.0580   66.9320  -43.3840 O.2   107  VAL107     -0.2718
    123  CB         0.7610   67.7620  -42.1760 C.3   107  VAL107      0.0266
    124  CG1       -0.3440   67.9010  -41.1370 C.3   107  VAL107      0.0020
    125  CG2        1.5480   66.4820  -41.9620 C.3   107  VAL107      0.0020
    126  N         -0.5140   65.6040  -44.3590 N.am  108  PHE108     -0.1962
    127  CA        -1.4360   64.4920  -44.5400 C.3   108  PHE108      0.1771
    128  C         -1.7450   63.8450  -43.1970 C.2   108  PHE108      0.2620
    129  O         -0.8370   63.5660  -42.4070 O.2   108  PHE108     -0.2715
    130  CB        -0.8400   63.4650  -45.5010 C.3   108  PHE108      0.0574
    131  CG        -1.6960   62.2480  -45.7000 C.ar  108  PHE108     -0.0200
    132  CD1       -2.6780   62.2300  -46.6750 C.ar  108  PHE108     -0.0042
    133  CD2       -1.5120   61.1170  -44.9210 C.ar  108  PHE108     -0.0042
    134  CE1       -3.4650   61.1120  -46.8660 C.ar  108  PHE108     -0.0003
    135  CE2       -2.2970   59.9960  -45.1070 C.ar  108  PHE108     -0.0003
    136  CZ        -3.2750   59.9930  -46.0810 C.ar  108  PHE108     -0.0000
    137  N         -3.0280   63.6020  -42.9370 N.am  109  PHE109     -0.1960
    138  CA        -3.4350   63.0320  -41.6560 C.3   109  PHE109      0.1771
    139  C         -4.8160   62.4140  -41.8160 C.2   109  PHE109      0.2619
    140  O         -5.7960   63.1330  -42.0310 O.2   109  PHE109     -0.2715
    141  CB        -3.4290   64.0980  -40.5670 C.3   109  PHE109      0.0574
    142  CG        -3.5810   63.5470  -39.1810 C.ar  109  PHE109     -0.0200
    143  CD1       -2.4960   62.9970  -38.5170 C.ar  109  PHE109     -0.0042
    144  CD2       -4.8050   63.5830  -38.5370 C.ar  109  PHE109     -0.0042
    145  CE1       -2.6310   62.4910  -37.2390 C.ar  109  PHE109     -0.0003
    146  CE2       -4.9470   63.0790  -37.2590 C.ar  109  PHE109     -0.0003
    147  CZ        -3.8580   62.5320  -36.6090 C.ar  109  PHE109     -0.0000
    148  N         -4.8830   61.0870  -41.7200 N.am  110  GLU110     -0.1963
    149  CA        -6.1450   60.3520  -41.7130 C.3   110  GLU110      0.1733
    150  C         -6.9560   60.6210  -42.9800 C.2   110  GLU110      0.2616
    151  O         -8.1590   60.8870  -42.9330 O.2   110  GLU110     -0.2715
    152  CB        -6.9560   60.6750  -40.4560 C.3   110  GLU110      0.0429
    153  CG        -6.2680   60.2430  -39.1700 C.3   110  GLU110      0.1163
    154  CD        -7.1060   60.5090  -37.9370 C.2   110  GLU110      0.3649
    155  OE1       -8.1210   61.2270  -38.0510 O.co2 110  GLU110     -0.2457
    156  OE2       -6.7510   59.9950  -36.8530 O.co2 110  GLU110     -0.2457
    157  N         -6.2790   60.5510  -44.1260 N.am  111  GLY111     -0.1955
    158  CA        -6.9240   60.5450  -45.4210 C.3   111  GLY111      0.1869
    159  C         -6.7870   61.8230  -46.2220 C.2   111  GLY111      0.2309
    160  O         -6.9100   61.7740  -47.4530 O.2   111  GLY111     -0.2863
    161  N         -5.3930   70.1640  -35.1880 N.3   119  PHE119     -0.1241
    162  CA        -5.0180   69.5700  -33.9100 C.3   119  PHE119      0.1605
    163  C         -5.3420   70.4660  -32.7180 C.2   119  PHE119      0.2264
    164  O         -4.7990   70.2540  -31.6280 O.2   119  PHE119     -0.2867
    165  CB        -3.5250   69.2370  -33.9010 C.3   119  PHE119      0.0534
    166  CG        -3.0880   68.3390  -35.0190 C.ar  119  PHE119     -0.0203
    167  CD1       -2.7910   68.8590  -36.2680 C.ar  119  PHE119     -0.0042
    168  CD2       -2.9490   66.9780  -34.8170 C.ar  119  PHE119     -0.0042
    169  CE1       -2.3780   68.0350  -37.2980 C.ar  119  PHE119     -0.0003
    170  CE2       -2.5370   66.1470  -35.8420 C.ar  119  PHE119     -0.0003
    171  CZ        -2.2510   66.6770  -37.0840 C.ar  119  PHE119     -0.0000
    172  N         -6.0340   69.2490  -29.0810 N.3   122  LEU122     -0.1245
    173  CA        -5.0100   68.6050  -28.2660 C.3   122  LEU122      0.1561
    174  C         -4.6010   69.4620  -27.0760 C.2   122  LEU122      0.2260
    175  O         -4.2840   68.9250  -26.0090 O.2   122  LEU122     -0.2867
    176  CB        -3.7800   68.2830  -29.1130 C.3   122  LEU122      0.0270
    177  CG        -3.6160   66.8420  -29.5870 C.3   122  LEU122      0.0019
    178  CD1       -2.2420   66.6510  -30.2060 C.3   122  LEU122      0.0001
    179  CD2       -3.8280   65.8750  -28.4350 C.3   122  LEU122      0.0001
    180  N          3.9210   72.4250  -29.1570 N.3   127  LEU127     -0.1231
    181  CA         4.4360   71.1780  -29.7100 C.3   127  LEU127      0.1693
    182  C          4.1230   71.0740  -31.1980 C.2   127  LEU127      0.2591
    183  O          5.0270   70.9860  -32.0350 O.2   127  LEU127     -0.2718
    184  CB         3.8520   69.9870  -28.9450 C.3   127  LEU127      0.0284
    185  CG         3.9610   68.6200  -29.6250 C.3   127  LEU127      0.0019
    186  CD1        5.4110   68.2760  -29.9050 C.3   127  LEU127      0.0001
    187  CD2        3.3040   67.5350  -28.7860 C.3   127  LEU127      0.0001
    188  N          2.8330   71.0980  -31.5410 N.am  128  ILE128     -0.1980
    189  CA         2.4170   70.9820  -32.9380 C.3   128  ILE128      0.1595
    190  C          3.1220   72.0260  -33.7930 C.2   128  ILE128      0.2287
    191  O          3.6380   71.7270  -34.8760 O.2   128  ILE128     -0.2864
    192  CB         0.8870   71.1030  -33.0490 C.3   128  ILE128      0.0276
    193  CG1        0.2200   69.8860  -32.4080 C.3   128  ILE128      0.0022
    194  CG2        0.4640   71.2650  -34.5030 C.3   128  ILE128      0.0022
    195  CD1       -1.2190   70.1120  -32.0270 C.3   128  ILE128      0.0001
    196  N          6.4110   70.7910  -34.7270 N.3   131  ILE131     -0.1231
    197  CA         6.4140   69.7430  -35.7440 C.3   131  ILE131      0.1692
    198  C          6.2460   70.3530  -37.1280 C.2   131  ILE131      0.2592
    199  O          6.9850   70.0270  -38.0650 O.2   131  ILE131     -0.2718
    200  CB         5.3210   68.7020  -35.4480 C.3   131  ILE131      0.0266
    201  CG1        5.5550   68.0660  -34.0810 C.3   131  ILE131      0.0019
    202  CG2        5.2900   67.6420  -36.5340 C.3   131  ILE131      0.0020
    203  CD1        4.5210   68.4500  -33.0540 C.3   131  ILE131      0.0001
    204  N          5.2660   71.2460  -37.2790 N.am  132  PHE132     -0.1976
    205  CA         5.0930   71.9460  -38.5470 C.3   132  PHE132      0.1639
    206  C          6.3610   72.6960  -38.9330 C.2   132  PHE132      0.2290
    207  O          6.8540   72.5720  -40.0600 O.2   132  PHE132     -0.2864
    208  CB         3.9080   72.9080  -38.4580 C.3   132  PHE132      0.0560
    209  CG         2.5810   72.2690  -38.7470 C.ar  132  PHE132     -0.0200
    210  CD1        1.8340   71.6990  -37.7310 C.ar  132  PHE132     -0.0042
    211  CD2        2.0760   72.2500  -40.0370 C.ar  132  PHE132     -0.0042
    212  CE1        0.6080   71.1170  -37.9990 C.ar  132  PHE132     -0.0003
    213  CE2        0.8520   71.6690  -40.3120 C.ar  132  PHE132     -0.0003
    214  CZ         0.1170   71.1010  -39.2910 C.ar  132  PHE132     -0.0000
@<TRIPOS>BOND
     1    26    27    2
     2    26    25    1
     3    24    25    1
     4    25    28    1
     5    28    29    1
     6   113   111    1
     7     6     5    1
     8    29    31    1
     9    29    30    1
    10    18    19    2
    11    18    17    1
    12   106   105    2
    13   111   110    2
    14   111   112    1
    15   110   109    1
    16   160   159    2
    17     5     2    1
    18   134   132   ar
    19   134   136   ar
    20    17    20    1
    21    17    16    1
    22   132   131   ar
    23   108   107    1
    24   108   109    1
    25   105   104    1
    26   105   114   am
    27   107   104    1
    28   104   103    1
    29    10     9    2
    30   159   158    1
    31    20    21    1
    32   136   135   ar
    33    21    22    1
    34    21    23    1
    35    16     9   am
    36   131   130    1
    37   131   133   ar
    38     2     1    1
    39     2     3    1
    40     9     8    1
    41   114   115    1
    42   130   127    1
    43   115   116    1
    44   115   118    1
    45   116   117    2
    46   158   157    1
    47     3     7   am
    48     3     4    2
    49   135   133   ar
    50     7     8    1
    51     8    11    1
    52   127   126    1
    53   127   128    1
    54   126   121   am
    55   157   150   am
    56   119   120    1
    57   121   120    1
    58   121   122    2
    59   120   123    1
    60    87    86    2
    61    11    12    1
    62   128   137   am
    63   128   129    2
    64   150   151    2
    65   150   149    1
    66   137   138    1
    67    98    97    2
    68    12    13    1
    69    94    92    1
    70    97    96    1
    71    86    85    1
    72    86    95   am
    73   123   125    1
    74   123   124    1
    75    85    88    1
    76    85    84    1
    77   140   139    2
    78    92    91    2
    79    92    93    1
    80    91    90    1
    81    89    88    1
    82    89    90    1
    83   139   148   am
    84   139   138    1
    85   148   149    1
    86   149   152    1
    87   138   141    1
    88    13    14    2
    89    13    15   am
    90    96    95    1
    91    96    99    1
    92   141   142    1
    93   152   153    1
    94   213   211   ar
    95   213   214   ar
    96   207   206    2
    97   211   209   ar
    98    99   100    1
    99   100   101    1
   100   214   212   ar
   101    79    78    2
   102   142   144   ar
   103   142   143   ar
   104   153   154    1
   105   206   205    1
   106   209   208    1
   107   209   210   ar
   108    72    71    2
   109   205   208    1
   110   205   204    1
   111   144   146   ar
   112   143   145   ar
   113    78    77    1
   114   101   102    1
   115   199   198    2
   116   155   154   ar
   117   212   210   ar
   118   154   156   ar
   119    46    47   ar
   120    46    44   ar
   121    71    70    1
   122    71    76   am
   123    70    69    1
   124    70    73    1
   125    47    45   ar
   126    59    58    2
   127    44    43   ar
   128   169   171   ar
   129   169   167   ar
   130   204   198   am
   131   146   147   ar
   132   145   147   ar
   133    60    57    1
   134    77    76    1
   135    77    80    1
   136    57    58    1
   137    57    56    1
   138   198   197    1
   139   171   170   ar
   140    45    43   ar
   141    43    42    1
   142   202   200    1
   143    74    73    1
   144   167   166   ar
   145    73    75    1
   146    80    81    1
   147    42    39    1
   148   170   168   ar
   149   197   200    1
   150   197   196    1
   151    41    40    2
   152   200   201    1
   153   161   162    1
   154    39    40    1
   155    39    38    1
   156    83    81    1
   157   166   168   ar
   158   166   165    1
   159    40    48   am
   160   191   190    2
   161    81    82    1
   162   194   192    1
   163    64    63    2
   164    55    53    1
   165   201   203    1
   166    48    49    1
   167   162   165    1
   168   162   163    1
   169    51    50    2
   170   190   189    1
   171    49    50    1
   172    49    52    1
   173    63    62    1
   174   192   189    1
   175   192   193    1
   176    53    52    1
   177    53    54    1
   178   189   188    1
   179    62    61    1
   180    62    65    1
   181   163   164    2
   182    67    66    1
   183    67    68    1
   184    37    36    1
   185   193   195    1
   186    35    34    2
   187    33    32    1
   188    33    36    1
   189    33    34    1
   190   183   182    2
   191    66    65    1
   192   188   182   am
   193   182   181    1
   194   178   177    1
   195   186   185    1
   196   181   180    1
   197   181   184    1
   198   185   184    1
   199   185   187    1
   200   177   176    1
   201   177   179    1
   202   176   173    1
   203   172   173    1
   204   173   174    1
   205   174   175    2
