@<TRIPOS>MOLECULE
tmp/5w4wD00.pdb
 149 139 0 0 0
SMALL
GASTEIGER

@<TRIPOS>ATOM
      1  N         56.4540   42.3820  -29.9630 N.3    13  ILE13      -0.1231
      2  CA        55.0020   42.2010  -29.8720 C.3    13  ILE13       0.1692
      3  C         54.4370   42.8670  -28.6290 C.2    13  ILE13       0.2593
      4  O         53.2170   42.9590  -28.4830 O.2    13  ILE13      -0.2718
      5  CB        54.5500   40.7230  -30.0270 C.3    13  ILE13       0.0266
      6  CG1       55.1640   39.7940  -28.9460 C.3    13  ILE13       0.0019
      7  CG2       54.8180   40.2230  -31.4690 C.3    13  ILE13       0.0020
      8  CD1       54.5690   38.2800  -28.9200 C.3    13  ILE13       0.0001
      9  N         55.3310   43.3840  -27.7910 N.am   14  GLY14      -0.1942
     10  CA        54.9880   44.0970  -26.5710 C.3    14  GLY14       0.2014
     11  C         56.2030   44.4540  -25.7450 C.2    14  GLY14       0.2640
     12  O         57.3380   44.2700  -26.1870 O.2    14  GLY14      -0.2714
     13  N         55.9680   44.9900  -24.5460 N.am   15  SER15      -0.1935
     14  CA        57.0150   45.3790  -23.6030 C.3    15  SER15       0.2055
     15  C         56.6630   44.8030  -22.2500 C.2    15  SER15       0.2643
     16  O         55.4850   44.6190  -21.9580 O.2    15  SER15      -0.2714
     17  CB        57.1170   46.8970  -23.5140 C.3    15  SER15       0.2130
     18  OG        58.2920   47.2840  -22.8170 O.3    15  SER15      -0.2179
     19  N         57.6720   44.4950  -21.4520 N.am   16  GLY16      -0.1954
     20  CA        57.4980   43.9270  -20.1200 C.3    16  GLY16       0.1869
     21  C         58.2940   44.6620  -19.0670 C.2    16  GLY16       0.2309
     22  O         58.7960   45.7590  -19.3310 O.2    16  GLY16      -0.2863
     23  N         59.2680   42.2520  -25.0750 N.3    21  ILE21      -0.1245
     24  CA        58.7120   40.9610  -25.4960 C.3    21  ILE21       0.1561
     25  C         58.6930   40.8570  -27.0190 C.2    21  ILE21       0.2260
     26  O         58.2220   41.7660  -27.7120 O.2    21  ILE21      -0.2867
     27  CB        57.2880   40.7120  -24.8900 C.3    21  ILE21       0.0252
     28  CG1       57.1870   41.0950  -23.3640 C.3    21  ILE21       0.0019
     29  CG2       56.7790   39.2690  -25.1630 C.3    21  ILE21       0.0019
     30  CD1       58.1460   40.4260  -22.3400 C.3    21  ILE21       0.0001
     31  N         56.8780   33.4140  -26.7780 N.3    34  ALA34      -0.1245
     32  CA        57.1060   34.8180  -26.4450 C.3    34  ALA34       0.1562
     33  C         58.5010   34.8210  -25.8330 C.2    34  ALA34       0.2260
     34  O         58.7810   33.9960  -24.9640 O.2    34  ALA34      -0.2867
     35  CB        56.0760   35.3190  -25.4220 C.3    34  ALA34       0.0290
     36  N         61.4230   37.0570  -23.8590 N.3    36  LYS36      -0.1245
     37  CA        61.7680   38.2260  -23.0600 C.3    36  LYS36       0.1561
     38  C         63.3000   38.4400  -23.1460 C.2    36  LYS36       0.2260
     39  O         64.0720   37.5230  -22.8410 O.2    36  LYS36      -0.2867
     40  CB        61.3000   38.0490  -21.6060 C.3    36  LYS36       0.0271
     41  CG        61.5380   39.2730  -20.7080 C.3    36  LYS36       0.0035
     42  CD        60.8530   39.0920  -19.3650 C.3    36  LYS36       0.0206
     43  CE        60.6700   40.4080  -18.6710 C.3    36  LYS36       0.1093
     44  NZ        60.3820   40.2370  -17.2230 N.3    36  LYS36      -0.1314
     45  N         59.9890   31.5730  -11.6330 N.3    50  TYR50      -0.1241
     46  CA        59.1390   30.8500  -12.5830 C.3    50  TYR50       0.1605
     47  C         59.3820   29.3320  -12.4910 C.2    50  TYR50       0.2264
     48  O         58.4030   28.5810  -12.4590 O.2    50  TYR50      -0.2867
     49  CB        59.4050   31.3060  -14.0270 C.3    50  TYR50       0.0534
     50  CG        58.6430   32.5400  -14.4670 C.ar   50  TYR50      -0.0201
     51  CD1       57.2550   32.5160  -14.6070 C.ar   50  TYR50      -0.0009
     52  CD2       59.3140   33.7080  -14.8230 C.ar   50  TYR50      -0.0009
     53  CE1       56.5490   33.6300  -15.0710 C.ar   50  TYR50       0.0417
     54  CE2       58.6170   34.8350  -15.2690 C.ar   50  TYR50       0.0417
     55  CZ        57.2330   34.7920  -15.3820 C.ar   50  TYR50       0.1957
     56  OH        56.5450   35.8790  -15.8720 O.3    50  TYR50      -0.2866
     57  N         58.2360   27.9140  -18.7760 N.3    62  ILE62      -0.1245
     58  CA        59.4590   28.5330  -19.2850 C.3    62  ILE62       0.1561
     59  C         60.2000   27.4540  -20.0580 C.2    62  ILE62       0.2260
     60  O         60.5720   26.4160  -19.4990 O.2    62  ILE62      -0.2867
     61  CB        60.3010   29.2470  -18.1950 C.3    62  ILE62       0.0252
     62  CG1       60.7350   28.2990  -17.0550 C.3    62  ILE62       0.0019
     63  CG2       59.5170   30.4550  -17.6520 C.3    62  ILE62       0.0019
     64  CD1       62.0760   28.7440  -16.1920 C.3    62  ILE62       0.0001
     65  N         64.8420   34.7290  -22.0050 N.3    74  MET74      -0.1245
     66  CA        63.8870   33.8330  -21.3980 C.3    74  MET74       0.1570
     67  C         62.7940   33.5690  -22.4210 C.2    74  MET74       0.2261
     68  O         62.2950   34.4940  -23.0490 O.2    74  MET74      -0.2867
     69  CB        63.3310   34.3830  -20.0690 C.3    74  MET74       0.0387
     70  CG        62.6500   33.3020  -19.2340 C.3    74  MET74       0.0595
     71  SD        62.1700   33.7860  -17.5530 S.3    74  MET74      -0.1393
     72  CE        61.1620   35.0910  -17.8780 C.3    74  MET74       0.0692
     73  N         59.0700   31.7790  -23.1090 N.3    76  MET76      -0.1230
     74  CA        57.8270   31.3370  -22.4970 C.3    76  MET76       0.1702
     75  C         56.8550   30.8830  -23.5990 C.2    76  MET76       0.2595
     76  O         56.9230   31.3710  -24.7310 O.2    76  MET76      -0.2718
     77  CB        57.2350   32.5240  -21.7140 C.3    76  MET76       0.0401
     78  CG        55.9280   32.2410  -21.0090 C.3    76  MET76       0.0596
     79  SD        55.2750   33.7160  -20.1870 S.3    76  MET76      -0.1393
     80  CE        56.3190   33.7600  -18.7200 C.3    76  MET76       0.0692
     81  N         55.9360   29.9710  -23.2630 N.am   77  GLU77      -0.1920
     82  CA        54.8800   29.5570  -24.1800 C.3    77  GLU77       0.1949
     83  C         54.0740   30.8230  -24.5400 C.2    77  GLU77       0.2659
     84  O         53.9850   31.7350  -23.7210 O.2    77  GLU77      -0.2711
     85  CB        53.9480   28.5090  -23.5190 C.2    77  GLU77       0.0111
     86  CG        53.2210   28.9900  -22.2620 C.2    77  GLU77       0.0838
     87  CD        52.3540   27.9670  -21.5600 C.2    77  GLU77       0.3877
     88  OE1       51.7170   27.1320  -22.2420 O.co2  77  GLU77      -0.2406
     89  OE2       52.3650   27.9640  -20.3110 O.co2  77  GLU77      -0.2406
     90  N         53.5360   30.8890  -25.7590 N.am   78  LEU78      -0.1961
     91  CA        52.7570   32.0460  -26.1740 C.3    78  LEU78       0.1728
     92  C         51.4190   32.0410  -25.4590 C.2    78  LEU78       0.2616
     93  O         50.7520   31.0050  -25.3840 O.2    78  LEU78      -0.2715
     94  CB        52.5620   32.0890  -27.7040 C.3    78  LEU78       0.0311
     95  CG        51.9370   33.3940  -28.2560 C.3    78  LEU78       0.0022
     96  CD1       52.9040   34.5640  -28.1370 C.3    78  LEU78       0.0001
     97  CD2       51.5520   33.2270  -29.7030 C.3    78  LEU78       0.0001
     98  N         51.0570   33.1990  -24.8970 N.am   79  LEU79      -0.1963
     99  CA        49.8080   33.3910  -24.1680 C.3    79  LEU79       0.1728
    100  C         48.9760   34.4130  -24.9080 C.2    79  LEU79       0.2616
    101  O         49.4730   35.0690  -25.8300 O.2    79  LEU79      -0.2715
    102  CB        50.0760   33.8460  -22.7040 C.3    79  LEU79       0.0311
    103  CG        50.8840   32.8860  -21.8170 C.3    79  LEU79       0.0022
    104  CD1       51.1500   33.4980  -20.4510 C.3    79  LEU79       0.0001
    105  CD2       50.1900   31.5240  -21.6720 C.3    79  LEU79       0.0001
    106  N         47.7230   34.5460  -24.4860 N.am   80  GLY80      -0.1955
    107  CA        46.7810   35.4780  -25.0750 C.3    80  GLY80       0.1869
    108  C         46.8710   36.8610  -24.4630 C.2    80  GLY80       0.2309
    109  O         47.8240   37.1670  -23.7430 O.2    80  GLY80      -0.2863
    110  N         47.2550   43.9090  -16.0680 N.3   126  ASP126     -0.1225
    111  CA        48.3500   43.7170  -17.0410 C.3   126  ASP126      0.1805
    112  C         49.1640   42.4570  -16.7630 C.2   126  ASP126      0.2597
    113  O         49.7640   41.9220  -17.6830 O.2   126  ASP126     -0.2718
    114  CB        49.2760   44.9490  -17.0720 C.3   126  ASP126      0.1424
    115  CG        48.5740   46.3210  -17.0590 C.2   126  ASP126      0.3668
    116  OD1       47.5530   46.4820  -16.3120 O.co2 126  ASP126     -0.2456
    117  OD2       49.1170   47.2590  -17.6320 O.co2 126  ASP126     -0.2456
    118  N         49.2000   41.9900  -15.5010 N.am  127  ASN127     -0.1974
    119  CA        49.9760   40.8240  -15.0960 C.3   127  ASN127      0.1688
    120  C         49.1980   39.5240  -15.0640 C.2   127  ASN127      0.2292
    121  O         49.7260   38.5180  -14.5920 O.2   127  ASN127     -0.2864
    122  CB        50.6970   41.0810  -13.7760 C.3   127  ASN127      0.1181
    123  CG        51.8720   42.0040  -13.9820 C.2   127  ASN127      0.2629
    124  OD1       52.3220   42.2090  -15.0940 O.2   127  ASN127     -0.2716
    125  ND2       52.3590   42.6170  -12.9300 N.am  127  ASN127     -0.0877
    126  N         47.2260   37.0880  -17.8630 N.3   129  LEU129     -0.1245
    127  CA        46.9820   36.8730  -19.3080 C.3   129  LEU129      0.1561
    128  C         46.1060   35.6550  -19.4860 C.2   129  LEU129      0.2260
    129  O         46.3210   34.6460  -18.8030 O.2   129  LEU129     -0.2867
    130  CB        48.2920   36.6130  -20.1280 C.3   129  LEU129      0.0270
    131  CG        49.5330   37.4820  -19.9690 C.3   129  LEU129      0.0019
    132  CD1       50.4410   37.3990  -21.1840 C.3   129  LEU129      0.0001
    133  CD2       49.2420   38.9280  -19.7030 C.3   129  LEU129      0.0001
    134  N         51.7150   36.3960  -14.5490 N.3   142  ILE142     -0.1231
    135  CA        53.0570   36.6500  -15.0660 C.3   142  ILE142      0.1692
    136  C         53.7540   37.7200  -14.2410 C.2   142  ILE142      0.2592
    137  O         53.1520   38.3090  -13.3470 O.2   142  ILE142     -0.2718
    138  CB        53.0440   37.0480  -16.5790 C.3   142  ILE142      0.0266
    139  CG1       52.2950   38.3710  -16.8180 C.3   142  ILE142      0.0019
    140  CG2       52.5200   35.9060  -17.4740 C.3   142  ILE142      0.0020
    141  CD1       52.8280   39.2350  -17.8670 C.3   142  ILE142      0.0001
    142  N         55.0310   37.9700  -14.5880 N.am  143  ASP143     -0.1974
    143  CA        55.8940   39.0130  -14.0760 C.3   143  ASP143      0.1709
    144  C         56.2340   38.8610  -12.6200 C.2   143  ASP143      0.2293
    145  O         55.5080   39.3440  -11.7500 O.2   143  ASP143     -0.2864
    146  CB        55.3110   40.4040  -14.3710 C.3   143  ASP143      0.1436
    147  CG        56.3560   41.3810  -14.8300 C.2   143  ASP143      0.3671
    148  OD1       57.3060   41.6390  -14.0530 O.co2 143  ASP143     -0.2456
    149  OD2       56.2350   41.8840  -15.9710 O.co2 143  ASP143     -0.2456
@<TRIPOS>BOND
     1     7     5    1
     2     5     2    1
     3     5     6    1
     4     1     2    1
     5     2     3    1
     6    97    95    1
     7     6     8    1
     8     3     4    2
     9     3     9   am
    10    95    96    1
    11    95    94    1
    12     9    10    1
    13    26    25    2
    14    94    91    1
    15    25    24    1
    16    31    32    1
    17    10    11    1
    18    32    33    1
    19    32    35    1
    20    12    11    2
    21    91    90    1
    22    91    92    1
    23    33    34    2
    24   101   100    2
    25    90    83   am
    26    11    13   am
    27    24    23    1
    28    24    27    1
    29    92    93    2
    30    92    98   am
    31    29    27    1
    32   107   106    1
    33   107   108    1
    34   100   106   am
    35   100    99    1
    36    98    99    1
    37    27    28    1
    38    76    75    2
    39    13    14    1
    40    83    82    1
    41    83    84    2
    42   108   109    2
    43    82    85    1
    44    82    81    1
    45    99   102    1
    46    36    37    1
    47    14    17    1
    48    14    15    1
    49    75    81   am
    50    75    74    1
    51    85    86    2
    52    17    18    1
    53    28    30    1
    54    38    37    1
    55    38    39    2
    56    73    74    1
    57    37    40    1
    58    68    67    2
    59   102   103    1
    60    74    77    1
    61    67    66    1
    62    86    87    1
    63    15    16    2
    64    15    19   am
    65    88    87   ar
    66    65    66    1
    67   103   105    1
    68   103   104    1
    69    77    78    1
    70    40    41    1
    71    87    89   ar
    72    19    20    1
    73    66    69    1
    74   132   131    1
    75    78    79    1
    76    41    42    1
    77    79    80    1
    78   130   131    1
    79   130   127    1
    80    20    21    1
    81    69    70    1
    82    59    60    2
    83    59    58    1
    84   131   133    1
    85   128   127    1
    86   128   129    2
    87    42    43    1
    88    22    21    2
    89   127   126    1
    90    58    57    1
    91    58    61    1
    92    70    71    1
    93    43    44    1
    94    61    63    1
    95    61    62    1
    96    72    71    1
    97   141   139    1
    98   113   112    2
    99   117   115   ar
   100   140   138    1
   101   114   115    1
   102   114   111    1
   103   115   116   ar
   104    62    64    1
   105   111   112    1
   106   111   110    1
   107   139   138    1
   108   112   118   am
   109   138   135    1
   110   149   147   ar
   111    56    55    1
   112   118   119    1
   113    55    54   ar
   114    55    53   ar
   115    54    52   ar
   116   119   120    1
   117   119   122    1
   118   124   123    2
   119    53    51   ar
   120   135   134    1
   121   135   136    1
   122   120   121    2
   123   147   146    1
   124   147   148   ar
   125    52    50   ar
   126    51    50   ar
   127   142   136   am
   128   142   143    1
   129    50    49    1
   130   146   143    1
   131   136   137    2
   132   143   144    1
   133    49    46    1
   134   123   122    1
   135   123   125   am
   136   144   145    2
   137    46    47    1
   138    46    45    1
   139    47    48    2
