@<TRIPOS>MOLECULE
tmp/5w4xC00.pdb
 104 100 0 0 0
SMALL
GASTEIGER

@<TRIPOS>ATOM
      1  N        -30.0980  -23.8880  -19.6200 N.3   164  ALA164     -0.1231
      2  CA       -30.4430  -22.4890  -19.4110 C.3   164  ALA164      0.1694
      3  C        -31.9340  -22.3620  -19.1210 C.2   164  ALA164      0.2591
      4  O        -32.7680  -22.8400  -19.8940 O.2   164  ALA164     -0.2718
      5  CB       -30.0680  -21.6660  -20.6300 C.3   164  ALA164      0.0304
      6  N        -32.2620  -21.7340  -17.9960 N.am  165  GLU165     -0.1979
      7  CA       -33.6530  -21.5300  -17.6040 C.3   165  GLU165      0.1602
      8  C        -34.4130  -20.7300  -18.6610 C.2   165  GLU165      0.2287
      9  O        -34.0800  -19.5770  -18.9400 O.2   165  GLU165     -0.2864
     10  CB       -33.7250  -20.8300  -16.2430 C.3   165  GLU165      0.0415
     11  CG       -35.0680  -20.9640  -15.5370 C.3   165  GLU165      0.1163
     12  CD       -35.0390  -20.4190  -14.1190 C.2   165  GLU165      0.3649
     13  OE1      -33.9620  -20.4590  -13.4860 O.co2 165  GLU165     -0.2457
     14  OE2      -36.0930  -19.9540  -13.6380 O.co2 165  GLU165     -0.2457
     15  N        -18.7340  -11.6860  -21.5550 N.3   231  ILE231     -0.1245
     16  CA       -19.5750  -10.5070  -21.3760 C.3   231  ILE231      0.1561
     17  C        -18.7970   -9.3390  -20.7680 C.2   231  ILE231      0.2260
     18  O        -18.8800   -8.2050  -21.2500 O.2   231  ILE231     -0.2867
     19  CB       -20.8170  -10.8230  -20.5290 C.3   231  ILE231      0.0252
     20  CG1      -21.6740  -11.8730  -21.2370 C.3   231  ILE231      0.0019
     21  CG2      -21.6380   -9.5690  -20.2910 C.3   231  ILE231      0.0019
     22  CD1      -22.8840  -12.3070  -20.4460 C.3   231  ILE231      0.0001
     23  N        -22.6300  -14.4660  -26.8320 N.3   265  PHE265     -0.1241
     24  CA       -22.2720  -13.7970  -25.5810 C.3   265  PHE265      0.1605
     25  C        -21.3230  -12.6080  -25.7670 C.2   265  PHE265      0.2264
     26  O        -20.3630  -12.4450  -25.0170 O.2   265  PHE265     -0.2867
     27  CB       -21.6910  -14.8110  -24.5860 C.3   265  PHE265      0.0534
     28  CG       -22.7200  -15.4440  -23.6950 C.ar  265  PHE265     -0.0203
     29  CD1      -22.6200  -15.3420  -22.3170 C.ar  265  PHE265     -0.0042
     30  CD2      -23.7860  -16.1460  -24.2350 C.ar  265  PHE265     -0.0042
     31  CE1      -23.5660  -15.9260  -21.4940 C.ar  265  PHE265     -0.0003
     32  CE2      -24.7360  -16.7290  -23.4200 C.ar  265  PHE265     -0.0003
     33  CZ       -24.6260  -16.6200  -22.0460 C.ar  265  PHE265     -0.0000
     34  N        -22.8150   -9.3800  -26.5150 N.3   267  LYS267     -0.1245
     35  CA       -23.7060   -8.2270  -26.5490 C.3   267  LYS267      0.1561
     36  C        -23.5300   -7.3970  -25.2870 C.2   267  LYS267      0.2260
     37  O        -23.9710   -7.7870  -24.2040 O.2   267  LYS267     -0.2867
     38  CB       -25.1680   -8.6450  -26.7610 C.3   267  LYS267      0.0271
     39  CG       -25.4240   -9.3490  -28.0920 C.3   267  LYS267      0.0035
     40  CD       -24.8110   -8.5760  -29.2640 C.3   267  LYS267      0.0206
     41  CE       -24.7570   -9.4220  -30.5390 C.3   267  LYS267      0.1093
     42  NZ       -23.6150   -9.0580  -31.4370 N.3   267  LYS267     -0.1314
     43  N        -26.5770  -10.5680  -15.2690 N.3   273  GLY273     -0.1210
     44  CA       -27.2790  -10.9260  -14.0560 C.3   273  GLY273      0.1956
     45  C        -27.5480  -12.4140  -14.0630 C.2   273  GLY273      0.2612
     46  O        -26.9430  -13.1630  -14.8290 O.2   273  GLY273     -0.2717
     47  N        -28.4690  -12.8490  -13.2160 N.am  274  GLY274     -0.1942
     48  CA       -28.7790  -14.2590  -13.1250 C.3   274  GLY274      0.2014
     49  C        -28.2110  -14.8780  -11.8690 C.2   274  GLY274      0.2640
     50  O        -27.3280  -14.3190  -11.2260 O.2   274  GLY274     -0.2714
     51  N        -28.7350  -16.0430  -11.5170 N.am  275  SER275     -0.1935
     52  CA       -28.3740  -16.7090  -10.2780 C.3   275  SER275      0.2055
     53  C        -27.1940  -17.6640  -10.4510 C.2   275  SER275      0.2643
     54  O        -26.9540  -18.5120   -9.5930 O.2   275  SER275     -0.2714
     55  CB       -29.5870  -17.4660   -9.7450 C.3   275  SER275      0.2130
     56  OG       -30.3160  -18.0530  -10.8110 O.3   275  SER275     -0.2179
     57  N        -26.4560  -17.5290  -11.5540 N.am  276  CYS276     -0.1953
     58  CA       -25.4050  -18.4950  -11.8730 C.3   276  CYS276      0.1843
     59  C        -24.0210  -17.8840  -12.0640 C.2   276  CYS276      0.2625
     60  O        -23.0520  -18.3260  -11.4480 O.2   276  CYS276     -0.2714
     61  CB       -25.7750  -19.2890  -13.1320 C.3   276  CYS276      0.0997
     62  SG       -27.3250  -20.2070  -13.0260 S.3   276  CYS276     -0.0797
     63  N        -23.9350  -16.8670  -12.9150 N.am  277  PHE277     -0.1974
     64  CA       -22.6430  -16.3290  -13.3330 C.3   277  PHE277      0.1639
     65  C        -21.7990  -15.7870  -12.1850 C.2   277  PHE277      0.2290
     66  O        -20.6650  -16.2240  -11.9960 O.2   277  PHE277     -0.2864
     67  CB       -22.8140  -15.2810  -14.4360 C.3   277  PHE277      0.0560
     68  CG       -23.3040  -15.8560  -15.7310 C.ar  277  PHE277     -0.0200
     69  CD1      -22.8040  -17.0610  -16.1960 C.ar  277  PHE277     -0.0042
     70  CD2      -24.2680  -15.2020  -16.4790 C.ar  277  PHE277     -0.0042
     71  CE1      -23.2580  -17.6080  -17.3850 C.ar  277  PHE277     -0.0003
     72  CE2      -24.7250  -15.7390  -17.6680 C.ar  277  PHE277     -0.0003
     73  CZ       -24.2170  -16.9450  -18.1220 C.ar  277  PHE277     -0.0000
     74  N        -33.5080   -9.5970  -14.8030 N.3   338  PHE338     -0.1227
     75  CA       -32.1020   -9.6600  -15.2010 C.3   338  PHE338      0.1736
     76  C        -31.9080   -9.8470  -16.7050 C.2   338  PHE338      0.2595
     77  O        -30.8180   -9.6210  -17.2330 O.2   338  PHE338     -0.2718
     78  CB       -31.3390  -10.7210  -14.3920 C.3   338  PHE338      0.0547
     79  CG       -31.4880  -12.1240  -14.9100 C.ar  338  PHE338     -0.0202
     80  CD1      -30.5480  -12.6590  -15.7750 C.ar  338  PHE338     -0.0042
     81  CD2      -32.5450  -12.9210  -14.5040 C.ar  338  PHE338     -0.0042
     82  CE1      -30.6730  -13.9510  -16.2430 C.ar  338  PHE338     -0.0003
     83  CE2      -32.6750  -14.2190  -14.9700 C.ar  338  PHE338     -0.0003
     84  CZ       -31.7370  -14.7330  -15.8390 C.ar  338  PHE338     -0.0000
     85  N        -32.9720  -10.2710  -17.3790 N.am  339  LYS339     -0.1980
     86  CA       -32.9940  -10.3760  -18.8340 C.3   339  LYS339      0.1596
     87  C        -34.4520  -10.3490  -19.2770 C.2   339  LYS339      0.2287
     88  O        -35.3540  -10.4190  -18.4430 O.2   339  LYS339     -0.2864
     89  CB       -32.3230  -11.6640  -19.3100 C.3   339  LYS339      0.0298
     90  CG       -33.1410  -12.9190  -19.0570 C.3   339  LYS339      0.0038
     91  CD       -32.4310  -14.1560  -19.5800 C.3   339  LYS339      0.0206
     92  CE       -33.3360  -15.3770  -19.5140 C.3   339  LYS339      0.1093
     93  NZ       -32.6730  -16.5930  -20.0610 N.3   339  LYS339     -0.1314
     94  N        -29.1560   -1.4500  -22.9240 N.3   437  ARG437     -0.1245
     95  CA       -29.2540   -2.7640  -23.5490 C.3   437  ARG437      0.1563
     96  C        -29.1940   -2.6900  -25.0720 C.2   437  ARG437      0.2260
     97  O        -29.4160   -3.6900  -25.7560 O.2   437  ARG437     -0.2867
     98  CB       -30.5480   -3.4580  -23.1170 C.3   437  ARG437      0.0307
     99  CG       -30.6470   -3.7740  -21.6290 C.3   437  ARG437      0.0489
    100  CD       -29.7950   -4.9690  -21.2470 C.3   437  ARG437      0.2205
    101  NE       -29.8570   -5.2400  -19.8130 N.pl3 437  ARG437     -0.0865
    102  CZ       -29.5090   -6.3960  -19.2570 C.cat 437  ARG437      0.5346
    103  NH1      -29.0770   -7.3940  -20.0160 N.pl3 437  ARG437      0.1354
    104  NH2      -29.6000   -6.5580  -17.9440 N.pl3 437  ARG437      0.1354
@<TRIPOS>BOND
     1    42    41    1
     2    41    40    1
     3    40    39    1
     4    39    38    1
     5    23    24    1
     6    38    35    1
     7    35    34    1
     8    35    36    1
     9    25    24    1
    10    25    26    2
    11    97    96    2
    12    24    27    1
    13    36    37    2
    14    96    95    1
    15    27    28    1
    16    30    28   ar
    17    30    32   ar
    18    28    29   ar
    19    95    98    1
    20    95    94    1
    21    32    33   ar
    22    98    99    1
    23    29    31   ar
    24    33    31   ar
    25    99   100    1
    26    15    16    1
    27    16    17    1
    28    16    19    1
    29    18    17    2
    30   100   101    1
    31    20    19    1
    32    20    22    1
    33     5     2    1
    34    19    21    1
    35    93    92    1
    36   103   102    1
    37     4     3    2
    38   101   102    2
    39     1     2    1
    40    91    92    1
    41    91    90    1
    42     2     3    1
    43    89    90    1
    44    89    86    1
    45    87    86    1
    46    87    88    2
    47   102   104    1
    48     3     6   am
    49     9     8    2
    50    86    85    1
    51     8     7    1
    52    73    72   ar
    53    73    71   ar
    54     6     7    1
    55    72    70   ar
    56     7    10    1
    57    71    69   ar
    58    85    76   am
    59    77    76    2
    60    76    75    1
    61    70    68   ar
    62    82    84   ar
    63    82    80   ar
    64    10    11    1
    65    69    68   ar
    66    84    83   ar
    67    80    79   ar
    68    68    67    1
    69    11    12    1
    70    43    44    1
    71    75    74    1
    72    75    78    1
    73    83    81   ar
    74    79    81   ar
    75    79    78    1
    76    46    45    2
    77    67    64    1
    78    12    14   ar
    79    12    13   ar
    80    45    44    1
    81    45    47   am
    82    64    63    1
    83    64    65    1
    84    47    48    1
    85    61    62    1
    86    61    58    1
    87    48    49    1
    88    63    59   am
    89    65    66    2
    90    59    58    1
    91    59    60    2
    92    58    57    1
    93    49    51   am
    94    49    50    2
    95    57    53   am
    96    51    52    1
    97    56    55    1
    98    53    52    1
    99    53    54    2
   100    52    55    1
