@<TRIPOS>MOLECULE
tmp/5w4xA00.pdb
 163 156 0 0 0
SMALL
GASTEIGER

@<TRIPOS>ATOM
      1  N          5.7530   -9.7490   40.9940 N.3   161  PHE161     -0.1227
      2  CA         6.1300  -10.8250   40.0790 C.3   161  PHE161      0.1736
      3  C          5.4380  -12.1250   40.4660 C.2   161  PHE161      0.2595
      4  O          5.9130  -13.2110   40.1360 O.2   161  PHE161     -0.2718
      5  CB         7.6480  -11.0270   40.0600 C.3   161  PHE161      0.0547
      6  CG         8.3950   -9.9530   39.3260 C.ar  161  PHE161     -0.0202
      7  CD1        8.3660   -9.8940   37.9430 C.ar  161  PHE161     -0.0042
      8  CD2        9.1160   -8.9930   40.0190 C.ar  161  PHE161     -0.0042
      9  CE1        9.0520   -8.9030   37.2640 C.ar  161  PHE161     -0.0003
     10  CE2        9.8010   -8.0010   39.3500 C.ar  161  PHE161     -0.0003
     11  CZ         9.7690   -7.9550   37.9680 C.ar  161  PHE161     -0.0000
     12  N          4.3100  -12.0120   41.1610 N.am  162  LEU162     -0.1966
     13  CA         3.5950  -13.1920   41.6270 C.3   162  LEU162      0.1728
     14  C          2.5280  -13.6610   40.6450 C.2   162  LEU162      0.2616
     15  O          1.6700  -12.8900   40.2200 O.2   162  LEU162     -0.2715
     16  CB         2.9860  -12.9570   43.0140 C.3   162  LEU162      0.0311
     17  CG         2.0700  -11.7550   43.2330 C.3   162  LEU162      0.0022
     18  CD1        0.6130  -12.1820   43.1490 C.3   162  LEU162      0.0001
     19  CD2        2.3620  -11.0940   44.5720 C.3   162  LEU162      0.0001
     20  N          2.6010  -14.9380   40.2890 N.am  163  ALA163     -0.1963
     21  CA         1.5860  -15.5750   39.4630 C.3   163  ALA163      0.1728
     22  C          0.4020  -15.9700   40.3400 C.2   163  ALA163      0.2616
     23  O          0.5770  -16.6430   41.3560 O.2   163  ALA163     -0.2715
     24  CB         2.1650  -16.7940   38.7610 C.3   163  ALA163      0.0334
     25  N         -0.7950  -15.5320   39.9610 N.am  164  GLU164     -0.1977
     26  CA        -2.0060  -15.8600   40.7080 C.3   164  GLU164      0.1602
     27  C         -2.1900  -17.3740   40.8100 C.2   164  GLU164      0.2287
     28  O         -2.3370  -18.0610   39.7990 O.2   164  GLU164     -0.2864
     29  CB        -3.2260  -15.2110   40.0490 C.3   164  GLU164      0.0415
     30  CG        -4.4590  -15.1180   40.9360 C.3   164  GLU164      0.1163
     31  CD        -5.5760  -14.3020   40.3010 C.2   164  GLU164      0.3649
     32  OE1       -5.2710  -13.3750   39.5200 O.co2 164  GLU164     -0.2457
     33  OE2       -6.7610  -14.5930   40.5760 O.co2 164  GLU164     -0.2457
     34  N          9.2970   -4.8680   34.3450 N.3   219  LYS219     -0.1245
     35  CA         8.1030   -5.6740   34.5680 C.3   219  LYS219      0.1561
     36  C          7.3780   -5.9770   33.2600 C.2   219  LYS219      0.2260
     37  O          6.8890   -7.0880   33.0590 O.2   219  LYS219     -0.2867
     38  CB         7.1630   -4.9920   35.5650 C.3   219  LYS219      0.0271
     39  CG         5.8020   -5.6600   35.6890 C.3   219  LYS219      0.0035
     40  CD         5.9160   -7.1270   36.0920 C.3   219  LYS219      0.0206
     41  CE         4.5370   -7.7470   36.2490 C.3   219  LYS219      0.1093
     42  NZ         4.5850   -9.2290   36.2980 N.3   219  LYS219     -0.1314
     43  N          7.3210   -9.9310   31.0290 N.3   223  ASN223     -0.1240
     44  CA         6.1450  -10.6020   30.4730 C.3   223  ASN223      0.1653
     45  C          6.2140  -10.7660   28.9500 C.2   223  ASN223      0.2266
     46  O          5.7520  -11.7680   28.4040 O.2   223  ASN223     -0.2867
     47  CB         4.8490   -9.8850   30.8570 C.3   223  ASN223      0.1155
     48  CG         4.3680  -10.2440   32.2510 C.2   223  ASN223      0.2627
     49  OD1        4.8220  -11.2190   32.8500 O.2   223  ASN223     -0.2716
     50  ND2        3.4250   -9.4630   32.7680 N.am  223  ASN223     -0.0877
     51  N          8.6130  -13.5970   28.0230 N.3   226  LEU226     -0.1245
     52  CA         7.8810  -14.8310   28.2650 C.3   226  LEU226      0.1561
     53  C          6.9070  -15.1320   27.1280 C.2   226  LEU226      0.2260
     54  O          6.9370  -16.2190   26.5550 O.2   226  LEU226     -0.2867
     55  CB         7.1510  -14.7660   29.6090 C.3   226  LEU226      0.0270
     56  CG         8.0490  -14.9200   30.8400 C.3   226  LEU226      0.0019
     57  CD1        7.3070  -14.6130   32.1360 C.3   226  LEU226      0.0001
     58  CD2        8.5840  -16.3350   30.8760 C.3   226  LEU226      0.0001
     59  N          6.5530  -18.2690   23.9260 N.3   230  ILE230     -0.1245
     60  CA         5.3870  -19.0750   23.5740 C.3   230  ILE230      0.1561
     61  C          4.9980  -18.9230   22.1070 C.2   230  ILE230      0.2260
     62  O          4.7540  -19.9160   21.4200 O.2   230  ILE230     -0.2867
     63  CB         4.1810  -18.7530   24.4680 C.3   230  ILE230      0.0252
     64  CG1        4.5010  -19.0960   25.9220 C.3   230  ILE230      0.0019
     65  CG2        2.9630  -19.5370   24.0250 C.3   230  ILE230      0.0019
     66  CD1        3.3960  -18.7350   26.8780 C.3   230  ILE230      0.0001
     67  N          8.7240  -22.5080   29.3400 N.3   264  PHE264     -0.1241
     68  CA         7.8810  -21.7620   28.4040 C.3   264  PHE264      0.1605
     69  C          8.0980  -22.1340   26.9350 C.2   264  PHE264      0.2264
     70  O          8.2060  -21.2640   26.0720 O.2   264  PHE264     -0.2867
     71  CB         8.0500  -20.2550   28.6050 C.3   264  PHE264      0.0534
     72  CG         7.0730  -19.6670   29.5760 C.ar  264  PHE264     -0.0203
     73  CD1        6.1820  -18.6810   29.1710 C.ar  264  PHE264     -0.0042
     74  CD2        7.0250  -20.1150   30.8870 C.ar  264  PHE264     -0.0042
     75  CE1        5.2720  -18.1430   30.0590 C.ar  264  PHE264     -0.0003
     76  CE2        6.1190  -19.5780   31.7850 C.ar  264  PHE264     -0.0003
     77  CZ         5.2390  -18.5900   31.3700 C.ar  264  PHE264     -0.0000
     78  N          0.8110  -24.5450   22.0410 N.3   268  SER268     -0.1217
     79  CA        -0.5920  -24.6220   22.4020 C.3   268  SER268      0.1889
     80  C         -1.4230  -23.8390   21.4110 C.2   268  SER268      0.2288
     81  O         -0.8950  -23.2390   20.4730 O.2   268  SER268     -0.2866
     82  CB        -0.8160  -24.0500   23.8030 C.3   268  SER268      0.2089
     83  OG        -0.6190  -22.6440   23.8180 O.3   268  SER268     -0.2183
     84  N         -2.8140  -21.2210   21.9950 N.3   270  GLY270     -0.1210
     85  CA        -2.4780  -19.8250   22.2010 C.3   270  GLY270      0.1956
     86  C         -2.4540  -19.4740   23.6740 C.2   270  GLY270      0.2612
     87  O         -3.2110  -20.0410   24.4610 O.2   270  GLY270     -0.2717
     88  N         -1.5750  -18.5540   24.0610 N.am  271  PHE271     -0.1962
     89  CA        -1.5240  -18.1290   25.4530 C.3   271  PHE271      0.1771
     90  C         -2.7060  -17.2390   25.8370 C.2   271  PHE271      0.2620
     91  O         -3.2140  -16.4640   25.0280 O.2   271  PHE271     -0.2715
     92  CB        -0.1820  -17.4630   25.8120 C.3   271  PHE271      0.0574
     93  CG         0.1170  -16.1910   25.0520 C.ar  271  PHE271     -0.0200
     94  CD1       -0.5240  -15.0020   25.3660 C.ar  271  PHE271     -0.0042
     95  CD2        1.0920  -16.1730   24.0690 C.ar  271  PHE271     -0.0042
     96  CE1       -0.2360  -13.8350   24.6810 C.ar  271  PHE271     -0.0003
     97  CE2        1.3870  -15.0100   23.3860 C.ar  271  PHE271     -0.0003
     98  CZ         0.7200  -13.8390   23.6950 C.ar  271  PHE271     -0.0000
     99  N         -3.1330  -17.3580   27.0860 N.am  272  GLY272     -0.1940
    100  CA        -4.1950  -16.5290   27.6130 C.3   272  GLY272      0.2014
    101  C         -3.7360  -15.9100   28.9140 C.2   272  GLY272      0.2639
    102  O         -2.5470  -15.9290   29.2280 O.2   272  GLY272     -0.2714
    103  N         -4.6740  -15.3900   29.6930 N.am  273  GLY273     -0.1954
    104  CA        -4.3270  -14.7350   30.9380 C.3   273  GLY273      0.1869
    105  C         -4.4550  -13.2270   30.8480 C.2   273  GLY273      0.2309
    106  O         -4.4860  -12.6520   29.7570 O.2   273  GLY273     -0.2863
    107  N         -2.3950  -10.9010   31.7410 N.3   275  CYS275     -0.1221
    108  CA        -1.1040  -10.2280   31.8430 C.3   275  CYS275      0.1808
    109  C         -0.3770  -10.1430   30.5060 C.2   275  CYS275      0.2601
    110  O          0.0490   -9.0660   30.0890 O.2   275  CYS275     -0.2717
    111  CB        -0.2180  -10.9320   32.8730 C.3   275  CYS275      0.0970
    112  SG        -0.9400  -11.0090   34.5330 S.3   275  CYS275     -0.0800
    113  N         -0.2550  -11.2800   29.8310 N.am  276  PHE276     -0.1976
    114  CA         0.5760  -11.3740   28.6340 C.3   276  PHE276      0.1639
    115  C          0.1590  -10.4370   27.5140 C.2   276  PHE276      0.2290
    116  O          0.9540   -9.6110   27.0770 O.2   276  PHE276     -0.2864
    117  CB         0.6430  -12.8200   28.1300 C.3   276  PHE276      0.0560
    118  CG         1.4180  -13.7340   29.0310 C.ar  276  PHE276     -0.0200
    119  CD1        2.6280  -13.3290   29.5700 C.ar  276  PHE276     -0.0042
    120  CD2        0.9200  -14.9830   29.3710 C.ar  276  PHE276     -0.0042
    121  CE1        3.3440  -14.1660   30.4120 C.ar  276  PHE276     -0.0003
    122  CE2        1.6260  -15.8220   30.2120 C.ar  276  PHE276     -0.0003
    123  CZ         2.8410  -15.4130   30.7350 C.ar  276  PHE276     -0.0000
    124  N         -8.2740  -20.3260   30.8600 N.3   337  PHE337     -0.1227
    125  CA        -7.1140  -19.9740   30.0460 C.3   337  PHE337      0.1736
    126  C         -5.9550  -20.9410   30.2520 C.2   337  PHE337      0.2595
    127  O         -5.0280  -21.0020   29.4400 O.2   337  PHE337     -0.2718
    128  CB        -6.6900  -18.5170   30.2680 C.3   337  PHE337      0.0547
    129  CG        -5.8290  -18.3020   31.4780 C.ar  337  PHE337     -0.0202
    130  CD1       -4.4480  -18.3080   31.3720 C.ar  337  PHE337     -0.0042
    131  CD2       -6.4000  -18.0690   32.7190 C.ar  337  PHE337     -0.0042
    132  CE1       -3.6530  -18.1020   32.4840 C.ar  337  PHE337     -0.0003
    133  CE2       -5.6100  -17.8600   33.8330 C.ar  337  PHE337     -0.0003
    134  CZ        -4.2350  -17.8780   33.7160 C.ar  337  PHE337     -0.0000
    135  N         -6.0260  -21.6960   31.3440 N.am  338  LYS338     -0.1980
    136  CA        -5.0760  -22.7610   31.6310 C.3   338  LYS338      0.1596
    137  C         -5.7390  -23.7310   32.6000 C.2   338  LYS338      0.2287
    138  O         -6.8210  -23.4480   33.1110 O.2   338  LYS338     -0.2864
    139  CB        -3.7890  -22.1850   32.2210 C.3   338  LYS338      0.0298
    140  CG        -3.9160  -21.6650   33.6430 C.3   338  LYS338      0.0038
    141  CD        -2.5830  -21.1220   34.1300 C.3   338  LYS338      0.0206
    142  CE        -2.6300  -20.7690   35.6000 C.3   338  LYS338      0.1093
    143  NZ        -1.3150  -20.2650   36.0750 N.3   338  LYS338     -0.1314
    144  N         -5.8040  -27.7530   29.0440 N.3   409  GLU409     -0.1245
    145  CA        -5.0310  -28.9550   29.3470 C.3   409  GLU409      0.1567
    146  C         -5.4100  -29.6400   30.6640 C.2   409  GLU409      0.2260
    147  O         -4.5390  -30.1180   31.3900 O.2   409  GLU409     -0.2867
    148  CB        -3.5250  -28.6380   29.3070 C.3   409  GLU409      0.0388
    149  CG        -3.0060  -27.6790   30.3980 C.3   409  GLU409      0.1160
    150  CD        -3.4000  -26.2210   30.1850 C.2   409  GLU409      0.3649
    151  OE1       -4.1470  -25.9310   29.2270 O.co2 409  GLU409     -0.2457
    152  OE2       -2.9560  -25.3620   30.9830 O.co2 409  GLU409     -0.2457
    153  N         -3.7850  -28.8880   23.0570 N.3   435  ARG435     -0.1245
    154  CA        -2.8760  -28.7750   24.1940 C.3   435  ARG435      0.1563
    155  C         -1.9050  -29.9470   24.3080 C.2   435  ARG435      0.2260
    156  O         -1.1950  -30.0660   25.3080 O.2   435  ARG435     -0.2867
    157  CB        -3.6630  -28.6430   25.5000 C.3   435  ARG435      0.0307
    158  CG        -4.4940  -27.3790   25.6190 C.3   435  ARG435      0.0489
    159  CD        -3.6200  -26.1660   25.9060 C.3   435  ARG435      0.2205
    160  NE        -4.4120  -24.9430   25.9790 N.pl3 435  ARG435     -0.0865
    161  CZ        -3.9910  -23.8150   26.5370 C.cat 435  ARG435      0.5346
    162  NH1       -2.7790  -23.7490   27.0700 N.pl3 435  ARG435      0.1354
    163  NH2       -4.7830  -22.7520   26.5640 N.pl3 435  ARG435      0.1354
@<TRIPOS>BOND
     1    81    80    2
     2    80    79    1
     3    62    61    2
     4    84    85    1
     5    78    79    1
     6    61    60    1
     7    85    86    1
     8    79    82    1
     9   153   154    1
    10    97    98   ar
    11    97    95   ar
    12    60    59    1
    13    60    63    1
    14    86    88   am
    15    86    87    2
    16    98    96   ar
    17    82    83    1
    18    65    63    1
    19    88    89    1
    20    95    93   ar
    21   154   155    1
    22   154   157    1
    23   155   156    2
    24    63    64    1
    25    96    94   ar
    26    91    90    2
    27    93    94   ar
    28    93    92    1
    29    89    92    1
    30    89    90    1
    31   157   158    1
    32   158   159    1
    33    90    99   am
    34   159   160    1
    35    64    66    1
    36   160   161    2
    37    70    69    2
    38   161   163    1
    39   161   162    1
    40    54    53    2
    41    69    68    1
    42   116   115    2
    43    99   100    1
    44    53    52    1
    45   115   114    1
    46   100   101    1
    47    51    52    1
    48   117   114    1
    49   117   118    1
    50    52    55    1
    51    68    71    1
    52    68    67    1
    53    46    45    2
    54    71    72    1
    55   114   113    1
    56   101   102    2
    57   101   103   am
    58    45    44    1
    59   118   120   ar
    60   118   119   ar
    61   144   145    1
    62    73    72   ar
    63    73    75   ar
    64   151   150   ar
    65   148   145    1
    66   148   149    1
    67   145   146    1
    68   120   122   ar
    69   127   126    2
    70   119   121   ar
    71    72    74   ar
    72    55    56    1
    73   103   104    1
    74   106   105    2
    75   113   109   am
    76   125   126    1
    77   125   128    1
    78   125   124    1
    79    75    77   ar
    80   110   109    2
    81   150   149    1
    82   150   152   ar
    83   122   123   ar
    84   126   135   am
    85   128   129    1
    86   121   123   ar
    87    44    47    1
    88    44    43    1
    89   109   108    1
    90   146   147    2
    91    56    58    1
    92    56    57    1
    93   105   104    1
    94    47    48    1
    95    74    76   ar
    96   135   136    1
    97    77    76   ar
    98   130   129   ar
    99   130   132   ar
   100   129   131   ar
   101   136   139    1
   102   136   137    1
   103   107   108    1
   104   108   111    1
   105   139   140    1
   106    48    50   am
   107    48    49    2
   108   132   134   ar
   109   137   138    2
   110   131   133   ar
   111   111   112    1
   112    37    36    2
   113    36    35    1
   114   140   141    1
   115   134   133   ar
   116   141   142    1
   117    34    35    1
   118    35    38    1
   119    38    39    1
   120   142   143    1
   121    39    40    1
   122    40    41    1
   123    41    42    1
   124     9     7   ar
   125     9    11   ar
   126     7     6   ar
   127    11    10   ar
   128    24    21    1
   129     6     8   ar
   130     6     5    1
   131    10     8   ar
   132    21    20    1
   133    21    22    1
   134    32    31   ar
   135    28    27    2
   136    25    22   am
   137    25    26    1
   138    29    26    1
   139    29    30    1
   140     5     2    1
   141     2     3    1
   142     2     1    1
   143     4     3    2
   144    15    14    2
   145    20    14   am
   146    31    33   ar
   147    31    30    1
   148    22    23    2
   149     3    12   am
   150    14    13    1
   151    26    27    1
   152    12    13    1
   153    13    16    1
   154    16    17    1
   155    18    17    1
   156    17    19    1
