@<TRIPOS>MOLECULE
tmp/5w4yA00.pdb
 184 176 0 0 0
SMALL
GASTEIGER

@<TRIPOS>ATOM
      1  N         50.7410   11.7860   -0.4570 N.3     8  PHE8       -0.1241
      2  CA        50.4580   12.0280   -1.8660 C.3     8  PHE8        0.1605
      3  C         51.1130   10.9370   -2.6980 C.2     8  PHE8        0.2264
      4  O         52.3380   10.7920   -2.6810 O.2     8  PHE8       -0.2867
      5  CB        50.9810   13.3840   -2.3210 C.3     8  PHE8        0.0534
      6  CG        50.7370   13.6500   -3.7910 C.ar    8  PHE8       -0.0203
      7  CD1       49.5690   14.2080   -4.2220 C.ar    8  PHE8       -0.0042
      8  CD2       51.6770   13.3030   -4.7260 C.ar    8  PHE8       -0.0042
      9  CE1       49.3620   14.4410   -5.5700 C.ar    8  PHE8       -0.0003
     10  CE2       51.4610   13.5290   -6.0580 C.ar    8  PHE8       -0.0003
     11  CZ        50.3160   14.0920   -6.4730 C.ar    8  PHE8       -0.0000
     12  N         46.4010    9.5680   -0.6290 N.3    53  PHE53      -0.1241
     13  CA        45.7400   10.2570   -1.7330 C.3    53  PHE53       0.1605
     14  C         46.3480    9.7660   -3.0410 C.2    53  PHE53       0.2264
     15  O         47.5680    9.7810   -3.1960 O.2    53  PHE53      -0.2867
     16  CB        45.9210   11.7670   -1.5870 C.3    53  PHE53       0.0534
     17  CG        45.6650   12.5530   -2.8770 C.ar   53  PHE53      -0.0203
     18  CD1       46.5670   13.4980   -3.3100 C.ar   53  PHE53      -0.0042
     19  CD2       44.5600   12.2950   -3.6770 C.ar   53  PHE53      -0.0042
     20  CE1       46.3450   14.2150   -4.4910 C.ar   53  PHE53      -0.0003
     21  CE2       44.3440   13.0080   -4.8480 C.ar   53  PHE53      -0.0003
     22  CZ        45.2390   13.9710   -5.2420 C.ar   53  PHE53      -0.0000
     23  N         46.6200   10.5620   -6.8430 N.3    55  ALA55      -0.1231
     24  CA        46.4730   11.4690   -7.9640 C.3    55  ALA55       0.1694
     25  C         46.0870   10.6840   -9.1990 C.2    55  ALA55       0.2592
     26  O         46.1290    9.4520   -9.2260 O.2    55  ALA55      -0.2718
     27  CB        47.7720   12.2220   -8.2200 C.3    55  ALA55       0.0304
     28  N         45.6830   11.4020  -10.2350 N.am   56  ASP56      -0.1960
     29  CA        45.4250   10.7380  -11.5020 C.3    56  ASP56       0.1840
     30  C         45.6210   11.7160  -12.6520 C.2    56  ASP56       0.2621
     31  O         45.6280   12.9470  -12.4660 O.2    56  ASP56      -0.2715
     32  CB        44.0120   10.1800  -11.4940 C.3    56  ASP56       0.1450
     33  CG        43.7350    9.2510  -12.6300 C.2    56  ASP56       0.3671
     34  OD1       44.6820    8.5870  -13.1280 O.co2  56  ASP56      -0.2456
     35  OD2       42.5360    9.1850  -13.0040 O.co2  56  ASP56      -0.2456
     36  N         45.8370   11.1410  -13.8300 N.am   57  ALA57      -0.1977
     37  CA        45.8960   11.8480  -15.1070 C.3    57  ALA57       0.1597
     38  C         45.3880   10.8770  -16.1650 C.2    57  ALA57       0.2287
     39  O         45.4390    9.6630  -15.9840 O.2    57  ALA57      -0.2864
     40  CB        47.3200   12.3080  -15.4520 C.3    57  ALA57       0.0319
     41  N         41.5860   10.8970   -7.0330 N.3   102  THR102     -0.1218
     42  CA        41.2170   11.8520   -8.0710 C.3   102  THR102      0.1862
     43  C         40.2010   11.2360   -9.0040 C.2   102  THR102      0.2287
     44  O         40.2930   10.0490   -9.3670 O.2   102  THR102     -0.2866
     45  CB        42.4630   12.2890   -8.8390 C.3   102  THR102      0.1770
     46  OG1       43.2580   13.0410   -7.9380 O.3   102  THR102     -0.2211
     47  CG2       42.1340   13.1610  -10.0450 C.3   102  THR102      0.0375
     48  N         39.1020   13.7230   -4.8340 N.3   131  ASN131     -0.1225
     49  CA        39.7570   14.9380   -5.2870 C.3   131  ASN131      0.1785
     50  C         39.1420   15.3120   -6.6420 C.2   131  ASN131      0.2597
     51  O         39.3580   14.6240   -7.6610 O.2   131  ASN131     -0.2718
     52  CB        41.2710   14.7510   -5.3890 C.3   131  ASN131      0.1169
     53  CG        41.9630   15.9800   -6.0160 C.2   131  ASN131      0.2627
     54  OD1       41.6670   17.0990   -5.6700 O.2   131  ASN131     -0.2716
     55  ND2       42.8210   15.7400   -6.9860 N.am  131  ASN131     -0.0877
     56  N         38.3740   16.3920   -6.6330 N.am  132  VAL132     -0.1966
     57  CA        37.5670   16.8380   -7.7750 C.3   132  VAL132      0.1727
     58  C         38.4740   17.5650   -8.7640 C.2   132  VAL132      0.2616
     59  O         38.9780   18.6390   -8.4700 O.2   132  VAL132     -0.2715
     60  CB        36.4150   17.7370   -7.3150 C.3   132  VAL132      0.0290
     61  CG1       35.4700   18.0340   -8.4900 C.3   132  VAL132      0.0023
     62  CG2       35.6250   17.0670   -6.1940 C.3   132  VAL132      0.0023
     63  N         38.7080   16.9790   -9.9330 N.am  133  VAL133     -0.1963
     64  CA        39.5020   17.6790  -10.9380 C.3   133  VAL133      0.1727
     65  C         38.6500   17.9110  -12.1770 C.2   133  VAL133      0.2617
     66  O         37.6910   17.1910  -12.4610 O.2   133  VAL133     -0.2715
     67  CB        40.8130   16.9560  -11.3220 C.3   133  VAL133      0.0290
     68  CG1       41.6810   16.6980  -10.0800 C.3   133  VAL133      0.0023
     69  CG2       40.5420   15.7070  -12.0660 C.3   133  VAL133      0.0023
     70  N         39.0450   18.9160  -12.9380 N.am  134  THR134     -0.1937
     71  CA        38.5220   19.1440  -14.2800 C.3   134  THR134      0.2028
     72  C         39.5330   18.7600  -15.3590 C.2   134  THR134      0.2643
     73  O         39.6760   19.4630  -16.3590 O.2   134  THR134     -0.2714
     74  CB        38.1730   20.6000  -14.4530 C.3   134  THR134      0.1808
     75  OG1       39.4160   21.3130  -14.5240 O.3   134  THR134     -0.2208
     76  CG2       37.3310   21.0880  -13.2570 C.3   134  THR134      0.0379
     77  N         40.2390   17.6450  -15.1610 N.am  135  THR135     -0.1936
     78  CA        41.4340   17.2650  -15.9180 C.3   135  THR135      0.2028
     79  C         42.4490   18.4000  -16.0900 C.2   135  THR135      0.2643
     80  O         42.0950   19.5680  -16.2810 O.2   135  THR135     -0.2714
     81  CB        41.0520   16.6930  -17.2930 C.3   135  THR135      0.1808
     82  OG1       41.9700   15.6490  -17.6460 O.3   135  THR135     -0.2208
     83  CG2       41.0850   17.7510  -18.3930 C.3   135  THR135      0.0379
     84  N         43.7260   18.0480  -16.0210 N.am  136  GLY136     -0.1939
     85  CA        44.8030   18.9680  -16.2980 C.3   136  GLY136      0.2014
     86  C         45.4690   18.6150  -17.6100 C.2   136  GLY136      0.2639
     87  O         46.1630   19.4470  -18.2040 O.2   136  GLY136     -0.2714
     88  N         45.2600   17.3800  -18.0720 N.am  137  THR137     -0.1950
     89  CA        45.7970   16.9140  -19.3500 C.3   137  THR137      0.1897
     90  C         44.7640   17.0740  -20.4750 C.2   137  THR137      0.2313
     91  O         44.6280   16.2310  -21.3590 O.2   137  THR137     -0.2863
     92  CB        46.3290   15.4610  -19.2330 C.3   137  THR137      0.1794
     93  OG1       45.6160   14.6250  -18.2590 O.3   137  THR137     -0.2208
     94  CG2       47.8100   15.5040  -18.8530 C.3   137  THR137      0.0378
     95  N         38.7100   26.2550  -20.3100 N.3   152  HIS152     -0.1241
     96  CA        39.0210   26.2210  -18.8830 C.3   152  HIS152      0.1621
     97  C         37.8130   26.5800  -18.0170 C.2   152  HIS152      0.2264
     98  O         37.3670   25.7860  -17.1730 O.2   152  HIS152     -0.2867
     99  CB        40.1830   27.1920  -18.6120 C.3   152  HIS152      0.0745
    100  CG        40.6010   27.2620  -17.1750 C.ar  152  HIS152      0.0817
    101  ND1       40.0460   28.1560  -16.2840 N.ar  152  HIS152     -0.2268
    102  CD2       41.5100   26.5420  -16.4690 C.ar  152  HIS152      0.1154
    103  CE1       40.6120   28.0070  -15.0990 C.ar  152  HIS152      0.1986
    104  NE2       41.4970   27.0250  -15.1810 N.ar  152  HIS152     -0.2212
    105  N         34.7550   24.2900  -15.4200 N.3   156  TYR156     -0.1241
    106  CA        34.2420   24.4930  -14.0680 C.3   156  TYR156      0.1605
    107  C         32.7230   24.6370  -14.0390 C.2   156  TYR156      0.2264
    108  O         32.0900   24.1890  -13.0770 O.2   156  TYR156     -0.2867
    109  CB        34.9080   25.7000  -13.4130 C.3   156  TYR156      0.0534
    110  CG        36.2350   25.3300  -12.7930 C.ar  156  TYR156     -0.0201
    111  CD1       36.2930   24.4630  -11.7120 C.ar  156  TYR156     -0.0009
    112  CD2       37.4330   25.7810  -13.3360 C.ar  156  TYR156     -0.0009
    113  CE1       37.4950   24.0920  -11.1420 C.ar  156  TYR156      0.0417
    114  CE2       38.6660   25.4340  -12.7530 C.ar  156  TYR156      0.0417
    115  CZ        38.6790   24.5860  -11.6560 C.ar  156  TYR156      0.1957
    116  OH        39.8610   24.2080  -11.0650 O.3   156  TYR156     -0.2866
    117  N         41.8310   21.2950   -5.5860 N.3   224  ALA224     -0.1231
    118  CA        43.0890   22.0370   -5.6630 C.3   224  ALA224      0.1694
    119  C         43.1830   23.1000   -6.7640 C.2   224  ALA224      0.2593
    120  O         44.2820   23.6130   -7.0110 O.2   224  ALA224     -0.2718
    121  CB        44.2370   21.0770   -5.8680 C.3   224  ALA224      0.0304
    122  N         42.1070   23.4960   -7.4070 N.am  225  GLY225     -0.1942
    123  CA        42.1900   24.6680   -8.3020 C.3   225  GLY225      0.2014
    124  C         42.7510   26.0110   -7.8140 C.2   225  GLY225      0.2640
    125  O         42.2600   26.5780   -6.8370 O.2   225  GLY225     -0.2714
    126  N         43.7450   26.5820   -8.5250 N.am  226  SER226     -0.1935
    127  CA        44.4030   27.8090   -8.1080 C.3   226  SER226      0.2055
    128  C         44.0130   29.0200   -8.9430 C.2   226  SER226      0.2643
    129  O         44.3880   30.1470   -8.5870 O.2   226  SER226     -0.2714
    130  CB        45.9310   27.6220   -8.1530 C.3   226  SER226      0.2130
    131  OG        46.3760   27.5670   -9.4910 O.3   226  SER226     -0.2179
    132  N         43.2840   28.8320  -10.0400 N.am  227  SER227     -0.1949
    133  CA        42.7660   29.9720  -10.7800 C.3   227  SER227      0.1924
    134  C         41.6280   30.6420  -10.0130 C.2   227  SER227      0.2314
    135  O         41.0930   30.1250   -9.0300 O.2   227  SER227     -0.2863
    136  CB        42.2630   29.5360  -12.1550 C.3   227  SER227      0.2116
    137  OG        41.0780   28.7590  -12.0220 O.3   227  SER227     -0.2180
    138  N         38.7220   28.4080  -10.3240 N.3   230  GLY230     -0.1225
    139  CA        38.9920   27.2240   -9.5290 C.3   230  GLY230      0.1811
    140  C         38.9080   27.4800   -8.0390 C.2   230  GLY230      0.2280
    141  O         38.3940   26.6480   -7.3000 O.2   230  GLY230     -0.2866
    142  N         43.7520   21.6490   -1.2280 N.3   242  PHE242     -0.1227
    143  CA        45.1900   21.3560   -1.3130 C.3   242  PHE242      0.1736
    144  C         45.8600   22.5600   -1.9560 C.2   242  PHE242      0.2595
    145  O         45.3660   23.0650   -2.9700 O.2   242  PHE242     -0.2718
    146  CB        45.5020   20.1400   -2.2180 C.3   242  PHE242      0.0547
    147  CG        45.1520   18.8480   -1.6830 C.ar  242  PHE242     -0.0202
    148  CD1       45.3120   18.5540   -0.3420 C.ar  242  PHE242     -0.0042
    149  CD2       44.7360   17.8580   -2.5530 C.ar  242  PHE242     -0.0042
    150  CE1       45.0180   17.3080    0.1320 C.ar  242  PHE242     -0.0003
    151  CE2       44.4450   16.6000   -2.0870 C.ar  242  PHE242     -0.0003
    152  CZ        44.5750   16.3260   -0.7490 C.ar  242  PHE242     -0.0000
    153  N         46.9550   23.0240   -1.3710 N.am  243  LEU243     -0.1966
    154  CA        47.7860   24.0740   -1.9340 C.3   243  LEU243      0.1728
    155  C         49.1720   23.5290   -2.2360 C.2   243  LEU243      0.2616
    156  O         49.7280   22.7460   -1.4520 O.2   243  LEU243     -0.2715
    157  CB        47.9620   25.2500   -0.9490 C.3   243  LEU243      0.0311
    158  CG        46.7030   25.9310   -0.4300 C.3   243  LEU243      0.0022
    159  CD1       47.0720   27.0130    0.6300 C.3   243  LEU243      0.0001
    160  CD2       46.0110   26.5770   -1.5970 C.3   243  LEU243      0.0001
    161  N         49.7470   23.9760   -3.3380 N.am  244  GLY244     -0.1955
    162  CA        51.1370   23.6670   -3.5960 C.3   244  GLY244      0.1869
    163  C         52.0640   24.4560   -2.6820 C.2   244  GLY244      0.2309
    164  O         51.6970   25.4610   -2.0620 O.2   244  GLY244     -0.2863
    165  N         50.8830   20.9210    0.3420 N.3   277  ALA277     -0.1245
    166  CA        51.8500   19.9190   -0.0910 C.3   277  ALA277      0.1562
    167  C         53.1960   20.2120    0.5550 C.2   277  ALA277      0.2260
    168  O         53.6300   21.3740    0.6500 O.2   277  ALA277     -0.2867
    169  CB        51.9690   19.9020   -1.6200 C.3   277  ALA277      0.0290
    170  N         50.0170   17.5400    3.0290 N.3   387  LEU387     -0.1245
    171  CA        50.0320   16.4320    2.0810 C.3   387  LEU387      0.1561
    172  C         51.4960   16.0800    1.8010 C.2   387  LEU387      0.2260
    173  O         52.1960   16.8280    1.1200 O.2   387  LEU387     -0.2867
    174  CB        49.2930   16.8550    0.8200 C.3   387  LEU387      0.0270
    175  CG        49.1930   15.7980   -0.2350 C.3   387  LEU387      0.0019
    176  CD1       48.3080   14.6490    0.2720 C.3   387  LEU387      0.0001
    177  CD2       48.6170   16.4570   -1.4600 C.3   387  LEU387      0.0001
    178  N         54.4830   14.8050    0.0710 N.3   389  THR389     -0.1218
    179  CA        54.8190   14.4140   -1.2880 C.3   389  THR389      0.1862
    180  C         56.2270   13.8380   -1.2990 C.2   389  THR389      0.2287
    181  O         57.2090   14.5850   -1.1040 O.2   389  THR389     -0.2866
    182  CB        54.7130   15.6060   -2.2580 C.3   389  THR389      0.1770
    183  OG1       55.7920   16.4950   -2.0580 O.3   389  THR389     -0.2211
    184  CG2       53.4550   16.3330   -2.0290 C.3   389  THR389      0.0375
@<TRIPOS>BOND
     1    91    90    2
     2    90    89    1
     3    95    96    1
     4    89    92    1
     5    89    88    1
     6    92    94    1
     7    92    93    1
     8    96    99    1
     9    96    97    1
    10    99   100    1
    11    83    81    1
    12    87    86    2
    13    88    86   am
    14    97    98    2
    15    82    81    1
    16    86    85    1
    17    81    78    1
    18   100   102   ar
    19   100   101   ar
    20   102   104   ar
    21    73    72    2
    22    85    84    1
    23   101   103   ar
    24    80    79    2
    25    38    39    2
    26    38    37    1
    27    79    84   am
    28    79    78    1
    29    78    77    1
    30    40    37    1
    31   105   106    1
    32    72    77   am
    33    72    71    1
    34   104   103   ar
    35    37    36    1
    36    75    74    1
    37    74    71    1
    38    74    76    1
    39    71    70    1
    40   106   107    1
    41   106   109    1
    42   107   108    2
    43    36    30   am
    44   109   110    1
    45   112   110   ar
    46   112   114   ar
    47    34    33   ar
    48    35    33   ar
    49    70    65   am
    50   110   111   ar
    51   114   115   ar
    52    30    31    2
    53    30    29    1
    54    33    32    1
    55    66    65    2
    56    65    64    1
    57   136   137    1
    58   136   133    1
    59    69    67    1
    60   111   113   ar
    61   115   113   ar
    62   115   116    1
    63    29    32    1
    64    29    28    1
    65    67    64    1
    66    67    68    1
    67    64    63    1
    68   133   132    1
    69   133   134    1
    70   138   139    1
    71    28    25   am
    72    47    45    1
    73   132   128   am
    74   134   135    2
    75    63    58   am
    76   139   140    1
    77   131   130    1
    78    44    43    2
    79    26    25    2
    80    25    24    1
    81    43    42    1
    82   128   129    2
    83   128   127    1
    84    45    42    1
    85    45    46    1
    86    58    59    2
    87    58    57    1
    88   126   127    1
    89   126   124   am
    90    61    60    1
    91   123   124    1
    92   123   122    1
    93    27    24    1
    94   130   127    1
    95    42    41    1
    96   140   141    2
    97    24    23    1
    98   124   125    2
    99    57    60    1
   100    57    56    1
   101    51    50    2
   102   122   119   am
   103    60    62    1
   104   120   119    2
   105    55    53   am
   106   119   118    1
   107    50    56   am
   108    50    49    1
   109    11    10   ar
   110    11     9   ar
   111    10     8   ar
   112    53    54    2
   113    53    52    1
   114   121   118    1
   115   118   117    1
   116     9     7   ar
   117    52    49    1
   118    49    48    1
   119    22    21   ar
   120    22    20   ar
   121    21    19   ar
   122     8     6   ar
   123    20    18   ar
   124     7     6   ar
   125     6     5    1
   126    19    17   ar
   127   162   161    1
   128   162   163    1
   129   161   155   am
   130    18    17   ar
   131    15    14    2
   132    14    13    1
   133   145   144    2
   134    17    16    1
   135     3     4    2
   136     3     2    1
   137   163   164    2
   138   149   151   ar
   139   149   147   ar
   140     5     2    1
   141   182   183    1
   142   182   184    1
   143   182   179    1
   144   155   154    1
   145   155   156    2
   146   146   147    1
   147   146   143    1
   148   151   152   ar
   149   144   153   am
   150   144   143    1
   151   154   153    1
   152   154   157    1
   153     2     1    1
   154    13    16    1
   155    13    12    1
   156   147   148   ar
   157   169   166    1
   158   160   158    1
   159   177   175    1
   160   143   142    1
   161   180   179    1
   162   180   181    2
   163   179   178    1
   164   157   158    1
   165   152   150   ar
   166   158   159    1
   167   148   150   ar
   168   175   176    1
   169   175   174    1
   170   166   165    1
   171   166   167    1
   172   167   168    2
   173   174   171    1
   174   173   172    2
   175   172   171    1
   176   171   170    1
