@<TRIPOS>MOLECULE
tmp/5w4zA01.pdb
 174 165 0 0 0
SMALL
GASTEIGER

@<TRIPOS>ATOM
      1  N       -126.3230  146.7150  171.8780 N.3     8  PHE8       -0.1241
      2  CA      -125.5750  147.0240  170.6610 C.3     8  PHE8        0.1605
      3  C       -125.2040  145.7370  169.9230 C.2     8  PHE8        0.2264
      4  O       -124.6790  144.8000  170.5280 O.2     8  PHE8       -0.2867
      5  CB      -124.3170  147.8250  171.0120 C.3     8  PHE8        0.0534
      6  CG      -123.4030  148.0760  169.8320 C.ar    8  PHE8       -0.0203
      7  CD1     -123.5980  149.1680  168.9990 C.ar    8  PHE8       -0.0042
      8  CD2     -122.3420  147.2250  169.5710 C.ar    8  PHE8       -0.0042
      9  CE1     -122.7580  149.4000  167.9270 C.ar    8  PHE8       -0.0003
     10  CE2     -121.4980  147.4530  168.4950 C.ar    8  PHE8       -0.0003
     11  CZ      -121.7070  148.5400  167.6740 C.ar    8  PHE8       -0.0000
     12  N       -124.1340  144.1560  165.5910 N.3    10  ASN10      -0.1240
     13  CA      -123.9460  144.4980  164.1850 C.3    10  ASN10       0.1653
     14  C       -123.9530  143.2310  163.3410 C.2    10  ASN10       0.2266
     15  O       -123.5800  142.1550  163.8090 O.2    10  ASN10      -0.2867
     16  CB      -122.6740  145.3470  163.9350 C.3    10  ASN10       0.1155
     17  CG      -121.3540  144.6570  164.3170 C.2    10  ASN10       0.2627
     18  OD1     -120.3300  145.3370  164.4010 O.2    10  ASN10      -0.2716
     19  ND2     -121.3580  143.3350  164.5150 N.am   10  ASN10      -0.0877
     20  N       -122.3110  141.4260  161.3520 N.3    12  GLN12      -0.1245
     21  CA      -121.0470  140.8570  160.9020 C.3    12  GLN12       0.1566
     22  C       -120.4110  140.1480  162.0920 C.2    12  GLN12       0.2260
     23  O       -120.8900  140.2490  163.2230 O.2    12  GLN12      -0.2867
     24  CB      -120.1160  141.9180  160.3020 C.3    12  GLN12       0.0367
     25  CG      -119.7200  143.0670  161.2340 C.3    12  GLN12       0.0905
     26  CD      -118.8980  144.1210  160.5010 C.2    12  GLN12       0.2608
     27  OE1     -119.4450  144.9470  159.7660 O.2    12  GLN12      -0.2717
     28  NE2     -117.5840  144.0710  160.6650 N.am   12  GLN12      -0.0878
     29  N       -116.8720  143.2090  165.8180 N.3    15  ASP15      -0.1225
     30  CA      -117.4180  144.5550  165.9200 C.3    15  ASP15       0.1805
     31  C       -116.3540  145.5290  166.4020 C.2    15  ASP15       0.2598
     32  O       -115.3910  145.1460  167.0770 O.2    15  ASP15      -0.2718
     33  CB      -118.6280  144.6000  166.8660 C.3    15  ASP15       0.1424
     34  CG      -118.2340  144.4650  168.3240 C.2    15  ASP15       0.3668
     35  OD1     -118.0500  143.3160  168.7730 O.co2  15  ASP15      -0.2456
     36  OD2     -118.1230  145.5070  169.0220 O.co2  15  ASP15      -0.2456
     37  N       -116.5330  146.7950  166.0210 N.am   16  SER16      -0.1952
     38  CA      -115.8320  147.9240  166.6240 C.3    16  SER16       0.1924
     39  C       -114.3270  147.8900  166.3880 C.2    16  SER16       0.2314
     40  O       -113.5720  148.5610  167.0940 O.2    16  SER16      -0.2863
     41  CB      -116.1280  147.9880  168.1220 C.3    16  SER16       0.2116
     42  OG      -117.5260  148.0590  168.3470 O.3    16  SER16      -0.2180
     43  N       -125.5250  148.4840  164.4060 N.3    55  ALA55      -0.1231
     44  CA      -124.6100  149.4290  163.7780 C.3    55  ALA55       0.1694
     45  C       -124.5200  149.1200  162.2860 C.2    55  ALA55       0.2592
     46  O       -125.0990  148.1520  161.7970 O.2    55  ALA55      -0.2718
     47  CB      -123.2340  149.3680  164.4360 C.3    55  ALA55       0.0304
     48  N       -123.7780  149.9420  161.5440 N.am   56  ASP56      -0.1960
     49  CA      -123.5510  149.6210  160.1360 C.3    56  ASP56       0.1840
     50  C       -122.2130  150.1980  159.7010 C.2    56  ASP56       0.2621
     51  O       -121.6600  151.1030  160.3360 O.2    56  ASP56      -0.2715
     52  CB      -124.6940  150.1490  159.2550 C.3    56  ASP56       0.1450
     53  CG      -124.6860  149.5670  157.8330 C.2    56  ASP56       0.3671
     54  OD1     -124.1500  148.4510  157.6190 O.co2  56  ASP56      -0.2456
     55  OD2     -125.2440  150.2380  156.9290 O.co2  56  ASP56      -0.2456
     56  N       -121.6870  149.6370  158.6190 N.am   57  ALA57      -0.1977
     57  CA      -120.5210  150.1750  157.9420 C.3    57  ALA57       0.1597
     58  C       -120.6760  149.8770  156.4600 C.2    57  ALA57       0.2287
     59  O       -121.2730  148.8690  156.0720 O.2    57  ALA57      -0.2864
     60  CB      -119.2130  149.5790  158.4750 C.3    57  ALA57       0.0319
     61  N       -118.4070  156.5560  158.9860 N.3   136  GLY136     -0.1210
     62  CA      -117.0250  156.6820  159.4170 C.3   136  GLY136      0.1956
     63  C       -116.0200  156.0180  158.5120 C.2   136  GLY136      0.2612
     64  O       -114.8100  156.1720  158.7140 O.2   136  GLY136     -0.2717
     65  N       -116.5020  155.2800  157.5210 N.am  137  THR137     -0.1952
     66  CA      -115.6760  154.6200  156.5220 C.3   137  THR137      0.1897
     67  C       -115.8400  155.3020  155.1660 C.2   137  THR137      0.2313
     68  O       -115.8950  154.6460  154.1240 O.2   137  THR137     -0.2863
     69  CB      -116.0460  153.1410  156.4380 C.3   137  THR137      0.1794
     70  OG1     -117.4320  153.0160  156.0850 O.3   137  THR137     -0.2208
     71  CG2     -115.8230  152.4730  157.7850 C.3   137  THR137      0.0378
     72  N       -126.3040  158.3940  171.1980 N.3   242  PHE242     -0.1241
     73  CA      -125.4210  157.2950  171.5590 C.3   242  PHE242      0.1605
     74  C       -124.0220  157.8580  171.7800 C.2   242  PHE242      0.2264
     75  O       -123.4190  158.4000  170.8480 O.2   242  PHE242     -0.2867
     76  CB      -125.4550  156.2600  170.4250 C.3   242  PHE242      0.0534
     77  CG      -124.8150  154.9270  170.7480 C.ar  242  PHE242     -0.0203
     78  CD1     -124.4780  154.5780  172.0460 C.ar  242  PHE242     -0.0042
     79  CD2     -124.5560  154.0140  169.7230 C.ar  242  PHE242     -0.0042
     80  CE1     -123.8960  153.3510  172.3230 C.ar  242  PHE242     -0.0003
     81  CE2     -123.9710  152.7810  169.9900 C.ar  242  PHE242     -0.0003
     82  CZ      -123.6410  152.4470  171.3010 C.ar  242  PHE242     -0.0000
     83  N       -119.9930  157.2040  173.2800 N.3   244  GLY244     -0.1210
     84  CA      -118.9900  156.2490  173.7030 C.3   244  GLY244      0.1956
     85  C       -118.6890  156.3740  175.1900 C.2   244  GLY244      0.2612
     86  O       -119.0360  157.3510  175.8500 O.2   244  GLY244     -0.2717
     87  N       -118.0320  155.3530  175.7340 N.am  245  GLY245     -0.1956
     88  CA      -117.6470  155.4070  177.1370 C.3   245  GLY245      0.1869
     89  C       -116.5450  156.4200  177.3910 C.2   245  GLY245      0.2309
     90  O       -115.7070  156.6920  176.5320 O.2   245  GLY245     -0.2863
     91  N       -122.4930  153.8160  175.7910 N.3   277  ALA277     -0.1245
     92  CA      -122.0430  152.4430  175.6030 C.3   277  ALA277      0.1562
     93  C       -121.5140  151.9130  176.9310 C.2   277  ALA277      0.2260
     94  O       -120.9360  152.6580  177.7320 O.2   277  ALA277     -0.2867
     95  CB      -120.9590  152.3710  174.5350 C.3   277  ALA277      0.0290
     96  N       -109.2000  151.3940  159.2640 N.3   311  TRP311     -0.1227
     97  CA      -110.5910  151.1980  158.8640 C.3   311  TRP311      0.1737
     98  C       -111.4450  152.4100  159.2210 C.2   311  TRP311      0.2595
     99  O       -112.3290  152.8070  158.4540 O.2   311  TRP311     -0.2718
    100  CB      -111.1240  149.9250  159.5280 C.3   311  TRP311      0.0564
    101  CG      -112.5530  149.5430  159.2410 C.ar  311  TRP311      0.0003
    102  CD1     -113.3540  150.0070  158.2350 C.ar  311  TRP311      0.0946
    103  CD2     -113.3400  148.5950  159.9770 C.ar  311  TRP311      0.0152
    104  NE1     -114.5960  149.4060  158.3040 N.ar  311  TRP311     -0.2442
    105  CE2     -114.6110  148.5410  159.3680 C.ar  311  TRP311      0.0810
    106  CE3     -113.0930  147.7910  161.0940 C.ar  311  TRP311      0.0012
    107  CZ2     -115.6290  147.7150  159.8410 C.ar  311  TRP311      0.0191
    108  CZ3     -114.1060  146.9740  161.5620 C.ar  311  TRP311      0.0001
    109  CH2     -115.3580  146.9430  160.9370 C.ar  311  TRP311      0.0015
    110  N       -111.1680  153.0390  160.3580 N.am  312  PHE312     -0.1976
    111  CA      -112.0080  154.1290  160.8270 C.3   312  PHE312      0.1639
    112  C       -111.4260  155.5050  160.5540 C.2   312  PHE312      0.2290
    113  O       -112.1880  156.4710  160.4910 O.2   312  PHE312     -0.2864
    114  CB      -112.2820  153.9650  162.3270 C.3   312  PHE312      0.0560
    115  CG      -112.9990  152.6870  162.6560 C.ar  312  PHE312     -0.0200
    116  CD1     -114.3580  152.5580  162.4020 C.ar  312  PHE312     -0.0042
    117  CD2     -112.3130  151.6020  163.1790 C.ar  312  PHE312     -0.0042
    118  CE1     -115.0240  151.3790  162.6820 C.ar  312  PHE312     -0.0003
    119  CE2     -112.9730  150.4220  163.4670 C.ar  312  PHE312     -0.0003
    120  CZ      -114.3300  150.3090  163.2180 C.ar  312  PHE312     -0.0000
    121  N       -113.5680  159.1930  160.8800 N.3   334  SER334     -0.1217
    122  CA      -114.0380  159.1140  162.2680 C.3   334  SER334      0.1889
    123  C       -113.1230  159.9730  163.1360 C.2   334  SER334      0.2288
    124  O       -112.1260  159.5010  163.6880 O.2   334  SER334     -0.2866
    125  CB      -114.0700  157.6640  162.7410 C.3   334  SER334      0.2089
    126  OG      -114.7690  156.8240  161.8140 O.3   334  SER334     -0.2183
    127  N       -113.5010  161.3730  166.0610 N.3   336  THR336     -0.1203
    128  CA      -113.4070  161.0720  167.4870 C.3   336  THR336      0.1994
    129  C       -112.3320  160.0220  167.7660 C.2   336  THR336      0.2617
    130  O       -111.6590  160.0860  168.8000 O.2   336  THR336     -0.2717
    131  CB      -114.7760  160.6300  168.0190 C.3   336  THR336      0.1784
    132  OG1     -115.6690  161.7530  168.0120 O.3   336  THR336     -0.2211
    133  CG2     -114.6730  160.0870  169.4380 C.3   336  THR336      0.0376
    134  N       -112.1220  159.0780  166.8440 N.am  337  GLN337     -0.1979
    135  CA      -111.0600  158.0920  167.0230 C.3   337  GLN337      0.1601
    136  C       -109.6620  158.6860  166.9160 C.2   337  GLN337      0.2287
    137  O       -108.6870  157.9750  167.1910 O.2   337  GLN337     -0.2864
    138  CB      -111.2050  156.9620  166.0100 C.3   337  GLN337      0.0394
    139  CG      -112.5250  156.2420  166.1210 C.3   337  GLN337      0.0908
    140  CD      -112.8340  155.8680  167.5510 C.2   337  GLN337      0.2608
    141  OE1     -111.9590  155.4010  168.2840 O.2   337  GLN337     -0.2717
    142  NE2     -114.0750  156.0840  167.9620 N.am  337  GLN337     -0.0878
    143  N       -112.8440  150.9330  168.7640 N.3   358  VAL358     -0.1231
    144  CA      -113.5680  152.1840  168.9940 C.3   358  VAL358      0.1692
    145  C       -114.3030  152.2150  170.3240 C.2   358  VAL358      0.2592
    146  O       -114.8510  153.2620  170.6890 O.2   358  VAL358     -0.2718
    147  CB      -114.5830  152.4660  167.8700 C.3   358  VAL358      0.0266
    148  CG1     -113.8690  152.5530  166.5360 C.3   358  VAL358      0.0020
    149  CG2     -115.6440  151.3910  167.8470 C.3   358  VAL358      0.0020
    150  N       -114.3240  151.1110  171.0650 N.am  359  ARG359     -0.1966
    151  CA      -114.9810  151.0850  172.3620 C.3   359  ARG359      0.1729
    152  C       -113.9780  151.4090  173.4690 C.2   359  ARG359      0.2616
    153  O       -112.8560  151.8560  173.2140 O.2   359  ARG359     -0.2715
    154  CB      -115.6360  149.7310  172.5890 C.3   359  ARG359      0.0348
    155  CG      -116.7810  149.4680  171.6510 C.3   359  ARG359      0.0492
    156  CD      -116.9140  147.9920  171.4310 C.3   359  ARG359      0.2205
    157  NE      -117.0350  147.2500  172.6740 N.pl3 359  ARG359     -0.0865
    158  CZ      -117.0360  145.9260  172.7320 C.cat 359  ARG359      0.5346
    159  NH1     -116.9090  145.2190  171.6150 N.pl3 359  ARG359      0.1354
    160  NH2     -117.1580  145.3110  173.8980 N.pl3 359  ARG359      0.1354
    161  N       -114.3820  151.1860  174.7170 N.am  360  THR360     -0.1951
    162  CA      -113.5300  151.3630  175.8860 C.3   360  THR360      0.1897
    163  C       -113.4890  150.0640  176.6800 C.2   360  THR360      0.2313
    164  O       -114.2360  149.1260  176.4020 O.2   360  THR360     -0.2863
    165  CB      -114.0330  152.5100  176.7730 C.3   360  THR360      0.1794
    166  OG1     -115.4390  152.3540  177.0010 O.3   360  THR360     -0.2208
    167  CG2     -113.7690  153.8560  176.1120 C.3   360  THR360      0.0378
    168  N       -122.6280  146.7810  175.1860 N.3   389  THR389     -0.1218
    169  CA      -121.7670  146.4300  174.0640 C.3   389  THR389      0.1862
    170  C       -121.0810  145.1170  174.3920 C.2   389  THR389      0.2287
    171  O       -120.1150  145.0890  175.1710 O.2   389  THR389     -0.2866
    172  CB      -120.7500  147.5290  173.7560 C.3   389  THR389      0.1770
    173  OG1     -120.0450  147.8840  174.9500 O.3   389  THR389     -0.2211
    174  CG2     -121.4700  148.7490  173.2210 C.3   389  THR389      0.0375
@<TRIPOS>BOND
     1    68    67    2
     2    67    66    1
     3    59    58    2
     4    70    69    1
     5    69    66    1
     6    69    71    1
     7    58    57    1
     8    66    65    1
     9    55    53   ar
    10    65    63   am
    11    54    53   ar
    12    53    52    1
    13    57    60    1
    14    57    56    1
    15   102   104   ar
    16   102   101   ar
    17   104   105   ar
    18    99    98    2
    19    63    64    2
    20    63    62    1
    21    56    50   am
    22    97    98    1
    23    97    96    1
    24    97   100    1
    25    61    62    1
    26    98   110   am
    27   101   100    1
    28   101   103   ar
    29    52    49    1
    30   105   107   ar
    31   105   103   ar
    32    50    49    1
    33    50    51    2
    34    27    26    2
    35   107   109   ar
    36   103   106   ar
    37    49    48    1
    38    24    21    1
    39    24    25    1
    40   110   111    1
    41   113   112    2
    42    26    28   am
    43    26    25    1
    44   112   111    1
    45   111   114    1
    46   121   122    1
    47    21    20    1
    48    21    22    1
    49   109   108   ar
    50   106   108   ar
    51    48    45   am
    52    46    45    2
    53   126   125    1
    54    22    23    2
    55   122   125    1
    56   122   123    1
    57    45    44    1
    58   114   115    1
    59   116   115   ar
    60   116   118   ar
    61   115   117   ar
    62   118   120   ar
    63   123   124    2
    64   117   119   ar
    65   120   119   ar
    66    14    15    2
    67    14    13    1
    68    44    43    1
    69    44    47    1
    70    16    13    1
    71    16    17    1
    72    13    12    1
    73    17    18    2
    74    17    19   am
    75    29    30    1
    76    30    31    1
    77    30    33    1
    78   138   139    1
    79   138   135    1
    80    37    31   am
    81    37    38    1
    82   127   128    1
    83   139   140    1
    84    39    38    1
    85    39    40    2
    86    31    32    2
    87   148   147    1
    88    38    41    1
    89   134   135    1
    90   134   129   am
    91    33    34    1
    92   136   135    1
    93   136   137    2
    94   128   129    1
    95   128   131    1
    96   140   142   am
    97   140   141    2
    98    11     9   ar
    99    11    10   ar
   100   129   130    2
   101   149   147    1
   102   147   144    1
   103     9     7   ar
   104   132   131    1
   105   131   133    1
   106    41    42    1
   107    34    35   ar
   108    34    36   ar
   109    10     8   ar
   110   143   144    1
   111   144   145    1
   112     7     6   ar
   113     8     6   ar
   114    79    81   ar
   115    79    77   ar
   116     6     5    1
   117     3     4    2
   118     3     2    1
   119    81    82   ar
   120   145   146    2
   121   145   150   am
   122    76    77    1
   123    76    73    1
   124     2     5    1
   125     2     1    1
   126    77    78   ar
   127    75    74    2
   128   150   151    1
   129    72    73    1
   130    82    80   ar
   131   156   155    1
   132   156   157    1
   133    73    74    1
   134   159   158    1
   135   155   154    1
   136    78    80   ar
   137   151   154    1
   138   151   152    1
   139   157   158    2
   140   158   160    1
   141   153   152    2
   142   174   172    1
   143    83    84    1
   144   152   161   am
   145    84    85    1
   146   172   169    1
   147   172   173    1
   148   169   170    1
   149   169   168    1
   150   170   171    2
   151    95    92    1
   152   161   162    1
   153    85    87   am
   154    85    86    2
   155    92    91    1
   156    92    93    1
   157    87    88    1
   158   162   163    1
   159   162   165    1
   160   167   165    1
   161   164   163    2
   162    90    89    2
   163   165   166    1
   164    93    94    2
   165    88    89    1
