@<TRIPOS>MOLECULE
tmp/5w4zA00.pdb
 201 194 0 0 0
SMALL
GASTEIGER

@<TRIPOS>ATOM
      1  N       -126.3230  146.7150  171.8780 N.3     8  PHE8       -0.1241
      2  CA      -125.5750  147.0240  170.6610 C.3     8  PHE8        0.1605
      3  C       -125.2040  145.7370  169.9230 C.2     8  PHE8        0.2264
      4  O       -124.6790  144.8000  170.5280 O.2     8  PHE8       -0.2867
      5  CB      -124.3170  147.8250  171.0120 C.3     8  PHE8        0.0534
      6  CG      -123.4030  148.0760  169.8320 C.ar    8  PHE8       -0.0203
      7  CD1     -123.5980  149.1680  168.9990 C.ar    8  PHE8       -0.0042
      8  CD2     -122.3420  147.2250  169.5710 C.ar    8  PHE8       -0.0042
      9  CE1     -122.7580  149.4000  167.9270 C.ar    8  PHE8       -0.0003
     10  CE2     -121.4980  147.4530  168.4950 C.ar    8  PHE8       -0.0003
     11  CZ      -121.7070  148.5400  167.6740 C.ar    8  PHE8       -0.0000
     12  N       -130.0240  147.2010  168.7270 N.3    53  PHE53      -0.1241
     13  CA      -129.4660  148.2480  167.8910 C.3    53  PHE53       0.1605
     14  C       -128.4610  147.6030  166.9540 C.2    53  PHE53       0.2264
     15  O       -127.5760  146.8730  167.4080 O.2    53  PHE53      -0.2867
     16  CB      -128.8260  149.2930  168.8280 C.3    53  PHE53       0.0534
     17  CG      -128.0580  150.3970  168.1550 C.ar   53  PHE53      -0.0203
     18  CD1     -126.8100  150.1650  167.5840 C.ar   53  PHE53      -0.0042
     19  CD2     -128.5400  151.7020  168.1910 C.ar   53  PHE53      -0.0042
     20  CE1     -126.0940  151.2020  167.0090 C.ar   53  PHE53      -0.0003
     21  CE2     -127.8280  152.7420  167.6110 C.ar   53  PHE53      -0.0003
     22  CZ      -126.5980  152.4890  167.0290 C.ar   53  PHE53      -0.0000
     23  N       -125.5250  148.4840  164.4060 N.3    55  ALA55      -0.1231
     24  CA      -124.6100  149.4290  163.7780 C.3    55  ALA55       0.1694
     25  C       -124.5200  149.1200  162.2860 C.2    55  ALA55       0.2592
     26  O       -125.0990  148.1520  161.7970 O.2    55  ALA55      -0.2718
     27  CB      -123.2340  149.3680  164.4360 C.3    55  ALA55       0.0304
     28  N       -123.7780  149.9420  161.5440 N.am   56  ASP56      -0.1960
     29  CA      -123.5510  149.6210  160.1360 C.3    56  ASP56       0.1840
     30  C       -122.2130  150.1980  159.7010 C.2    56  ASP56       0.2621
     31  O       -121.6600  151.1030  160.3360 O.2    56  ASP56      -0.2715
     32  CB      -124.6940  150.1490  159.2550 C.3    56  ASP56       0.1450
     33  CG      -124.6860  149.5670  157.8330 C.2    56  ASP56       0.3671
     34  OD1     -124.1500  148.4510  157.6190 O.co2  56  ASP56      -0.2456
     35  OD2     -125.2440  150.2380  156.9290 O.co2  56  ASP56      -0.2456
     36  N       -121.6870  149.6370  158.6190 N.am   57  ALA57      -0.1977
     37  CA      -120.5210  150.1750  157.9420 C.3    57  ALA57       0.1597
     38  C       -120.6760  149.8770  156.4600 C.2    57  ALA57       0.2287
     39  O       -121.2730  148.8690  156.0720 O.2    57  ALA57      -0.2864
     40  CB      -119.2130  149.5790  158.4750 C.3    57  ALA57       0.0319
     41  N       -128.8380  151.4230  161.9810 N.3   102  THR102     -0.1218
     42  CA      -128.0130  152.5130  161.4800 C.3   102  THR102      0.1862
     43  C       -128.2330  152.7020  159.9810 C.2   102  THR102      0.2287
     44  O       -128.3780  151.7290  159.2300 O.2   102  THR102     -0.2866
     45  CB      -126.5410  152.2220  161.7880 C.3   102  THR102      0.1770
     46  OG1     -126.3360  152.3180  163.2050 O.3   102  THR102     -0.2211
     47  CG2     -125.6310  153.2080  161.1050 C.3   102  THR102      0.0375
     48  N       -130.6780  155.0190  163.4760 N.3   131  ASN131     -0.1240
     49  CA      -129.4670  155.6730  163.9670 C.3   131  ASN131      0.1653
     50  C       -128.8110  156.4410  162.8190 C.2   131  ASN131      0.2266
     51  O       -128.2680  155.8430  161.8830 O.2   131  ASN131     -0.2867
     52  CB      -128.4990  154.6680  164.5820 C.3   131  ASN131      0.1155
     53  CG      -127.2430  155.3290  165.0970 C.2   131  ASN131      0.2627
     54  OD1     -127.2980  156.3710  165.7560 O.2   131  ASN131     -0.2716
     55  ND2     -126.1000  154.7580  164.7580 N.am  131  ASN131     -0.0877
     56  N       -126.1280  158.2920  160.9270 N.3   133  VAL133     -0.1231
     57  CA      -124.6820  158.4670  160.8830 C.3   133  VAL133      0.1692
     58  C       -124.2990  159.1130  159.5570 C.2   133  VAL133      0.2593
     59  O       -125.0440  159.0720  158.5780 O.2   133  VAL133     -0.2718
     60  CB      -123.9080  157.1450  161.0800 C.3   133  VAL133      0.0266
     61  CG1     -124.2340  156.5230  162.4430 C.3   133  VAL133      0.0020
     62  CG2     -124.1890  156.1730  159.9390 C.3   133  VAL133      0.0020
     63  N       -123.1160  159.7210  159.5400 N.am  134  THR134     -0.1939
     64  CA      -122.5490  160.2760  158.3200 C.3   134  THR134      0.2028
     65  C       -121.4370  159.4010  157.7420 C.2   134  THR134      0.2643
     66  O       -120.6870  159.8670  156.8760 O.2   134  THR134     -0.2714
     67  CB      -122.0310  161.6930  158.5810 C.3   134  THR134      0.1808
     68  OG1     -121.1770  161.6780  159.7300 O.3   134  THR134     -0.2208
     69  CG2     -123.1920  162.6520  158.8440 C.3   134  THR134      0.0379
     70  N       -121.3090  158.1540  158.2260 N.am  135  THR135     -0.1936
     71  CA      -120.4090  157.1100  157.7230 C.3   135  THR135      0.2028
     72  C       -118.9460  157.3630  158.0680 C.2   135  THR135      0.2642
     73  O       -118.3050  158.2610  157.5120 O.2   135  THR135     -0.2714
     74  CB      -120.5880  156.9220  156.2170 C.3   135  THR135      0.1808
     75  OG1     -121.9250  156.4730  155.9750 O.3   135  THR135     -0.2208
     76  CG2     -119.6040  155.8690  155.6530 C.3   135  THR135      0.0379
     77  N       -118.4070  156.5560  158.9860 N.am  136  GLY136     -0.1954
     78  CA      -117.0250  156.6820  159.4170 C.3   136  GLY136      0.1869
     79  C       -116.0200  156.0180  158.5120 C.2   136  GLY136      0.2309
     80  O       -114.8100  156.1720  158.7140 O.2   136  GLY136     -0.2863
     81  N       -115.5800  165.9860  156.2920 N.3   152  HIS152     -0.1241
     82  CA      -116.2600  165.5920  157.5270 C.3   152  HIS152      0.1621
     83  C       -117.4150  166.5300  157.8700 C.2   152  HIS152      0.2264
     84  O       -118.5630  166.0930  158.0050 O.2   152  HIS152     -0.2867
     85  CB      -115.2590  165.5330  158.6840 C.3   152  HIS152      0.0745
     86  CG      -115.8820  165.1920  160.0070 C.ar  152  HIS152      0.0817
     87  ND1     -116.4320  166.1430  160.8400 N.ar  152  HIS152     -0.2268
     88  CD2     -116.0330  164.0050  160.6430 C.ar  152  HIS152      0.1154
     89  CE1     -116.8890  165.5580  161.9340 C.ar  152  HIS152      0.1986
     90  NE2     -116.6600  164.2600  161.8400 N.ar  152  HIS152     -0.2212
     91  N       -120.3150  166.5440  155.5930 N.3   155  ARG155     -0.1231
     92  CA      -121.2380  165.4130  155.6660 C.3   155  ARG155      0.1694
     93  C       -122.3680  165.6950  156.6500 C.2   155  ARG155      0.2592
     94  O       -123.4860  165.2070  156.4660 O.2   155  ARG155     -0.2718
     95  CB      -120.5010  164.1160  156.0470 C.3   155  ARG155      0.0321
     96  CG      -119.5080  163.6070  154.9880 C.3   155  ARG155      0.0489
     97  CD      -119.1940  162.1070  155.1070 C.3   155  ARG155      0.2205
     98  NE      -118.6270  161.7390  156.4080 N.pl3 155  ARG155     -0.0865
     99  CZ      -117.3490  161.8880  156.7400 C.cat 155  ARG155      0.5346
    100  NH1     -116.4870  162.4110  155.8740 N.pl3 155  ARG155      0.1354
    101  NH2     -116.9270  161.5250  157.9530 N.pl3 155  ARG155      0.1354
    102  N       -122.1010  166.4890  157.6880 N.am  156  TYR156     -0.1976
    103  CA      -123.1690  166.8780  158.6020 C.3   156  TYR156      0.1639
    104  C       -124.0770  167.9500  157.9940 C.2   156  TYR156      0.2290
    105  O       -125.2900  167.9450  158.2390 O.2   156  TYR156     -0.2864
    106  CB      -122.5760  167.3390  159.9310 C.3   156  TYR156      0.0560
    107  CG      -122.1850  166.1770  160.8180 C.ar  156  TYR156     -0.0198
    108  CD1     -123.1570  165.4000  161.4360 C.ar  156  TYR156     -0.0009
    109  CD2     -120.8500  165.8470  161.0250 C.ar  156  TYR156     -0.0009
    110  CE1     -122.8080  164.3240  162.2520 C.ar  156  TYR156      0.0417
    111  CE2     -120.4910  164.7680  161.8420 C.ar  156  TYR156      0.0417
    112  CZ      -121.4760  164.0170  162.4530 C.ar  156  TYR156      0.1957
    113  OH      -121.1380  162.9450  163.2650 O.3   156  TYR156     -0.2866
    114  N       -125.4020  159.1660  166.4380 N.3   224  ALA224     -0.1231
    115  CA      -124.1040  158.7220  166.9220 C.3   224  ALA224      0.1694
    116  C       -123.0290  159.4660  166.1470 C.2   224  ALA224      0.2593
    117  O       -122.9540  159.3560  164.9160 O.2   224  ALA224     -0.2718
    118  CB      -123.9520  157.2020  166.7550 C.3   224  ALA224      0.0304
    119  N       -122.1840  160.1890  166.8680 N.am  225  GLY225     -0.1942
    120  CA      -121.1950  161.0510  166.2530 C.3   225  GLY225      0.2014
    121  C       -120.9230  162.1990  167.2020 C.2   225  GLY225      0.2640
    122  O       -121.6810  163.1720  167.2410 O.2   225  GLY225     -0.2714
    123  N       -119.8530  162.0960  167.9910 N.am  226  SER226     -0.1935
    124  CA      -119.6160  163.0240  169.0890 C.3   226  SER226      0.2055
    125  C       -118.5110  164.0300  168.7890 C.2   226  SER226      0.2643
    126  O       -117.9400  164.6090  169.7180 O.2   226  SER226     -0.2714
    127  CB      -119.3060  162.2580  170.3780 C.3   226  SER226      0.2130
    128  OG      -118.0960  161.5290  170.2740 O.3   226  SER226     -0.2179
    129  N       -118.2000  164.2570  167.5160 N.am  227  SER227     -0.1949
    130  CA      -117.3930  165.4180  167.1830 C.3   227  SER227      0.1924
    131  C       -118.1980  166.6730  167.5000 C.2   227  SER227      0.2314
    132  O       -119.4190  166.6270  167.6880 O.2   227  SER227     -0.2863
    133  CB      -116.9860  165.4160  165.7110 C.3   227  SER227      0.2116
    134  OG      -118.1270  165.4920  164.8680 O.3   227  SER227     -0.2180
    135  N       -126.3040  158.3940  171.1980 N.3   242  PHE242     -0.1227
    136  CA      -125.4210  157.2950  171.5590 C.3   242  PHE242      0.1736
    137  C       -124.0220  157.8580  171.7800 C.2   242  PHE242      0.2595
    138  O       -123.4190  158.4000  170.8480 O.2   242  PHE242     -0.2718
    139  CB      -125.4550  156.2600  170.4250 C.3   242  PHE242      0.0547
    140  CG      -124.8150  154.9270  170.7480 C.ar  242  PHE242     -0.0202
    141  CD1     -124.4780  154.5780  172.0460 C.ar  242  PHE242     -0.0042
    142  CD2     -124.5560  154.0140  169.7230 C.ar  242  PHE242     -0.0042
    143  CE1     -123.8960  153.3510  172.3230 C.ar  242  PHE242     -0.0003
    144  CE2     -123.9710  152.7810  169.9900 C.ar  242  PHE242     -0.0003
    145  CZ      -123.6410  152.4470  171.3010 C.ar  242  PHE242     -0.0000
    146  N       -123.5210  157.7650  173.0130 N.am  243  LEU243     -0.1966
    147  CA      -122.1900  158.2380  173.3700 C.3   243  LEU243      0.1728
    148  C       -121.2530  157.0790  173.6930 C.2   243  LEU243      0.2616
    149  O       -121.6550  156.0980  174.3280 O.2   243  LEU243     -0.2715
    150  CB      -122.2520  159.1730  174.5810 C.3   243  LEU243      0.0311
    151  CG      -122.8950  160.5410  174.3380 C.3   243  LEU243      0.0022
    152  CD1     -122.9530  161.3300  175.6370 C.3   243  LEU243      0.0001
    153  CD2     -122.1150  161.3060  173.2770 C.3   243  LEU243      0.0001
    154  N       -119.9930  157.2040  173.2800 N.am  244  GLY244     -0.1955
    155  CA      -118.9900  156.2490  173.7030 C.3   244  GLY244      0.1869
    156  C       -118.6890  156.3740  175.1900 C.2   244  GLY244      0.2309
    157  O       -119.0360  157.3510  175.8500 O.2   244  GLY244     -0.2863
    158  N       -122.4930  153.8160  175.7910 N.3   277  ALA277     -0.1245
    159  CA      -122.0430  152.4430  175.6030 C.3   277  ALA277      0.1562
    160  C       -121.5140  151.9130  176.9310 C.2   277  ALA277      0.2260
    161  O       -120.9360  152.6580  177.7320 O.2   277  ALA277     -0.2867
    162  CB      -120.9590  152.3710  174.5350 C.3   277  ALA277      0.0290
    163  N       -112.4800  161.3020  158.3950 N.3   333  LEU333     -0.1231
    164  CA      -113.3610  160.1700  158.6480 C.3   333  LEU333      0.1693
    165  C       -113.8770  160.2140  160.0830 C.2   333  LEU333      0.2593
    166  O       -114.5480  161.1750  160.4730 O.2   333  LEU333     -0.2718
    167  CB      -112.6240  158.8580  158.3620 C.3   333  LEU333      0.0284
    168  CG      -112.6040  158.3280  156.9220 C.3   333  LEU333      0.0019
    169  CD1     -112.3930  159.4310  155.8950 C.3   333  LEU333      0.0001
    170  CD2     -111.5390  157.2490  156.7610 C.3   333  LEU333      0.0001
    171  N       -113.5680  159.1930  160.8800 N.am  334  SER334     -0.1938
    172  CA      -114.0380  159.1140  162.2680 C.3   334  SER334      0.2055
    173  C       -113.1230  159.9730  163.1360 C.2   334  SER334      0.2643
    174  O       -112.1260  159.5010  163.6880 O.2   334  SER334     -0.2714
    175  CB      -114.0700  157.6640  162.7410 C.3   334  SER334      0.2130
    176  OG      -114.7690  156.8240  161.8140 O.3   334  SER334     -0.2179
    177  N       -113.4770  161.2550  163.2720 N.am  335  GLN335     -0.1963
    178  CA      -112.5890  162.2050  163.9400 C.3   335  GLN335      0.1733
    179  C       -112.4650  161.9360  165.4340 C.2   335  GLN335      0.2617
    180  O       -111.4240  162.2430  166.0290 O.2   335  GLN335     -0.2715
    181  CB      -113.0680  163.6350  163.7000 C.3   335  GLN335      0.0408
    182  CG      -112.9450  164.0670  162.2500 C.3   335  GLN335      0.0908
    183  CD      -113.1760  165.5470  162.0670 C.2   335  GLN335      0.2608
    184  OE1     -113.8440  166.1830  162.8770 O.2   335  GLN335     -0.2717
    185  NE2     -112.6180  166.1080  160.9980 N.am  335  GLN335     -0.0878
    186  N       -113.5010  161.3730  166.0610 N.am  336  THR336     -0.1937
    187  CA      -113.4070  161.0720  167.4870 C.3   336  THR336      0.2028
    188  C       -112.3320  160.0220  167.7660 C.2   336  THR336      0.2642
    189  O       -111.6590  160.0860  168.8000 O.2   336  THR336     -0.2714
    190  CB      -114.7760  160.6300  168.0190 C.3   336  THR336      0.1808
    191  OG1     -115.6690  161.7530  168.0120 O.3   336  THR336     -0.2208
    192  CG2     -114.6730  160.0870  169.4380 C.3   336  THR336      0.0379
    193  N       -112.1220  159.0780  166.8440 N.am  337  GLN337     -0.1976
    194  CA      -111.0600  158.0920  167.0230 C.3   337  GLN337      0.1601
    195  C       -109.6620  158.6860  166.9160 C.2   337  GLN337      0.2287
    196  O       -108.6870  157.9750  167.1910 O.2   337  GLN337     -0.2864
    197  CB      -111.2050  156.9620  166.0100 C.3   337  GLN337      0.0394
    198  CG      -112.5250  156.2420  166.1210 C.3   337  GLN337      0.0908
    199  CD      -112.8340  155.8680  167.5510 C.2   337  GLN337      0.2608
    200  OE1     -111.9590  155.4010  168.2840 O.2   337  GLN337     -0.2717
    201  NE2     -114.0750  156.0840  167.9620 N.am  337  GLN337     -0.0878
@<TRIPOS>BOND
     1    96    97    1
     2    96    95    1
     3    97    98    1
     4    91    92    1
     5    76    74    1
     6    92    95    1
     7    92    93    1
     8   100    99    1
     9   169   168    1
    10    75    74    1
    11    39    38    2
    12    74    71    1
    13    81    82    1
    14    98    99    2
    15    38    37    1
    16    94    93    2
    17    93   102   am
    18    99   101    1
    19   170   168    1
    20    66    65    2
    21   168   167    1
    22    35    33   ar
    23    73    72    2
    24    82    83    1
    25    82    85    1
    26    34    33   ar
    27   102   103    1
    28    71    72    1
    29    71    70    1
    30    65    70   am
    31    65    64    1
    32    33    32    1
    33    83    84    2
    34    37    40    1
    35    37    36    1
    36   104   105    2
    37   104   103    1
    38    72    77   am
    39    64    67    1
    40    64    63    1
    41   167   164    1
    42   163   164    1
    43    79    80    2
    44    79    78    1
    45    59    58    2
    46    67    69    1
    47    67    68    1
    48   103   106    1
    49    36    30   am
    50   164   165    1
    51    85    86    1
    52    77    78    1
    53    44    43    2
    54    32    29    1
    55    63    58   am
    56    58    57    1
    57    30    29    1
    58    30    31    2
    59   106   107    1
    60    62    60    1
    61    43    42    1
    62    86    88   ar
    63    86    87   ar
    64   165   166    2
    65   165   171   am
    66    29    28    1
    67    88    90   ar
    68   107   109   ar
    69   107   108   ar
    70    87    89   ar
    71   171   172    1
    72    57    56    1
    73    57    60    1
    74   185   183   am
    75   109   111   ar
    76    60    61    1
    77    47    45    1
    78   108   110   ar
    79    42    45    1
    80    42    41    1
    81    28    25   am
    82    45    46    1
    83    26    25    2
    84   176   175    1
    85    90    89   ar
    86   111   112   ar
    87    51    50    2
    88   183   182    1
    89   183   184    2
    90   182   181    1
    91   110   112   ar
    92   172   175    1
    93   172   173    1
    94    25    24    1
    95   112   113    1
    96    50    49    1
    97   173   177   am
    98   173   174    2
    99   177   178    1
   100    48    49    1
   101   181   178    1
   102    24    23    1
   103    24    27    1
   104   178   179    1
   105    49    52    1
   106    52    53    1
   107    55    53   am
   108   134   133    1
   109   117   116    2
   110    53    54    2
   111   179   180    2
   112   179   186   am
   113   133   130    1
   114   197   198    1
   115   197   194    1
   116   186   187    1
   117   198   199    1
   118   116   119   am
   119   116   115    1
   120   120   119    1
   121   120   121    1
   122   114   115    1
   123   118   115    1
   124   193   194    1
   125   193   188   am
   126   195   194    1
   127   195   196    2
   128    14    15    2
   129    14    13    1
   130    20    22   ar
   131    20    18   ar
   132    22    21   ar
   133   130   131    1
   134   130   129    1
   135   121   122    2
   136   121   123   am
   137   187   188    1
   138   187   190    1
   139   131   132    2
   140   129   125   am
   141   199   201   am
   142   199   200    2
   143    18    17   ar
   144    21    19   ar
   145    11     9   ar
   146    11    10   ar
   147   188   189    2
   148    13    12    1
   149    13    16    1
   150     9     7   ar
   151   123   124    1
   152   191   190    1
   153   190   192    1
   154    17    19   ar
   155    17    16    1
   156    10     8   ar
   157   125   124    1
   158   125   126    2
   159     7     6   ar
   160   124   127    1
   161     8     6   ar
   162   142   144   ar
   163   142   140   ar
   164     6     5    1
   165     3     4    2
   166     3     2    1
   167   144   145   ar
   168   128   127    1
   169   139   140    1
   170   139   136    1
   171     2     5    1
   172     2     1    1
   173   140   141   ar
   174   138   137    2
   175   135   136    1
   176   145   143   ar
   177   136   137    1
   178   137   146   am
   179   141   143   ar
   180   146   147    1
   181   153   151    1
   182   154   148   am
   183   154   155    1
   184   147   148    1
   185   147   150    1
   186   148   149    2
   187   155   156    1
   188   151   150    1
   189   151   152    1
   190   162   159    1
   191   156   157    2
   192   159   158    1
   193   159   160    1
   194   160   161    2
