@<TRIPOS>MOLECULE
tmp/5w5jB00.pdb
 134 125 0 0 0
SMALL
GASTEIGER

@<TRIPOS>ATOM
      1  N         -9.8560    5.7680   14.2720 N.3    15  LEU15      -0.1231
      2  CA       -11.1940    5.3860   13.8170 C.3    15  LEU15       0.1693
      3  C        -11.7160    4.2200   14.6500 C.2    15  LEU15       0.2592
      4  O        -12.7050    4.3740   15.3610 O.2    15  LEU15      -0.2718
      5  CB       -11.2080    4.9890   12.3260 C.3    15  LEU15       0.0284
      6  CG       -11.6230    6.0500   11.3150 C.3    15  LEU15       0.0019
      7  CD1      -11.5060    5.5250    9.9040 C.3    15  LEU15       0.0001
      8  CD2      -13.0260    6.5500   11.5590 C.3    15  LEU15       0.0001
      9  N        -11.0580    3.0520   14.5450 N.am   16  SER16      -0.1952
     10  CA       -11.4300    1.8140   15.2310 C.3    16  SER16       0.1924
     11  C        -10.2060    0.8950   15.4720 C.2    16  SER16       0.2314
     12  O         -9.1500    1.1070   14.8730 O.2    16  SER16      -0.2863
     13  CB       -12.5090    1.0800   14.4400 C.3    16  SER16       0.2116
     14  OG       -12.8820   -0.1350   15.0700 O.3    16  SER16      -0.2180
     15  N         -7.3490    0.8270   12.7590 N.3    22  VAL22      -0.1245
     16  CA        -7.8590    1.6250   11.6510 C.3    22  VAL22       0.1561
     17  C         -7.8590    3.1010   12.0940 C.2    22  VAL22       0.2260
     18  O         -8.4060    3.4390   13.1540 O.2    22  VAL22      -0.2867
     19  CB        -9.2460    1.1400   11.1470 C.3    22  VAL22       0.0252
     20  CG1       -9.7790    2.0310   10.0110 C.3    22  VAL22       0.0019
     21  CG2       -9.1910   -0.3240   10.7150 C.3    22  VAL22       0.0019
     22  N         -8.2770    5.7850    4.8470 N.3    35  ALA35      -0.1231
     23  CA        -8.3090    5.0160    6.0790 C.3    35  ALA35       0.1694
     24  C         -7.1760    4.0580    5.9470 C.2    35  ALA35       0.2592
     25  O         -6.9540    3.5060    4.8650 O.2    35  ALA35      -0.2718
     26  CB        -9.6250    4.2790    6.2370 C.3    35  ALA35       0.0304
     27  N         -6.4000    3.9280    7.0190 N.am   36  VAL36      -0.1966
     28  CA        -5.2340    3.0580    7.0620 C.3    36  VAL36       0.1727
     29  C         -5.2730    2.1410    8.2810 C.2    36  VAL36       0.2616
     30  O         -5.5300    2.6050    9.4010 O.2    36  VAL36      -0.2715
     31  CB        -3.8890    3.8180    6.8410 C.3    36  VAL36       0.0290
     32  CG1       -3.7020    4.9670    7.8320 C.3    36  VAL36       0.0023
     33  CG2       -2.6860    2.8660    6.8320 C.3    36  VAL36       0.0023
     34  N         -5.1080    0.8260    8.0310 N.am   37  LYS37      -0.1977
     35  CA        -5.1030   -0.2190    9.0500 C.3    37  LYS37       0.1596
     36  C         -3.6880   -0.7910    9.1620 C.2    37  LYS37       0.2287
     37  O         -3.1110   -1.2100    8.1460 O.2    37  LYS37      -0.2864
     38  CB        -6.1240   -1.3200    8.7200 C.3    37  LYS37       0.0298
     39  CG        -6.2300   -2.4240    9.7790 C.3    37  LYS37       0.0038
     40  CD        -7.1400   -3.5510    9.3300 C.3    37  LYS37       0.0206
     41  CE        -8.1820   -3.8880   10.3700 C.3    37  LYS37       0.1093
     42  NZ        -9.5140   -4.1480    9.7540 N.3    37  LYS37      -0.1314
     43  N        -15.4690   -2.5400   -0.2570 N.3    58  LEU58      -0.1245
     44  CA       -14.5940   -1.4050    0.0530 C.3    58  LEU58       0.1561
     45  C        -13.3170   -1.4120   -0.8090 C.2    58  LEU58       0.2260
     46  O        -12.5800   -2.4080   -0.8240 O.2    58  LEU58      -0.2867
     47  CB       -14.2730   -1.3210    1.5580 C.3    58  LEU58       0.0270
     48  CG       -13.2970   -0.2340    2.0350 C.3    58  LEU58       0.0019
     49  CD1      -13.8960    1.1600    1.9330 C.3    58  LEU58       0.0001
     50  CD2      -12.8960   -0.4980    3.4490 C.3    58  LEU58       0.0001
     51  N         -2.7440   -1.4850    5.2060 N.3    72  ILE72      -0.1245
     52  CA        -3.6530   -1.4120    4.0680 C.3    72  ILE72       0.1561
     53  C         -4.3410   -0.0530    4.0590 C.2    72  ILE72       0.2260
     54  O         -4.8380    0.4090    5.0950 O.2    72  ILE72      -0.2867
     55  CB        -4.6760   -2.5830    3.9750 C.3    72  ILE72       0.0252
     56  CG1       -3.9510   -3.9440    3.8750 C.3    72  ILE72       0.0019
     57  CG2       -5.6090   -2.3940    2.7520 C.3    72  ILE72       0.0019
     58  CD1       -4.8350   -5.2140    3.8940 C.3    72  ILE72       0.0001
     59  N         -7.4470    2.0710    2.4250 N.3    74  THR74      -0.1203
     60  CA        -8.7280    2.0360    1.7310 C.3    74  THR74       0.1994
     61  C         -9.3010    3.4430    1.7200 C.2    74  THR74       0.2621
     62  O         -8.7170    4.3670    2.2950 O.2    74  THR74      -0.2717
     63  CB        -9.7570    1.0890    2.3720 C.3    74  THR74       0.1784
     64  OG1      -10.3580    1.7150    3.5100 O.3    74  THR74      -0.2211
     65  CG2       -9.2350   -0.3180    2.6380 C.3    74  THR74       0.0376
     66  N        -10.4730    3.5880    1.0840 N.am   75  GLU75      -0.1919
     67  CA       -11.2190    4.8500    1.0290 C.3    75  GLU75       0.1949
     68  C        -11.7760    5.1040    2.4380 C.2    75  GLU75       0.2659
     69  O        -11.9970    4.1590    3.2030 O.2    75  GLU75      -0.2711
     70  CB       -12.3860    4.7680    0.0010 C.2    75  GLU75       0.0111
     71  CG       -12.0130    4.5480   -1.4630 C.2    75  GLU75       0.0838
     72  CD       -13.1490    4.6020   -2.4760 C.2    75  GLU75       0.3877
     73  OE1      -14.3040    4.2960   -2.0910 O.co2  75  GLU75      -0.2406
     74  OE2      -12.8740    4.8790   -3.6700 O.co2  75  GLU75      -0.2406
     75  N        -11.9600    6.3650    2.7890 N.am   76  TYR76      -0.1957
     76  CA       -12.5450    6.6880    4.0720 C.3    76  TYR76       0.1771
     77  C        -14.0470    6.7540    3.8560 C.2    76  TYR76       0.2619
     78  O        -14.5110    7.4630    2.9590 O.2    76  TYR76      -0.2715
     79  CB       -11.9950    8.0150    4.6090 C.3    76  TYR76       0.0574
     80  CG       -12.7600    8.5490    5.7990 C.ar   76  TYR76      -0.0198
     81  CD1      -12.6970    7.9120    7.0410 C.ar   76  TYR76      -0.0009
     82  CD2      -13.5250    9.7040    5.6940 C.ar   76  TYR76      -0.0009
     83  CE1      -13.3910    8.4040    8.1360 C.ar   76  TYR76       0.0417
     84  CE2      -14.2160   10.2100    6.7850 C.ar   76  TYR76       0.0417
     85  CZ       -14.1400    9.5630    8.0070 C.ar   76  TYR76       0.1957
     86  OH       -14.8400   10.0600    9.0810 O.3    76  TYR76      -0.2866
     87  N        -14.8030    5.9820    4.6400 N.am   77  MET77      -0.1977
     88  CA       -16.2600    5.9370    4.5610 C.3    77  MET77       0.1605
     89  C        -16.8020    6.9310    5.5950 C.2    77  MET77       0.2287
     90  O        -16.6560    6.7210    6.8030 O.2    77  MET77      -0.2864
     91  CB       -16.7540    4.5000    4.7590 C.3    77  MET77       0.0413
     92  CG       -16.3650    3.5740    3.6150 C.3    77  MET77       0.0598
     93  SD       -17.1440    4.0830    2.0700 S.3    77  MET77      -0.1393
     94  CE       -15.7600    4.3880    1.0450 C.3    77  MET77       0.0692
     95  N        -19.4860    5.9170    8.6300 N.3    80  GLY80      -0.1210
     96  CA       -19.0910    4.8070    9.4850 C.3    80  GLY80       0.1956
     97  C        -19.6670    3.4590    9.1520 C.2    80  GLY80       0.2612
     98  O        -19.9180    3.1560    7.9840 O.2    80  GLY80      -0.2717
     99  N        -19.8700    2.6390   10.1990 N.am   81  SER81      -0.1952
    100  CA       -20.4040    1.2790   10.0860 C.3    81  SER81       0.1924
    101  C        -21.9240    1.2150   10.1400 C.2    81  SER81       0.2314
    102  O        -22.5840    2.1640   10.5940 O.2    81  SER81      -0.2863
    103  CB       -19.8230    0.3850   11.1730 C.3    81  SER81       0.2116
    104  OG       -20.3190    0.6990   12.4630 O.3    81  SER81      -0.2180
    105  N        -23.1490    1.4880   13.7880 N.3    84  GLU84      -0.1196
    106  CA       -23.3430    2.8730   14.2200 C.3    84  GLU84       0.1783
    107  C        -24.7320    3.4060   13.7760 C.2    84  GLU84       0.2306
    108  O        -25.4640    3.8850   14.6280 O.2    84  GLU84      -0.2863
    109  CB       -22.2000    3.7660   13.7200 C.2    84  GLU84       0.0071
    110  CG       -20.8110    3.4200   14.2790 C.2    84  GLU84       0.0834
    111  CD       -19.6170    4.0450   13.5720 C.2    84  GLU84       0.3877
    112  OE1      -19.7640    5.1600   13.0210 O.co2  84  GLU84      -0.2406
    113  OE2      -18.5220    3.4370   13.6000 O.co2  84  GLU84      -0.2406
    114  N        -19.5990   -0.9340    5.9600 N.3   130  LEU130     -0.1245
    115  CA       -19.3790    0.5060    5.9840 C.3   130  LEU130      0.1561
    116  C        -20.3540    1.2610    5.0720 C.2   130  LEU130      0.2260
    117  O        -20.8520    0.7110    4.0740 O.2   130  LEU130     -0.2867
    118  CB       -17.9100    0.8560    5.6770 C.3   130  LEU130      0.0270
    119  CG       -16.8380    0.1690    6.5290 C.3   130  LEU130      0.0019
    120  CD1      -15.4950    0.5340    6.0760 C.3   130  LEU130      0.0001
    121  CD2      -16.9780    0.5090    8.0080 C.3   130  LEU130      0.0001
    122  N        -16.2540   -4.4100    4.1320 N.3   140  ALA140     -0.1231
    123  CA       -14.8410   -4.3790    4.4890 C.3   140  ALA140      0.1694
    124  C        -14.3610   -5.6510    5.2000 C.2   140  ALA140      0.2592
    125  O        -14.1450   -5.6500    6.4070 O.2   140  ALA140     -0.2718
    126  CB       -14.5550   -3.1430    5.3220 C.3   140  ALA140      0.0304
    127  N        -14.0380   -6.6920    4.4020 N.am  141  ASP141     -0.1974
    128  CA       -13.5400   -8.0070    4.8540 C.3   141  ASP141      0.1709
    129  C        -12.0870   -8.4200    4.4810 C.2   141  ASP141      0.2293
    130  O        -11.4110   -7.8000    3.6380 O.2   141  ASP141     -0.2864
    131  CB       -14.5180   -9.1260    4.4770 C.3   141  ASP141      0.1436
    132  CG       -15.5060   -9.4300    5.5750 C.2   141  ASP141      0.3671
    133  OD1      -15.1150  -10.1120    6.5520 O.co2 141  ASP141     -0.2456
    134  OD2      -16.6760   -8.9960    5.4550 O.co2 141  ASP141     -0.2456
@<TRIPOS>BOND
     1    74    72   ar
     2    72    73   ar
     3    72    71    1
     4    71    70    2
     5    46    45    2
     6    45    44    1
     7    43    44    1
     8    70    67    1
     9    44    47    1
    10    67    66    1
    11    67    68    1
    12    94    93    1
    13    66    61   am
    14    47    48    1
    15    61    60    1
    16    61    62    2
    17    60    63    1
    18    60    59    1
    19    49    48    1
    20    48    50    1
    21    93    92    1
    22    63    65    1
    23    63    64    1
    24    68    75   am
    25    68    69    2
    26    57    55    1
    27    75    76    1
    28    78    77    2
    29    92    91    1
    30   130   129    2
    31    77    76    1
    32    77    87   am
    33    56    58    1
    34    56    55    1
    35    55    52    1
    36    53    52    1
    37    53    54    2
    38    52    51    1
    39    76    79    1
    40   117   116    2
    41   122   123    1
    42   127   128    1
    43   127   124   am
    44   131   128    1
    45   131   132    1
    46   129   128    1
    47   123   124    1
    48   123   126    1
    49    88    87    1
    50    88    91    1
    51    88    89    1
    52    79    80    1
    53    22    23    1
    54    25    24    2
    55   116   115    1
    56   124   125    2
    57   134   132   ar
    58   132   133   ar
    59    89    90    2
    60   118   115    1
    61   118   119    1
    62    82    80   ar
    63    82    84   ar
    64    80    81   ar
    65    24    23    1
    66    24    27   am
    67   114   115    1
    68   120   119    1
    69    23    26    1
    70   119   121    1
    71    84    85   ar
    72    33    31    1
    73    31    28    1
    74    31    32    1
    75    27    28    1
    76    81    83   ar
    77    28    29    1
    78    98    97    2
    79    85    83   ar
    80    85    86    1
    81    34    29   am
    82    34    35    1
    83    37    36    2
    84    29    30    2
    85    95    96    1
    86    38    35    1
    87    38    39    1
    88    35    36    1
    89    97    96    1
    90    97    99   am
    91    40    39    1
    92    40    41    1
    93    42    41    1
    94     7     6    1
    95    20    19    1
    96   100   101    1
    97   100    99    1
    98   100   103    1
    99   101   102    2
   100    21    19    1
   101    19    16    1
   102   103   104    1
   103     6     8    1
   104     6     5    1
   105    16    17    1
   106    16    15    1
   107    17    18    2
   108     5     2    1
   109   112   111   ar
   110   111   113   ar
   111   111   110    1
   112   109   106    1
   113   109   110    2
   114   107   106    1
   115   107   108    2
   116   105   106    1
   117     2     1    1
   118     2     3    1
   119    13    14    1
   120    13    10    1
   121     9     3   am
   122     9    10    1
   123     3     4    2
   124    12    11    2
   125    10    11    1
