@<TRIPOS>MOLECULE
tmp/5w5kC00.pdb
 145 142 0 0 0
SMALL
GASTEIGER

@<TRIPOS>ATOM
      1  N        -24.6500   36.0920   11.5840 N.3    28  HIS28      -0.1227
      2  CA       -23.5500   35.8760   10.6580 C.3    28  HIS28       0.1737
      3  C        -22.3820   35.2290   11.4010 C.2    28  HIS28       0.2438
      4  O        -22.0660   35.6300   12.5270 O.2    28  HIS28      -0.2733
      5  CB       -23.1230   37.2160   10.0480 C.3    28  HIS28       0.0758
      6  CG       -22.1910   37.0920    8.8830 C.ar   28  HIS28       0.0818
      7  ND1      -20.8530   36.7940    9.0280 N.ar   28  HIS28      -0.2268
      8  CD2      -22.4000   37.2420    7.5540 C.ar   28  HIS28       0.1154
      9  CE1      -20.2810   36.7550    7.8390 C.ar   28  HIS28       0.1986
     10  NE2      -21.1970   37.0240    6.9260 N.ar   28  HIS28      -0.2212
     11  N        -21.7280   34.2250   10.8100 N.am   29  PRO29      -0.2729
     12  CA       -20.7160   33.4630   11.5630 C.3    29  PRO29       0.1401
     13  C        -19.5350   34.2960   12.0190 C.2    29  PRO29       0.2269
     14  O        -18.8660   33.9190   12.9890 O.2    29  PRO29      -0.2865
     15  CB       -20.2870   32.3720   10.5730 C.3    29  PRO29       0.0296
     16  CG       -20.6570   32.9060    9.2290 C.3    29  PRO29       0.0237
     17  CD       -21.8990   33.7140    9.4390 C.3    29  PRO29       0.0939
     18  N        -19.1240   38.5890   -0.4120 N.3    96  SER96      -0.1217
     19  CA       -19.2840   38.2190    0.9940 C.3    96  SER96       0.1889
     20  C        -18.6430   39.2620    1.9140 C.2    96  SER96       0.2288
     21  O        -17.5950   39.0390    2.5210 O.2    96  SER96      -0.2866
     22  CB       -18.7000   36.8250    1.2550 C.3    96  SER96       0.2089
     23  OG       -19.3250   35.8410    0.4460 O.3    96  SER96      -0.2183
     24  N        -10.9190   39.4980    9.6280 N.3   136  PRO136     -0.2116
     25  CA        -9.7060   38.9000    9.0480 C.3   136  PRO136      0.1372
     26  C         -9.2200   39.6560    7.8220 C.2   136  PRO136      0.2244
     27  O         -9.8610   40.6190    7.3910 O.2   136  PRO136     -0.2868
     28  CB       -10.1530   37.4760    8.6970 C.3   136  PRO136      0.0268
     29  CG       -11.6190   37.5990    8.4720 C.3   136  PRO136      0.0207
     30  CD       -12.0850   38.6080    9.4880 C.3   136  PRO136      0.0892
     31  N         -6.8790   38.0020    4.9430 N.3   138  HIS138     -0.1226
     32  CA        -6.0830   37.3750    3.8910 C.3   138  HIS138      0.1752
     33  C         -6.8220   37.2870    2.5600 C.2   138  HIS138      0.2596
     34  O         -6.1790   37.0620    1.5280 O.2   138  HIS138     -0.2718
     35  CB        -5.6260   35.9800    4.3230 C.3   138  HIS138      0.0759
     36  CG        -6.7390   34.9890    4.4690 C.ar  138  HIS138      0.0818
     37  ND1       -6.5540   33.6350    4.2850 N.ar  138  HIS138     -0.2268
     38  CD2       -8.0460   35.1500    4.7830 C.ar  138  HIS138      0.1154
     39  CE1       -7.6990   33.0060    4.4770 C.ar  138  HIS138      0.1986
     40  NE2       -8.6200   33.9020    4.7810 N.ar  138  HIS138     -0.2212
     41  N         -8.1450   37.4510    2.5510 N.am  139  HIS139     -0.1975
     42  CA        -8.8830   37.4940    1.2940 C.3   139  HIS139      0.1656
     43  C         -8.9040   38.8840    0.6680 C.2   139  HIS139      0.2291
     44  O         -9.3000   39.0160   -0.4950 O.2   139  HIS139     -0.2864
     45  CB       -10.3260   37.0190    1.4970 C.3   139  HIS139      0.0771
     46  CG       -10.4480   35.5710    1.8590 C.ar  139  HIS139      0.0820
     47  ND1       -9.9840   34.5580    1.0480 N.ar  139  HIS139     -0.2267
     48  CD2      -10.9980   34.9660    2.9390 C.ar  139  HIS139      0.1154
     49  CE1      -10.2350   33.3920    1.6170 C.ar  139  HIS139      0.1986
     50  NE2      -10.8500   33.6120    2.7650 N.ar  139  HIS139     -0.2212
     51  N        -14.5650   38.3100    1.2800 N.3   147  GLY147     -0.1210
     52  CA       -14.5310   37.2070    2.2200 C.3   147  GLY147      0.1956
     53  C        -14.3180   37.6360    3.6570 C.2   147  GLY147      0.2611
     54  O        -13.4750   37.0680    4.3580 O.2   147  GLY147     -0.2717
     55  N        -15.0560   38.6600    4.0880 N.am  148  PHE148     -0.1976
     56  CA       -15.0990   39.2130    5.4450 C.3   148  PHE148      0.1639
     57  C        -13.8930   40.1120    5.6850 C.2   148  PHE148      0.2290
     58  O        -13.7410   40.6370    6.7950 O.2   148  PHE148     -0.2864
     59  CB       -15.1420   38.1540    6.5620 C.3   148  PHE148      0.0560
     60  CG       -16.1290   37.0420    6.3280 C.ar  148  PHE148     -0.0200
     61  CD1      -17.2670   37.2390    5.5630 C.ar  148  PHE148     -0.0042
     62  CD2      -15.9130   35.7910    6.8860 C.ar  148  PHE148     -0.0042
     63  CE1      -18.1640   36.2090    5.3520 C.ar  148  PHE148     -0.0003
     64  CE2      -16.8080   34.7610    6.6830 C.ar  148  PHE148     -0.0003
     65  CZ       -17.9340   34.9690    5.9150 C.ar  148  PHE148     -0.0000
     66  N         -5.3740   28.7600    7.6370 N.3   177  ASP177     -0.1239
     67  CA        -6.8120   28.8860    7.4410 C.3   177  ASP177      0.1674
     68  C         -7.2810   27.9150    6.3630 C.2   177  ASP177      0.2266
     69  O         -6.5670   27.6400    5.3950 O.2   177  ASP177     -0.2867
     70  CB        -7.1670   30.3250    7.0570 C.3   177  ASP177      0.1410
     71  CG        -8.6630   30.5560    6.9630 C.2   177  ASP177      0.3668
     72  OD1       -9.2930   30.0270    6.0230 O.co2 177  ASP177     -0.2456
     73  OD2       -9.2090   31.2730    7.8270 O.co2 177  ASP177     -0.2456
     74  N         -9.2920   28.2990    4.0780 N.3   179  HIS179     -0.1241
     75  CA        -9.4850   28.9280    2.7830 C.3   179  HIS179      0.1621
     76  C         -8.1520   29.4230    2.2410 C.2   179  HIS179      0.2264
     77  O         -7.2380   29.7590    2.9970 O.2   179  HIS179     -0.2867
     78  CB       -10.4690   30.0960    2.8730 C.3   179  HIS179      0.0745
     79  CG       -11.8500   29.6930    3.2800 C.ar  179  HIS179      0.0817
     80  ND1      -12.2710   29.6970    4.5920 N.ar  179  HIS179     -0.2268
     81  CD2      -12.9090   29.2780    2.5460 C.ar  179  HIS179      0.1154
     82  CE1      -13.5290   29.2980    4.6490 C.ar  179  HIS179      0.1986
     83  NE2      -13.9400   29.0380    3.4210 N.ar  179  HIS179     -0.2212
     84  N        -14.1980   25.0620   -3.9250 N.3   207  PHE207     -0.1227
     85  CA       -14.2970   25.5860   -2.5720 C.3   207  PHE207      0.1736
     86  C        -13.8670   27.0460   -2.5630 C.2   207  PHE207      0.2595
     87  O        -12.9790   27.4420   -3.3240 O.2   207  PHE207     -0.2718
     88  CB       -13.4240   24.7700   -1.6140 C.3   207  PHE207      0.0547
     89  CG       -13.8010   24.9160   -0.1660 C.ar  207  PHE207     -0.0202
     90  CD1      -14.9040   24.2540    0.3470 C.ar  207  PHE207     -0.0042
     91  CD2      -13.0410   25.7010    0.6860 C.ar  207  PHE207     -0.0042
     92  CE1      -15.2510   24.3830    1.6790 C.ar  207  PHE207     -0.0003
     93  CE2      -13.3820   25.8320    2.0200 C.ar  207  PHE207     -0.0003
     94  CZ       -14.4880   25.1720    2.5170 C.ar  207  PHE207     -0.0000
     95  N        -14.5300   27.8440   -1.7310 N.am  208  PHE208     -0.1976
     96  CA       -14.2160   29.2620   -1.6200 C.3   208  PHE208      0.1639
     97  C        -12.7110   29.4510   -1.4310 C.2   208  PHE208      0.2290
     98  O        -12.0930   28.7290   -0.6370 O.2   208  PHE208     -0.2864
     99  CB       -14.9820   29.8880   -0.4500 C.3   208  PHE208      0.0560
    100  CG       -14.9270   31.3900   -0.4230 C.ar  208  PHE208     -0.0200
    101  CD1      -15.8640   32.1420   -1.1130 C.ar  208  PHE208     -0.0042
    102  CD2      -13.9390   32.0500    0.2880 C.ar  208  PHE208     -0.0042
    103  CE1      -15.8170   33.5250   -1.0920 C.ar  208  PHE208     -0.0003
    104  CE2      -13.8850   33.4310    0.3100 C.ar  208  PHE208     -0.0003
    105  CZ       -14.8260   34.1690   -0.3800 C.ar  208  PHE208     -0.0000
    106  N        -12.8790   29.7890   -4.8120 N.3   210  ASN210     -0.1240
    107  CA       -13.4270   29.3310   -6.0910 C.3   210  ASN210      0.1653
    108  C        -12.5340   29.7460   -7.2630 C.2   210  ASN210      0.2266
    109  O        -13.0170   30.0250   -8.3600 O.2   210  ASN210     -0.2867
    110  CB       -14.8620   29.8360   -6.3020 C.3   210  ASN210      0.1155
    111  CG       -15.7910   29.4770   -5.1510 C.2   210  ASN210      0.2627
    112  OD1      -16.2710   28.3480   -5.0590 O.2   210  ASN210     -0.2716
    113  ND2      -16.0630   30.4440   -4.2800 N.am  210  ASN210     -0.0877
    114  N        -10.7330   27.6700   10.9300 N.3   270  ASP270     -0.1239
    115  CA       -11.8960   27.0840   10.2810 C.3   270  ASP270      0.1674
    116  C        -11.6100   25.7250    9.6570 C.2   270  ASP270      0.2266
    117  O        -12.5250   25.1190    9.0920 O.2   270  ASP270     -0.2867
    118  CB       -12.4460   28.0380    9.2150 C.3   270  ASP270      0.1410
    119  CG       -11.3530   28.7610    8.4570 C.2   270  ASP270      0.3668
    120  OD1      -10.1930   28.3000    8.4920 O.co2 270  ASP270     -0.2456
    121  OD2      -11.6580   29.7900    7.8210 O.co2 270  ASP270     -0.2456
    122  N        -18.1280   25.8150    8.7190 N.3   277  LEU277     -0.1245
    123  CA       -17.7890   26.2620    7.3710 C.3   277  LEU277      0.1561
    124  C        -16.7190   25.4140    6.6790 C.2   277  LEU277      0.2260
    125  O        -16.7590   25.2580    5.4530 O.2   277  LEU277     -0.2867
    126  CB       -17.2960   27.7190    7.4020 C.3   277  LEU277      0.0270
    127  CG       -18.0870   28.9470    7.8750 C.3   277  LEU277      0.0019
    128  CD1      -18.2720   29.8930    6.7020 C.3   277  LEU277      0.0001
    129  CD2      -19.4230   28.6210    8.5200 C.3   277  LEU277      0.0001
    130  N         -9.7980   33.3410   10.0500 N.3   308  GLY308     -0.1225
    131  CA       -11.1160   32.7800   10.2360 C.3   308  GLY308      0.1811
    132  C        -11.1770   31.8040   11.3910 C.2   308  GLY308      0.2280
    133  O        -10.3010   31.7600   12.2590 O.2   308  GLY308     -0.2866
    134  N        -14.8470   29.6610   13.1140 N.3   310  TYR310     -0.1241
    135  CA       -16.2140   30.0850   13.3690 C.3   310  TYR310      0.1605
    136  C        -16.9300   29.3170   14.4690 C.2   310  TYR310      0.2264
    137  O        -18.0250   29.7310   14.8630 O.2   310  TYR310     -0.2867
    138  CB       -17.0130   30.0540   12.0620 C.3   310  TYR310      0.0534
    139  CG       -16.3230   30.9540   11.0690 C.ar  310  TYR310     -0.0201
    140  CD1      -16.4250   32.3340   11.1810 C.ar  310  TYR310     -0.0009
    141  CD2      -15.4990   30.4360   10.0800 C.ar  310  TYR310     -0.0009
    142  CE1      -15.7700   33.1710   10.3090 C.ar  310  TYR310      0.0417
    143  CE2      -14.8370   31.2680    9.2000 C.ar  310  TYR310      0.0417
    144  CZ       -14.9780   32.6360    9.3200 C.ar  310  TYR310      0.1957
    145  OH       -14.3270   33.4810    8.4560 O.3   310  TYR310     -0.2866
@<TRIPOS>BOND
     1   109   108    2
     2   108   107    1
     3   110   107    1
     4   110   111    1
     5   107   106    1
     6   111   112    2
     7   111   113   am
     8    84    85    1
     9    87    86    2
    10    85    86    1
    11    85    88    1
    12    86    95   am
    13    95    96    1
    14    96    97    1
    15    96    99    1
    16    88    89    1
    17    97    98    2
    18   101   103   ar
    19   101   100   ar
    20   103   105   ar
    21    44    43    2
    22    99   100    1
    23   100   102   ar
    24    18    19    1
    25   105   104   ar
    26    89    90   ar
    27    89    91   ar
    28   102   104   ar
    29    90    92   ar
    30    23    22    1
    31    43    42    1
    32    91    93   ar
    33    19    22    1
    34    19    20    1
    35    47    49   ar
    36    47    46   ar
    37    51    52    1
    38    42    45    1
    39    42    41    1
    40    45    46    1
    41    34    33    2
    42    49    50   ar
    43    92    94   ar
    44    46    48   ar
    45    20    21    2
    46    93    94   ar
    47    52    53    1
    48    76    75    1
    49    76    77    2
    50    81    79   ar
    51    81    83   ar
    52    41    33   am
    53    33    32    1
    54    50    48   ar
    55    75    78    1
    56    75    74    1
    57    78    79    1
    58    79    80   ar
    59    83    82   ar
    60    53    55   am
    61    53    54    2
    62    32    35    1
    63    32    31    1
    64    55    56    1
    65    37    36   ar
    66    37    39   ar
    67    35    36    1
    68    36    38   ar
    69    39    40   ar
    70    80    82   ar
    71    40    38   ar
    72    63    61   ar
    73    63    65   ar
    74    69    68    2
    75    56    57    1
    76    56    59    1
    77   125   124    2
    78    61    60   ar
    79    57    58    2
    80    65    64   ar
    81    72    71   ar
    82    60    59    1
    83    60    62   ar
    84    68    67    1
    85   124   123    1
    86    64    62   ar
    87   128   127    1
    88    10     8   ar
    89    10     9   ar
    90    71    70    1
    91    71    73   ar
    92    70    67    1
    93   123   126    1
    94   123   122    1
    95    27    26    2
    96   126   127    1
    97    67    66    1
    98     8     6   ar
    99   121   119   ar
   100    26    25    1
   101     9     7   ar
   102   127   129    1
   103   145   144    1
   104   119   120   ar
   105   119   118    1
   106    29    28    1
   107    29    30    1
   108    28    25    1
   109     6     7   ar
   110     6     5    1
   111    25    24    1
   112   117   116    2
   113   143   144   ar
   114   143   141   ar
   115   118   115    1
   116    16    17    1
   117    16    15    1
   118   144   142   ar
   119    17    11    1
   120    30    24    1
   121   116   115    1
   122     5     2    1
   123   130   131    1
   124   141   139   ar
   125   131   132    1
   126   115   114    1
   127   142   140   ar
   128    15    12    1
   129     2     3    1
   130     2     1    1
   131    11     3   am
   132    11    12    1
   133   139   140   ar
   134   139   138    1
   135   132   133    2
   136     3     4    2
   137    12    13    1
   138    13    14    2
   139   138   135    1
   140   134   135    1
   141   135   136    1
   142   136   137    2
