@<TRIPOS>MOLECULE
tmp/5w5oB00.pdb
 205 193 0 0 0
SMALL
GASTEIGER

@<TRIPOS>ATOM
      1  N         30.9420   -3.4280  105.6910 N.3    20  LEU20      -0.1231
      2  CA        30.0420   -4.0580  104.7190 C.3    20  LEU20       0.1693
      3  C         30.8120   -4.6900  103.5660 C.2    20  LEU20       0.2592
      4  O         30.5980   -5.8660  103.2730 O.2    20  LEU20      -0.2718
      5  CB        29.0200   -3.0610  104.1550 C.3    20  LEU20       0.0284
      6  CG        27.9050   -2.5860  105.0460 C.3    20  LEU20       0.0019
      7  CD1       27.2190   -1.4010  104.4110 C.3    20  LEU20       0.0001
      8  CD2       26.8850   -3.6950  105.3340 C.3    20  LEU20       0.0001
      9  N         31.6890   -3.8890  102.8980 N.am   21  SER21      -0.1952
     10  CA        32.4840   -4.2820  101.7370 C.3    21  SER21       0.1924
     11  C         33.7080   -3.3710  101.5180 C.2    21  SER21       0.2314
     12  O         33.7650   -2.2530  102.0320 O.2    21  SER21      -0.2863
     13  CB        31.6090   -4.2760  100.4840 C.3    21  SER21       0.2116
     14  OG        32.2760   -4.7980   99.3460 O.3    21  SER21      -0.2180
     15  N         36.8470    1.6960   94.6890 N.3    25  SER25      -0.1217
     16  CA        36.3910    3.0380   95.0590 C.3    25  SER25       0.1889
     17  C         36.6540    3.3770   96.5210 C.2    25  SER25       0.2288
     18  O         36.8420    4.5590   96.8300 O.2    25  SER25      -0.2866
     19  CB        34.9100    3.2140   94.7380 C.3    25  SER25       0.2089
     20  OG        34.1060    2.1030   95.1090 O.3    25  SER25      -0.2183
     21  N         33.1570    0.4560  102.1440 N.3    28  VAL28      -0.1245
     22  CA        31.7780    0.7740  102.4190 C.3    28  VAL28       0.1561
     23  C         31.4330    0.1550  103.7540 C.2    28  VAL28       0.2260
     24  O         31.5650   -1.0590  103.9370 O.2    28  VAL28      -0.2867
     25  CB        30.8690    0.2990  101.2440 C.3    28  VAL28       0.0252
     26  CG1       29.4550    0.0330  101.7070 C.3    28  VAL28       0.0019
     27  CG2       30.8670    1.3080  100.1030 C.3    28  VAL28       0.0019
     28  N         25.0120    4.6580  104.8250 N.3    41  ALA41      -0.1245
     29  CA        26.1850    3.9770  104.2700 C.3    41  ALA41       0.1562
     30  C         27.3030    5.0170  104.0800 C.2    41  ALA41       0.2260
     31  O         27.0330    6.1250  103.6090 O.2    41  ALA41      -0.2867
     32  CB        25.8550    3.3330  102.9610 C.3    41  ALA41       0.0290
     33  N         31.3580    5.5760  102.5970 N.3    43  LYS43      -0.1245
     34  CA        32.5150    5.1120  101.8130 C.3    43  LYS43       0.1561
     35  C         33.7910    5.8340  102.2700 C.2    43  LYS43       0.2260
     36  O         33.7770    7.0710  102.3380 O.2    43  LYS43      -0.2867
     37  CB        32.3000    5.3390  100.3030 C.3    43  LYS43       0.0271
     38  CG        31.0800    4.6160   99.7270 C.3    43  LYS43       0.0035
     39  CD        31.0420    4.7770   98.2020 C.3    43  LYS43       0.0206
     40  CE        29.6110    4.7370   97.6950 C.3    43  LYS43       0.1093
     41  NZ        29.5760    5.0570   96.2390 N.3    43  LYS43      -0.1314
     42  N         28.0620   13.5140   93.4050 N.3    57  LEU57      -0.1245
     43  CA        26.7890   12.9880   93.9410 C.3    57  LEU57       0.1561
     44  C         25.8040   14.0710   94.3960 C.2    57  LEU57       0.2260
     45  O         24.5800   13.8680   94.3280 O.2    57  LEU57      -0.2867
     46  CB        27.0480   11.9970   95.0710 C.3    57  LEU57       0.0270
     47  CG        27.5730   10.6180   94.6570 C.3    57  LEU57       0.0019
     48  CD1       28.6490   10.1280   95.6030 C.3    57  LEU57       0.0001
     49  CD2       26.4680    9.6180   94.5940 C.3    57  LEU57       0.0001
     50  N         22.2570    7.5970   93.7110 N.3    66  LEU66      -0.1245
     51  CA        22.4300    7.4180   95.1500 C.3    66  LEU66       0.1561
     52  C         22.4300    8.7600   95.9100 C.2    66  LEU66       0.2260
     53  O         23.2310    9.6470   95.6040 O.2    66  LEU66      -0.2867
     54  CB        23.6590    6.5600   95.4760 C.3    66  LEU66       0.0270
     55  CG        23.8550    6.1660   96.9530 C.3    66  LEU66       0.0019
     56  CD1       22.8040    5.1820   97.4280 C.3    66  LEU66       0.0001
     57  CD2       25.2170    5.5720   97.1680 C.3    66  LEU66       0.0001
     58  N         32.4770    9.5830  102.5970 N.3    80  ILE80      -0.1245
     59  CA        31.1870   10.0200  102.0270 C.3    80  ILE80       0.1561
     60  C         30.0460    9.2640  102.7170 C.2    80  ILE80       0.2260
     61  O         30.0740    8.0420  102.7720 O.2    80  ILE80      -0.2867
     62  CB        31.1970    9.7620  100.4740 C.3    80  ILE80       0.0252
     63  CG1       32.0190   10.8440   99.7240 C.3    80  ILE80       0.0019
     64  CG2       29.7830    9.5850   99.8670 C.3    80  ILE80       0.0019
     65  CD1       32.3940   10.4950   98.2910 C.3    80  ILE80       0.0001
     66  N         26.0180    8.5310  102.6250 N.3    82  THR82      -0.1203
     67  CA        24.8490    8.5150  101.7620 C.3    82  THR82       0.1994
     68  C         23.7180    7.6730  102.3860 C.2    82  THR82       0.2621
     69  O         23.8340    7.2070  103.5230 O.2    82  THR82      -0.2717
     70  CB        25.2460    7.9140  100.3930 C.3    82  THR82       0.1784
     71  OG1       25.6260    6.5490  100.5360 O.3    82  THR82      -0.2211
     72  CG2       26.3350    8.6920   99.6940 C.3    82  THR82       0.0376
     73  N         22.6280    7.4730  101.6340 N.am   83  GLU83      -0.1919
     74  CA        21.4980    6.6610  102.0630 C.3    83  GLU83       0.1949
     75  C         21.9210    5.2050  102.0390 C.2    83  GLU83       0.2659
     76  O         22.7440    4.8040  101.2130 O.2    83  GLU83      -0.2711
     77  CB        20.3110    6.8600  101.1180 C.2    83  GLU83       0.0111
     78  CG        19.4720    8.1060  101.3770 C.2    83  GLU83       0.0838
     79  CD        18.1080    8.1660  100.6930 C.2    83  GLU83       0.3877
     80  OE1       17.4580    9.2310  100.7770 O.co2  83  GLU83      -0.2406
     81  OE2       17.6720    7.1550  100.0930 O.co2  83  GLU83      -0.2406
     82  N         21.3720    4.4160  102.9610 N.am   84  TYR84      -0.1957
     83  CA        21.6530    2.9770  103.0570 C.3    84  TYR84       0.1771
     84  C         20.6990    2.1760  102.1430 C.2    84  TYR84       0.2619
     85  O         19.4750    2.3610  102.1880 O.2    84  TYR84      -0.2715
     86  CB        21.6190    2.4910  104.5230 C.3    84  TYR84       0.0574
     87  CG        21.8200    1.0070  104.6840 C.ar   84  TYR84      -0.0198
     88  CD1       23.0970    0.4450  104.6300 C.ar   84  TYR84      -0.0009
     89  CD2       20.7370    0.1560  104.8880 C.ar   84  TYR84      -0.0009
     90  CE1       23.2900   -0.9350  104.7700 C.ar   84  TYR84       0.0417
     91  CE2       20.9130   -1.2230  105.0260 C.ar   84  TYR84       0.0417
     92  CZ        22.1900   -1.7660  104.9720 C.ar   84  TYR84       0.1957
     93  OH        22.3330   -3.1260  105.1240 O.3    84  TYR84      -0.2866
     94  N         21.2850    1.3030  101.3000 N.am   85  MET85      -0.1964
     95  CA        20.5650    0.4510  100.3600 C.3    85  MET85       0.1722
     96  C         20.3820   -0.9360  100.9610 C.2    85  MET85       0.2458
     97  O         21.3500   -1.6940  101.0570 O.2    85  MET85      -0.2730
     98  CB        21.2400    0.4430   98.9840 C.3    85  MET85       0.0427
     99  CG        21.2670    1.8170   98.3500 C.3    85  MET85       0.0599
    100  SD        19.6090    2.4620   98.0790 S.3    85  MET85      -0.1393
    101  CE        19.7490    4.0860   98.7080 C.3    85  MET85       0.0692
    102  N         19.1530   -1.2400  101.4510 N.am   86  PRO86      -0.2716
    103  CA        18.9370   -2.5130  102.1610 C.3    86  PRO86       0.1536
    104  C         19.2260   -3.7710  101.3710 C.2    86  PRO86       0.2599
    105  O         19.8440   -4.6940  101.9130 O.2    86  PRO86      -0.2715
    106  CB        17.4620   -2.4470  102.5960 C.3    86  PRO86       0.0310
    107  CG        17.1150   -0.9820  102.5800 C.3    86  PRO86       0.0237
    108  CD        17.9240   -0.4120  101.4510 C.3    86  PRO86       0.0939
    109  N         18.7930   -3.8050  100.0990 N.am   87  ASN87      -0.1959
    110  CA        18.9460   -4.9830   99.2370 C.3    87  ASN87       0.1819
    111  C         20.1990   -4.9320   98.3270 C.2    87  ASN87       0.2622
    112  O         20.1740   -5.4790   97.2140 O.2    87  ASN87      -0.2715
    113  CB        17.6600   -5.2350   98.4340 C.3    87  ASN87       0.1195
    114  CG        16.4050   -5.1820   99.2700 C.2    87  ASN87       0.2630
    115  OD1       15.8540   -4.1150   99.5070 O.2    87  ASN87      -0.2716
    116  ND2       15.9620   -6.3190   99.7890 N.am   87  ASN87      -0.0877
    117  N         21.2710   -4.3060   98.8430 N.am   88  GLY88      -0.1940
    118  CA        22.5980   -4.1770   98.2370 C.3    88  GLY88       0.2014
    119  C         22.6810   -3.7490   96.7840 C.2    88  GLY88       0.2639
    120  O         22.1810   -2.6770   96.4240 O.2    88  GLY88      -0.2714
    121  N         23.3400   -4.5880   95.9430 N.am   89  SER89      -0.1949
    122  CA        23.5540   -4.3600   94.5110 C.3    89  SER89       0.1924
    123  C         22.8110   -5.3550   93.6020 C.2    89  SER89       0.2314
    124  O         22.3080   -6.3910   94.0720 O.2    89  SER89      -0.2863
    125  CB        25.0450   -4.3740   94.1920 C.3    89  SER89       0.2116
    126  OG        25.6200   -5.6730   94.2280 O.3    89  SER89      -0.2180
    127  N         24.2890   -8.9440   93.3060 N.3    92  GLU92      -0.1245
    128  CA        23.7940   -9.8240   94.3720 C.3    92  GLU92       0.1567
    129  C         22.4330  -10.4310   93.9890 C.2    92  GLU92       0.2260
    130  O         22.2280  -11.6260   94.1660 O.2    92  GLU92      -0.2867
    131  CB        23.7130   -9.0590   95.7130 C.3    92  GLU92       0.0388
    132  CG        25.0230   -8.4180   96.1620 C.3    92  GLU92       0.1160
    133  CD        25.0450   -7.9790   97.6170 C.2    92  GLU92       0.3649
    134  OE1       24.0730   -7.3150   98.0400 O.co2  92  GLU92      -0.2457
    135  OE2       26.0300   -8.2790   98.3330 O.co2  92  GLU92      -0.2457
    136  N         22.9630  -14.4090   93.2350 N.3    96  ARG96      -0.1245
    137  CA        22.5940  -15.1870   94.4210 C.3    96  ARG96       0.1563
    138  C         21.3420  -15.9700   94.0500 C.2    96  ARG96       0.2260
    139  O         20.2310  -15.6010   94.4250 O.2    96  ARG96      -0.2867
    140  CB        22.4180  -14.3250   95.6810 C.3    96  ARG96       0.0307
    141  CG        23.7430  -13.7980   96.1770 C.3    96  ARG96       0.0489
    142  CD        23.7280  -13.4250   97.6380 C.3    96  ARG96       0.2205
    143  NE        24.9990  -12.8060   98.0380 N.pl3  96  ARG96      -0.0865
    144  CZ        25.2090  -12.1940   99.2000 C.cat  96  ARG96       0.5346
    145  NH1       24.2360  -12.1020  100.0970 N.pl3  96  ARG96       0.1354
    146  NH2       26.3940  -11.6690   99.4750 N.pl3  96  ARG96       0.1354
    147  N         19.4560  -17.6210   97.1910 N.3    99  GLU99      -0.1231
    148  CA        18.7150  -16.6020   97.9290 C.3    99  GLU99       0.1699
    149  C         17.5570  -16.0730   97.0950 C.2    99  GLU99       0.2592
    150  O         16.4580  -15.8920   97.6210 O.2    99  GLU99      -0.2718
    151  CB        19.6660  -15.4570   98.3300 C.3    99  GLU99       0.0402
    152  CG        19.0800  -14.4750   99.3280 C.3    99  GLU99       0.1161
    153  CD        20.0250  -13.4060   99.8450 C.2    99  GLU99       0.3649
    154  OE1       21.2540  -13.6560   99.8920 O.co2  99  GLU99      -0.2457
    155  OE2       19.5260  -12.3220  100.2330 O.co2  99  GLU99      -0.2457
    156  N         17.8100  -15.8100   95.8070 N.am  100  TYR100     -0.1976
    157  CA        16.8210  -15.2990   94.8600 C.3   100  TYR100      0.1639
    158  C         16.6780  -16.2970   93.6820 C.2   100  TYR100      0.2290
    159  O         17.2300  -16.0500   92.5960 O.2   100  TYR100     -0.2864
    160  CB        17.2060  -13.8850   94.3450 C.3   100  TYR100      0.0560
    161  CG        17.5100  -12.8510   95.4130 C.ar  100  TYR100     -0.0198
    162  CD1       16.5020  -12.3470   96.2360 C.ar  100  TYR100     -0.0009
    163  CD2       18.7900  -12.3150   95.5470 C.ar  100  TYR100     -0.0009
    164  CE1       16.7710  -11.3630   97.1910 C.ar  100  TYR100      0.0417
    165  CE2       19.0700  -11.3320   96.4980 C.ar  100  TYR100      0.0417
    166  CZ        18.0570  -10.8580   97.3180 C.ar  100  TYR100      0.1957
    167  OH        18.3320   -9.8880   98.2560 O.3   100  TYR100     -0.2866
    168  N         27.4400   -4.1590   90.3800 N.3   137  GLN137     -0.1231
    169  CA        27.7600   -3.8590   91.7660 C.3   137  GLN137      0.1698
    170  C         27.4370   -2.3820   92.0960 C.2   137  GLN137      0.2592
    171  O         27.1590   -2.0600   93.2480 O.2   137  GLN137     -0.2718
    172  CB        29.2430   -4.1330   92.0180 C.3   137  GLN137      0.0381
    173  CG        29.5930   -5.6010   92.0480 C.3   137  GLN137      0.0905
    174  CD        29.9440   -6.0120   93.4660 C.2   137  GLN137      0.2608
    175  OE1       31.1240   -6.0690   93.8510 O.2   137  GLN137     -0.2717
    176  NE2       28.9300   -6.2920   94.2880 N.am  137  GLN137     -0.0878
    177  N         27.5110   -1.4930   91.0900 N.am  138  ASN138     -0.1974
    178  CA        27.2940   -0.0390   91.2010 C.3   138  ASN138      0.1688
    179  C         25.8190    0.3130   91.1540 C.2   138  ASN138      0.2292
    180  O         25.4570    1.4400   91.5150 O.2   138  ASN138     -0.2864
    181  CB        28.0110    0.6890   90.0510 C.3   138  ASN138      0.1181
    182  CG        29.5290    0.7030   90.0770 C.2   138  ASN138      0.2629
    183  OD1       30.1490    1.5210   89.3840 O.2   138  ASN138     -0.2716
    184  ND2       30.2060   -0.1950   90.7740 N.am  138  ASN138     -0.0877
    185  N         22.6820   -0.0760   92.7370 N.3   140  LEU140     -0.1245
    186  CA        22.1530   -0.4220   94.0590 C.3   140  LEU140      0.1561
    187  C         20.6530   -0.4500   94.0880 C.2   140  LEU140      0.2260
    188  O         20.0060    0.2030   93.2570 O.2   140  LEU140     -0.2867
    189  CB        22.6970    0.5030   95.1380 C.3   140  LEU140      0.0270
    190  CG        24.2100    0.7270   95.1820 C.3   140  LEU140      0.0019
    191  CD1       24.5250    1.8810   96.0550 C.3   140  LEU140      0.0001
    192  CD2       24.9540   -0.5220   95.6490 C.3   140  LEU140      0.0001
    193  N         25.6660    4.2250   91.8350 N.3   150  ALA150     -0.1231
    194  CA        26.7520    4.6470   92.7070 C.3   150  ALA150      0.1694
    195  C         28.1070    4.6190   92.0010 C.2   150  ALA150      0.2592
    196  O         28.1470    4.3930   90.8030 O.2   150  ALA150     -0.2718
    197  CB        26.7780    3.7900   93.9560 C.3   150  ALA150      0.0304
    198  N         29.2160    4.8720   92.7400 N.am  151  ASP151     -0.1974
    199  CA        30.6130    4.8800   92.2690 C.3   151  ASP151      0.1709
    200  C         30.8550    5.9050   91.1730 C.2   151  ASP151      0.2293
    201  O         30.8530    5.5840   89.9820 O.2   151  ASP151     -0.2864
    202  CB        31.1180    3.4790   91.8600 C.3   151  ASP151      0.1436
    203  CG        31.6470    2.6180   92.9930 C.2   151  ASP151      0.3671
    204  OD1       31.3630    2.9390   94.1780 O.co2 151  ASP151     -0.2456
    205  OD2       32.3270    1.6130   92.7030 O.co2 151  ASP151     -0.2456
@<TRIPOS>BOND
     1   183   182    2
     2   201   200    2
     3   181   182    1
     4   181   178    1
     5   182   184   am
     6   168   169    1
     7   196   195    2
     8   177   178    1
     9   177   170   am
    10   179   178    1
    11   179   180    2
    12   200   199    1
    13   169   172    1
    14   169   170    1
    15   193   194    1
    16   202   199    1
    17   202   203    1
    18   195   194    1
    19   195   198   am
    20   172   173    1
    21   173   174    1
    22   170   171    2
    23   199   198    1
    24   159   158    2
    25   205   203   ar
    26   194   197    1
    27   185   186    1
    28   203   204   ar
    29   136   137    1
    30   188   187    2
    31   127   128    1
    32    42    43    1
    33   174   175    2
    34   174   176   am
    35   123   124    2
    36   123   122    1
    37   158   157    1
    38    50    51    1
    39    43    44    1
    40    43    46    1
    41   129   130    2
    42   129   128    1
    43   138   137    1
    44   138   139    2
    45   186   187    1
    46   186   189    1
    47   125   126    1
    48   125   122    1
    49    45    44    2
    50   160   157    1
    51   160   161    1
    52   128   131    1
    53   137   140    1
    54   122   121    1
    55    49    47    1
    56    47    46    1
    57    47    48    1
    58    15    16    1
    59    19    16    1
    60    19    20    1
    61   157   156    1
    62    16    17    1
    63   189   190    1
    64    51    54    1
    65    51    52    1
    66   190   192    1
    67   190   191    1
    68   161   163   ar
    69   161   162   ar
    70    54    55    1
    71   163   165   ar
    72    53    52    2
    73   140   141    1
    74   131   132    1
    75   156   149   am
    76   121   119   am
    77   132   133    1
    78   141   142    1
    79   162   164   ar
    80    41    40    1
    81   120   119    2
    82   165   166   ar
    83    17    18    2
    84   119   118    1
    85    55    57    1
    86    55    56    1
    87   149   150    2
    88   149   148    1
    89   147   148    1
    90   164   166   ar
    91   112   111    2
    92   166   167    1
    93   133   134   ar
    94   133   135   ar
    95   142   143    1
    96    40    39    1
    97   148   151    1
    98   143   144    2
    99   100    99    1
   100   100   101    1
   101    39    38    1
   102   118   117    1
   103    65    63    1
   104   111   117   am
   105   111   110    1
   106   151   152    1
   107    99    98    1
   108   113   110    1
   109   113   114    1
   110    98    95    1
   111   144   146    1
   112   144   145    1
   113   110   109    1
   114   114   115    2
   115   114   116   am
   116   152   153    1
   117    14    13    1
   118    72    70    1
   119    63    62    1
   120    38    37    1
   121   153   154   ar
   122   153   155   ar
   123    64    62    1
   124    81    79   ar
   125   109   104   am
   126    27    25    1
   127    37    34    1
   128    95    96    1
   129    95    94    1
   130    70    71    1
   131    70    67    1
   132    62    59    1
   133    13    10    1
   134    79    80   ar
   135    79    78    1
   136    96    97    2
   137    96   102   am
   138    77    78    2
   139    77    74    1
   140    76    75    2
   141    25    26    1
   142    25    22    1
   143    94    84   am
   144   104   105    2
   145   104   103    1
   146   102   108    1
   147   102   103    1
   148   108   107    1
   149    11    10    1
   150    11    12    2
   151    73    74    1
   152    73    68   am
   153    10     9    1
   154    67    68    1
   155    67    66    1
   156    34    35    1
   157    34    33    1
   158    59    58    1
   159    59    60    1
   160    75    74    1
   161    75    82   am
   162    84    85    2
   163    84    83    1
   164    21    22    1
   165   103   106    1
   166    35    36    2
   167    68    69    2
   168    22    23    1
   169   107   106    1
   170    60    61    2
   171     9     3   am
   172    82    83    1
   173    32    29    1
   174    83    86    1
   175     4     3    2
   176     3     2    1
   177    31    30    2
   178    23    24    2
   179    30    29    1
   180     5     2    1
   181     5     6    1
   182    29    28    1
   183     7     6    1
   184    86    87    1
   185    88    87   ar
   186    88    90   ar
   187    87    89   ar
   188     2     1    1
   189    90    92   ar
   190    89    91   ar
   191    92    91   ar
   192    92    93    1
   193     6     8    1
