@<TRIPOS>MOLECULE
tmp/5w5vA00.pdb
 122 116 0 0 0
SMALL
GASTEIGER

@<TRIPOS>ATOM
      1  N        -49.3590  127.1820    4.4460 N.3    14  ILE14      -0.1231
      2  CA       -49.0030  128.5110    3.9600 C.3    14  ILE14       0.1692
      3  C        -47.5990  128.8550    4.4340 C.2    14  ILE14       0.2591
      4  O        -47.2270  128.5890    5.5830 O.2    14  ILE14      -0.2718
      5  CB       -50.0360  129.5630    4.4080 C.3    14  ILE14       0.0266
      6  CG1      -49.7580  130.9130    3.7330 C.3    14  ILE14       0.0019
      7  CG2      -50.0820  129.6800    5.9320 C.3    14  ILE14       0.0020
      8  CD1      -50.5360  132.0720    4.3230 C.3    14  ILE14       0.0001
      9  N        -46.8030  129.4200    3.5360 N.am   15  LEU15      -0.1980
     10  CA       -45.4140  129.7290    3.8380 C.3    15  LEU15       0.1596
     11  C        -45.2240  131.2320    4.0390 C.2    15  LEU15       0.2287
     12  O        -46.1010  132.0300    3.7040 O.2    15  LEU15      -0.2864
     13  CB       -44.4990  129.2110    2.7290 C.3    15  LEU15       0.0297
     14  CG       -44.5980  127.6970    2.5280 C.3    15  LEU15       0.0022
     15  CD1      -43.8690  127.2460    1.2720 C.3    15  LEU15       0.0001
     16  CD2      -44.0810  126.9540    3.7540 C.3    15  LEU15       0.0001
     17  N        -48.0250  132.5720    0.0440 N.3    19  VAL19      -0.1245
     18  CA       -47.1680  131.5360   -0.5170 C.3    19  VAL19       0.1561
     19  C        -47.4910  130.2410    0.2100 C.2    19  VAL19       0.2260
     20  O        -47.3890  130.1760    1.4400 O.2    19  VAL19      -0.2867
     21  CB       -45.6760  131.8850   -0.3890 C.3    19  VAL19       0.0252
     22  CG1      -44.8180  130.6810   -0.7450 C.3    19  VAL19       0.0019
     23  CG2      -45.3330  133.0660   -1.2850 C.3    19  VAL19       0.0019
     24  N        -43.1840  126.0380   -4.6790 N.3    32  ALA32      -0.1245
     25  CA       -43.7420  127.2100   -4.0150 C.3    32  ALA32       0.1562
     26  C        -44.8350  127.8210   -4.8820 C.2    32  ALA32       0.2260
     27  O        -44.6100  128.1190   -6.0600 O.2    32  ALA32      -0.2867
     28  CB       -42.6500  128.2410   -3.7300 C.3    32  ALA32       0.0290
     29  N        -34.0850  131.9510   -7.1900 N.3    56  VAL56      -0.1245
     30  CA       -35.1090  130.9210   -7.0650 C.3    56  VAL56       0.1561
     31  C        -35.7940  130.7610   -8.4130 C.2    56  VAL56       0.2260
     32  O        -36.2220  131.7450   -9.0290 O.2    56  VAL56      -0.2867
     33  CB       -36.1130  131.2890   -5.9620 C.3    56  VAL56       0.0252
     34  CG1      -37.2480  130.2780   -5.9110 C.3    56  VAL56       0.0019
     35  CG2      -35.4150  131.3770   -4.6150 C.3    56  VAL56       0.0019
     36  N        -43.1960  128.2000   -8.1510 N.3    74  MET74      -0.1230
     37  CA       -41.8070  128.5590   -7.9530 C.3    74  MET74       0.1702
     38  C        -41.0570  127.4450   -7.2450 C.2    74  MET74       0.2592
     39  O        -41.6540  126.5440   -6.6560 O.2    74  MET74      -0.2718
     40  CB       -41.7160  129.8190   -7.1070 C.3    74  MET74       0.0401
     41  CG       -42.4890  130.9820   -7.6450 C.3    74  MET74       0.0596
     42  SD       -41.4930  132.4970   -7.7210 S.3    74  MET74      -0.1393
     43  CE       -41.4910  133.0390   -5.9840 C.3    74  MET74       0.0692
     44  N        -39.7300  127.5080   -7.3310 N.am   75  GLU75      -0.1966
     45  CA       -38.8780  126.5250   -6.6700 C.3    75  GLU75       0.1733
     46  C        -39.0740  126.5860   -5.1540 C.2    75  GLU75       0.2616
     47  O        -38.9420  127.6480   -4.5410 O.2    75  GLU75      -0.2715
     48  CB       -37.4210  126.7660   -7.0790 C.3    75  GLU75       0.0429
     49  CG       -36.3450  125.9960   -6.3380 C.3    75  GLU75       0.1163
     50  CD       -34.9610  126.4730   -6.7420 C.2    75  GLU75       0.3649
     51  OE1      -34.8470  127.6230   -7.2220 O.co2  75  GLU75      -0.2457
     52  OE2      -33.9970  125.6880   -6.6240 O.co2  75  GLU75      -0.2457
     53  N        -39.3840  125.4380   -4.5500 N.am   76  PHE76      -0.1960
     54  CA       -39.5480  125.3400   -3.1000 C.3    76  PHE76       0.1771
     55  C        -38.2130  125.1860   -2.3740 C.2    76  PHE76       0.2620
     56  O        -37.3650  124.3790   -2.7680 O.2    76  PHE76      -0.2715
     57  CB       -40.4700  124.1700   -2.7540 C.3    76  PHE76       0.0574
     58  CG       -40.5560  123.8780   -1.2820 C.ar   76  PHE76      -0.0200
     59  CD1      -41.0350  124.8370   -0.4030 C.ar   76  PHE76      -0.0042
     60  CD2      -40.1660  122.6500   -0.7790 C.ar   76  PHE76      -0.0042
     61  CE1      -41.1240  124.5750    0.9490 C.ar   76  PHE76      -0.0003
     62  CE2      -40.2500  122.3820    0.5710 C.ar   76  PHE76      -0.0003
     63  CZ       -40.7300  123.3460    1.4370 C.ar   76  PHE76      -0.0000
     64  N        -38.0310  125.9750   -1.3120 N.am   77  CYS77      -0.1954
     65  CA       -36.8170  125.9610   -0.4990 C.3    77  CYS77       0.1828
     66  C        -37.1370  125.4000    0.8840 C.2    77  CYS77       0.2467
     67  O        -37.6540  126.1290    1.7460 O.2    77  CYS77      -0.2730
     68  CB       -36.2280  127.3690   -0.3810 C.3    77  CYS77       0.0996
     69  SG       -35.8680  128.1640   -1.9630 S.3    77  CYS77      -0.0797
     70  N        -36.8650  124.1160    1.1350 N.am   78  PRO78      -0.2715
     71  CA       -37.3030  123.4840    2.3940 C.3    78  PRO78       0.1536
     72  C        -36.8260  124.1720    3.6660 C.2    78  PRO78       0.2599
     73  O        -37.5230  124.1050    4.6860 O.2    78  PRO78      -0.2715
     74  CB       -36.7280  122.0660    2.2810 C.3    78  PRO78       0.0310
     75  CG       -36.6040  121.8240    0.8140 C.3    78  PRO78       0.0237
     76  CD       -36.2330  123.1520    0.2190 C.3    78  PRO78       0.0939
     77  N        -35.6620  124.8230    3.6460 N.am   79  CYS79      -0.1954
     78  CA       -35.1040  125.4020    4.8670 C.3    79  CYS79       0.1843
     79  C        -35.7280  126.7430    5.2380 C.2    79  CYS79       0.2626
     80  O        -35.7720  127.0870    6.4250 O.2    79  CYS79      -0.2714
     81  CB       -33.5910  125.5530    4.7290 C.3    79  CYS79       0.0997
     82  SG       -32.7300  123.9830    4.5430 S.3    79  CYS79      -0.0797
     83  N        -36.2070  127.5070    4.2610 N.am   80  GLY80      -0.1940
     84  CA       -36.7690  128.8180    4.5280 C.3    80  GLY80       0.2014
     85  C        -35.8620  129.9590    4.1160 C.2    80  GLY80       0.2639
     86  O        -35.2150  129.8800    3.0680 O.2    80  GLY80      -0.2714
     87  N        -35.7910  131.0250    4.9120 N.am   81  SER81      -0.1949
     88  CA       -35.0370  132.2000    4.5060 C.3    81  SER81       0.1924
     89  C        -33.9570  132.5470    5.5210 C.2    81  SER81       0.2314
     90  O        -33.8520  131.9490    6.5950 O.2    81  SER81      -0.2863
     91  CB       -35.9730  133.4020    4.3220 C.3    81  SER81       0.2116
     92  OG       -36.4730  133.8490    5.5710 O.3    81  SER81      -0.2180
     93  N        -35.3360  133.2880    8.9020 N.3    84  THR84      -0.1218
     94  CA       -35.4710  132.0510    9.6640 C.3    84  THR84       0.1862
     95  C        -34.1480  131.6770   10.3240 C.2    84  THR84       0.2287
     96  O        -34.0730  131.4710   11.5400 O.2    84  THR84      -0.2866
     97  CB       -35.9710  130.9240    8.7600 C.3    84  THR84       0.1770
     98  OG1      -37.2070  131.3160    8.1480 O.3    84  THR84      -0.2211
     99  CG2      -36.1900  129.6550    9.5670 C.3    84  THR84       0.0375
    100  N        -33.7200  133.4860    0.3880 N.3   130  MET130     -0.1245
    101  CA       -34.1310  132.1140    0.6620 C.3   130  MET130      0.1570
    102  C        -32.9120  131.1940    0.7200 C.2   130  MET130      0.2261
    103  O        -31.9140  131.4120    0.0270 O.2   130  MET130     -0.2867
    104  CB       -35.1320  131.6220   -0.3840 C.3   130  MET130      0.0387
    105  CG       -36.3130  132.5630   -0.5730 C.3   130  MET130      0.0595
    106  SD       -37.0140  133.0220    1.0260 S.3   130  MET130     -0.1393
    107  CE       -38.4500  133.9750    0.5440 C.3   130  MET130      0.0692
    108  N        -35.1830  135.9810   -4.5470 N.3   144  THR144     -0.1203
    109  CA       -36.5220  135.9010   -5.1160 C.3   144  THR144      0.1994
    110  C        -37.3250  137.1390   -4.7360 C.2   144  THR144      0.2617
    111  O        -36.8870  137.9690   -3.9350 O.2   144  THR144     -0.2717
    112  CB       -37.2510  134.6330   -4.6530 C.3   144  THR144      0.1784
    113  OG1      -38.3870  134.3940   -5.4940 O.3   144  THR144     -0.2211
    114  CG2      -37.7150  134.7810   -3.2110 C.3   144  THR144      0.0376
    115  N        -38.5130  137.2560   -5.3410 N.am  145  ASP145     -0.1973
    116  CA       -39.4730  138.3210   -5.0260 C.3   145  ASP145      0.1709
    117  C        -38.9460  139.7340   -5.2960 C.2   145  ASP145      0.2293
    118  O        -38.9250  140.5900   -4.4100 O.2   145  ASP145     -0.2864
    119  CB       -39.9620  138.1770   -3.5780 C.3   145  ASP145      0.1436
    120  CG       -41.0670  139.1560   -3.2300 C.2   145  ASP145      0.3671
    121  OD1      -41.8820  139.4710   -4.1210 O.co2 145  ASP145     -0.2456
    122  OD2      -41.1250  139.6040   -2.0660 O.co2 145  ASP145     -0.2456
@<TRIPOS>BOND
     1    32    31    2
     2    31    30    1
     3    36    37    1
     4    37    38    1
     5    37    40    1
     6    42    41    1
     7    42    43    1
     8    41    40    1
     9    44    38   am
    10    44    45    1
    11    38    39    2
    12    51    50   ar
    13    29    30    1
    14    48    45    1
    15    48    49    1
    16    30    33    1
    17    50    52   ar
    18    50    49    1
    19    45    46    1
    20    27    26    2
    21    33    34    1
    22    33    35    1
    23   113   112    1
    24   115   116    1
    25   115   110   am
    26   117   116    1
    27   117   118    2
    28    46    53   am
    29    46    47    2
    30   109   110    1
    31   109   112    1
    32   109   108    1
    33   116   119    1
    34    26    25    1
    35   110   111    2
    36    24    25    1
    37   112   114    1
    38    53    54    1
    39   121   120   ar
    40    25    28    1
    41   119   120    1
    42   120   122   ar
    43    54    57    1
    44    54    55    1
    45    56    55    2
    46    57    58    1
    47    55    64   am
    48    69    68    1
    49    64    65    1
    50    23    21    1
    51    58    60   ar
    52    58    59   ar
    53    60    62   ar
    54    22    21    1
    55   105   104    1
    56   105   106    1
    57    18    21    1
    58    18    17    1
    59    18    19    1
    60    65    68    1
    61    65    66    1
    62    59    61   ar
    63   104   101    1
    64   103   102    2
    65    19    20    2
    66    76    75    1
    67    76    70    1
    68   100   101    1
    69   107   106    1
    70    62    63   ar
    71   101   102    1
    72    75    74    1
    73    66    70   am
    74    66    67    2
    75    61    63   ar
    76    70    71    1
    77    15    14    1
    78    74    71    1
    79    71    72    1
    80    14    13    1
    81    14    16    1
    82    13    10    1
    83    86    85    2
    84     9    10    1
    85     9     3   am
    86    77    72   am
    87    77    78    1
    88    72    73    2
    89    12    11    2
    90     6     8    1
    91     6     5    1
    92    10    11    1
    93     2     5    1
    94     2     3    1
    95     2     1    1
    96    85    84    1
    97    85    87   am
    98    83    84    1
    99    83    79   am
   100    91    88    1
   101    91    92    1
   102     5     7    1
   103     3     4    2
   104    88    87    1
   105    88    89    1
   106    82    81    1
   107    81    78    1
   108    78    79    1
   109    79    80    2
   110    89    90    2
   111    98    97    1
   112    97    99    1
   113    97    94    1
   114    93    94    1
   115    94    95    1
   116    95    96    2
