@<TRIPOS>MOLECULE
tmp/5w5zA00.pdb
 70 67 0 0 0
SMALL
GASTEIGER

@<TRIPOS>ATOM
      1  N        -23.3380  -38.8940  -26.0590 N.3    28  ASN28      -0.1240
      2  CA       -24.3350  -38.7180  -27.1070 C.3    28  ASN28       0.1653
      3  C        -25.6830  -38.3380  -26.5100 C.2    28  ASN28       0.2266
      4  O        -26.2050  -39.0310  -25.6330 O.2    28  ASN28      -0.2867
      5  CB       -24.4580  -40.0040  -27.9240 C.3    28  ASN28       0.1155
      6  CG       -25.6870  -40.0260  -28.8190 C.2    28  ASN28       0.2627
      7  OD1      -25.8010  -39.2340  -29.7490 O.2    28  ASN28      -0.2716
      8  ND2      -26.5980  -40.9580  -28.5590 N.am   28  ASN28      -0.0877
      9  N        -28.2950  -37.5850  -28.7360 N.3    30  ASN30      -0.1225
     10  CA       -29.2210  -37.7720  -29.8650 C.3    30  ASN30       0.1785
     11  C        -29.5350  -36.3850  -30.4480 C.2    30  ASN30       0.2597
     12  O        -28.6350  -35.5390  -30.5680 O.2    30  ASN30      -0.2718
     13  CB       -30.4480  -38.5760  -29.4220 C.3    30  ASN30       0.1169
     14  CG       -30.1140  -40.0080  -29.0690 C.2    30  ASN30       0.2627
     15  OD1      -29.4290  -40.7020  -29.8240 O.2    30  ASN30      -0.2716
     16  ND2      -30.5950  -40.4620  -27.9070 N.am   30  ASN30      -0.0877
     17  N        -30.7830  -36.1250  -30.8300 N.am   31  LYS31      -0.1980
     18  CA       -31.1800  -34.8380  -31.3810 C.3    31  LYS31       0.1596
     19  C        -31.6310  -33.8580  -30.3070 C.2    31  LYS31       0.2287
     20  O        -32.0330  -32.7370  -30.6400 O.2    31  LYS31      -0.2864
     21  CB       -32.3180  -35.0340  -32.3870 C.3    31  LYS31       0.0298
     22  CG       -33.6620  -35.4150  -31.7160 C.3    31  LYS31       0.0038
     23  CD       -34.7810  -35.4320  -32.7490 C.3    31  LYS31       0.0206
     24  CE       -36.1060  -35.9630  -32.1980 C.3    31  LYS31       0.1093
     25  NZ       -37.1570  -35.9780  -33.2820 N.3    31  LYS31      -0.1314
     26  N        -34.5210  -29.3980  -30.6840 N.3    50  HIS50      -0.1226
     27  CA       -34.2730  -30.6970  -31.3270 C.3    50  HIS50       0.1752
     28  C        -33.2650  -30.5580  -32.4690 C.2    50  HIS50       0.2597
     29  O        -33.5010  -30.9780  -33.5980 O.2    50  HIS50      -0.2718
     30  CB       -35.5920  -31.3240  -31.8050 C.3    50  HIS50       0.0759
     31  CG       -36.5400  -31.6320  -30.6810 C.ar   50  HIS50       0.0818
     32  ND1      -37.8170  -32.1160  -30.8850 N.ar   50  HIS50      -0.2268
     33  CD2      -36.3960  -31.4990  -29.3370 C.ar   50  HIS50       0.1154
     34  CE1      -38.4110  -32.2860  -29.7140 C.ar   50  HIS50       0.1986
     35  NE2      -37.5660  -31.9330  -28.7580 N.ar   50  HIS50      -0.2212
     36  N        -32.1290  -29.9390  -32.1480 N.am   51  THR51      -0.1939
     37  CA       -30.9910  -29.7160  -33.0410 C.3    51  THR51       0.2028
     38  C        -31.2430  -28.6900  -34.1520 C.2    51  THR51       0.2642
     39  O        -30.3960  -27.8240  -34.3940 O.2    51  THR51      -0.2714
     40  CB       -30.5040  -31.0300  -33.6740 C.3    51  THR51       0.1808
     41  OG1      -30.2270  -31.9780  -32.6430 O.3    51  THR51      -0.2208
     42  CG2      -29.2120  -30.7680  -34.4340 C.3    51  THR51       0.0379
     43  N        -32.3590  -28.7800  -34.8780 N.am   52  ASN52      -0.1957
     44  CA       -32.4800  -27.8910  -36.0310 C.3    52  ASN52       0.1819
     45  C        -33.8890  -27.3810  -36.3110 C.2    52  ASN52       0.2622
     46  O        -34.1050  -26.8390  -37.4010 O.2    52  ASN52      -0.2715
     47  CB       -31.9700  -28.5930  -37.2940 C.3    52  ASN52       0.1195
     48  CG       -32.8380  -29.7620  -37.6930 C.2    52  ASN52       0.2630
     49  OD1      -33.6760  -30.2140  -36.9110 O.2    52  ASN52      -0.2716
     50  ND2      -32.6480  -30.2580  -38.9130 N.am   52  ASN52      -0.0877
     51  N        -34.8620  -27.5720  -35.4300 N.am   53  SER53      -0.1950
     52  CA       -36.2150  -27.0780  -35.7160 C.3    53  SER53       0.1924
     53  C        -36.3550  -25.6330  -35.2390 C.2    53  SER53       0.2314
     54  O        -35.8440  -25.2660  -34.1760 O.2    53  SER53      -0.2863
     55  CB       -37.2810  -27.9530  -35.0540 C.3    53  SER53       0.2116
     56  OG       -37.2910  -29.2590  -35.6280 O.3    53  SER53      -0.2180
     57  N        -26.0140  -30.7320  -36.0070 N.3    66  GLY66      -0.1210
     58  CA       -25.3700  -31.5090  -34.9670 C.3    66  GLY66       0.1956
     59  C        -25.2990  -32.9830  -35.2990 C.2    66  GLY66       0.2613
     60  O        -25.9900  -33.4730  -36.1940 O.2    66  GLY66      -0.2717
     61  N        -24.4500  -33.6840  -34.5460 N.am   67  SER67      -0.1938
     62  CA       -24.1990  -35.1100  -34.7470 C.3    67  SER67       0.2055
     63  C        -24.7760  -35.9950  -33.6520 C.2    67  SER67       0.2643
     64  O        -24.8840  -37.2100  -33.8480 O.2    67  SER67      -0.2714
     65  CB       -22.6900  -35.3740  -34.8070 C.3    67  SER67       0.2130
     66  OG       -22.1180  -35.0690  -33.5380 O.3    67  SER67      -0.2179
     67  N        -25.1340  -35.4130  -32.5080 N.am   68  GLY68      -0.1954
     68  CA       -25.4500  -36.1410  -31.2990 C.3    68  GLY68       0.1869
     69  C        -24.4500  -35.8880  -30.1910 C.2    68  GLY68       0.2309
     70  O        -24.8050  -35.9930  -29.0150 O.2    68  GLY68      -0.2863
@<TRIPOS>BOND
     1    50    48   am
     2    48    47    1
     3    48    49    2
     4    46    45    2
     5    47    44    1
     6    45    44    1
     7    45    51   am
     8    60    59    2
     9    44    43    1
    10    57    58    1
    11    52    51    1
    12    52    53    1
    13    52    55    1
    14    56    55    1
    15    59    58    1
    16    59    61   am
    17    53    54    2
    18    43    38   am
    19    65    62    1
    20    65    66    1
    21    62    61    1
    22    62    63    1
    23    42    40    1
    24    39    38    2
    25    38    37    1
    26    64    63    2
    27    40    37    1
    28    40    41    1
    29    63    67   am
    30    29    28    2
    31    25    24    1
    32    37    36    1
    33    23    24    1
    34    23    22    1
    35    67    68    1
    36    28    36   am
    37    28    27    1
    38    21    22    1
    39    21    18    1
    40    30    27    1
    41    30    31    1
    42    18    17    1
    43    18    19    1
    44    27    26    1
    45    68    69    1
    46    32    31   ar
    47    32    34   ar
    48    17    11   am
    49    31    33   ar
    50    20    19    2
    51    12    11    2
    52    11    10    1
    53    69    70    2
    54    10    13    1
    55    10     9    1
    56    15    14    2
    57     7     6    2
    58    34    35   ar
    59    13    14    1
    60    33    35   ar
    61    14    16   am
    62     6     8   am
    63     6     5    1
    64     5     2    1
    65     2     3    1
    66     2     1    1
    67     3     4    2
