@<TRIPOS>MOLECULE
tmp/5w6gA00.pdb
 80 77 0 0 0
SMALL
GASTEIGER

@<TRIPOS>ATOM
      1  N         49.2420   -8.7800  -44.3550 N.3    68  ASN68      -0.1226
      2  CA        48.3460   -8.0440  -45.2530 C.3    68  ASN68       0.1770
      3  C         47.9010   -6.8050  -44.4870 C.2    68  ASN68       0.2439
      4  O         47.5780   -6.9420  -43.3050 O.2    68  ASN68      -0.2733
      5  CB        47.1460   -8.9340  -45.6700 C.3    68  ASN68       0.1168
      6  CG        45.9860   -8.2340  -46.3580 C.2    68  ASN68       0.2627
      7  OD1       45.4780   -7.2040  -45.9030 O.2    68  ASN68      -0.2716
      8  ND2       45.5030   -8.8130  -47.4480 N.am   68  ASN68      -0.0877
      9  N         47.9090   -5.5940  -45.1130 N.am   69  PRO69      -0.2718
     10  CA        47.5980   -4.3670  -44.3440 C.3    69  PRO69       0.1535
     11  C         46.2370   -4.3330  -43.6290 C.2    69  PRO69       0.2598
     12  O         46.0670   -3.5110  -42.7420 O.2    69  PRO69      -0.2715
     13  CB        47.7460   -3.2310  -45.3660 C.3    69  PRO69       0.0310
     14  CG        47.9560   -3.8690  -46.6880 C.3    69  PRO69       0.0237
     15  CD        48.3340   -5.2830  -46.4970 C.3    69  PRO69       0.0939
     16  N         45.3030   -5.2300  -43.9820 N.am   70  GLU70      -0.1978
     17  CA        43.9820   -5.3180  -43.3550 C.3    70  GLU70       0.1602
     18  C         43.9800   -6.2970  -42.1670 C.2    70  GLU70       0.2287
     19  O         42.9750   -6.4250  -41.4580 O.2    70  GLU70      -0.2864
     20  CB        42.9120   -5.6930  -44.3900 C.3    70  GLU70       0.0415
     21  CG        42.6960   -4.6420  -45.4680 C.3    70  GLU70       0.1163
     22  CD        42.0920   -3.3310  -45.0010 C.2    70  GLU70       0.3649
     23  OE1       40.8460   -3.2430  -44.9130 O.co2  70  GLU70      -0.2457
     24  OE2       42.8690   -2.3910  -44.7210 O.co2  70  GLU70      -0.2457
     25  N         38.2630  -12.8570  -46.6640 N.3    90  GLU90      -0.1231
     26  CA        38.3280  -11.8700  -47.7350 C.3    90  GLU90       0.1699
     27  C         39.6770  -11.1640  -47.8120 C.2    90  GLU90       0.2592
     28  O         39.9040  -10.4470  -48.7880 O.2    90  GLU90      -0.2718
     29  CB        37.1470  -10.8720  -47.6480 C.3    90  GLU90       0.0402
     30  CG        36.9620  -10.1910  -46.2950 C.3    90  GLU90       0.1161
     31  CD        35.7010  -10.5710  -45.5400 C.2    90  GLU90       0.3649
     32  OE1       35.4950  -11.7850  -45.3090 O.co2  90  GLU90      -0.2457
     33  OE2       34.9450   -9.6550  -45.1380 O.co2  90  GLU90      -0.2457
     34  N         40.5830  -11.3930  -46.8210 N.am   91  ASN91      -0.1960
     35  CA        41.9230  -10.7850  -46.7930 C.3    91  ASN91       0.1819
     36  C         43.0820  -11.8260  -46.7610 C.2    91  ASN91       0.2621
     37  O         43.3580  -12.4600  -45.7360 O.2    91  ASN91      -0.2715
     38  CB        42.0350   -9.7540  -45.6570 C.3    91  ASN91       0.1195
     39  CG        41.1800   -8.5280  -45.8800 C.2    91  ASN91       0.2630
     40  OD1       40.5580   -8.0090  -44.9470 O.2    91  ASN91      -0.2716
     41  ND2       41.1400   -8.0620  -47.1290 N.am   91  ASN91      -0.0877
     42  N         43.7440  -11.9820  -47.9070 N.am   92  GLY92      -0.1954
     43  CA        44.8320  -12.9350  -48.0810 C.3    92  GLY92       0.1869
     44  C         46.0300  -12.3390  -48.7620 C.2    92  GLY92       0.2309
     45  O         46.6980  -11.4800  -48.1860 O.2    92  GLY92      -0.2863
     46  N         46.9920   -9.9320  -51.0170 N.3    94  CYS94      -0.1235
     47  CA        46.4880   -8.7440  -51.6630 C.3    94  CYS94       0.1677
     48  C         47.1850   -8.4860  -53.0050 C.2    94  CYS94       0.2270
     49  O         46.5290   -8.0720  -53.9660 O.2    94  CYS94      -0.2867
     50  CB        46.5030   -7.5310  -50.7330 C.3    94  CYS94       0.0956
     51  SG        48.0840   -7.1750  -49.9130 S.3    94  CYS94      -0.0801
     52  N         46.6500   -2.6760  -54.8900 N.3   138  SER138     -0.1202
     53  CA        46.0210   -3.9620  -54.5900 C.3   138  SER138      0.2020
     54  C         46.1960   -4.3130  -53.1280 C.2   138  SER138      0.2619
     55  O         45.4750   -5.1710  -52.6100 O.2   138  SER138     -0.2717
     56  CB        46.6170   -5.0660  -55.4600 C.3   138  SER138      0.2103
     57  OG        46.9070   -4.6120  -56.7710 O.3   138  SER138     -0.2182
     58  N         47.1670   -3.6540  -52.4690 N.am  139  CYS139     -0.1955
     59  CA        47.4920   -3.8330  -51.0620 C.3   139  CYS139      0.1843
     60  C         47.1970   -2.5440  -50.3120 C.2   139  CYS139      0.2626
     61  O         48.0110   -2.0770  -49.5340 O.2   139  CYS139     -0.2714
     62  CB        48.9510   -4.2640  -50.9120 C.3   139  CYS139      0.0997
     63  SG        49.2390   -6.0220  -51.2460 S.3   139  CYS139     -0.0797
     64  N         46.0340   -1.9630  -50.5450 N.am  140  SER140     -0.1950
     65  CA        45.6480   -0.6990  -49.9160 C.3   140  SER140      0.1924
     66  C         45.2040   -0.7860  -48.4740 C.2   140  SER140      0.2314
     67  O         44.4960   -1.7200  -48.0810 O.2   140  SER140     -0.2863
     68  CB        44.5660   -0.0070  -50.7290 C.3   140  SER140      0.2116
     69  OG        45.0830    0.2900  -52.0130 O.3   140  SER140     -0.2180
     70  N         43.2720   -8.7000  -59.0180 N.3   224  ARG224     -0.1245
     71  CA        43.3200   -7.5210  -58.1330 C.3   224  ARG224      0.1563
     72  C         43.9590   -6.3000  -58.8530 C.2   224  ARG224      0.2260
     73  O         44.6530   -5.4910  -58.2200 O.2   224  ARG224     -0.2867
     74  CB        44.0110   -7.8330  -56.8010 C.3   224  ARG224      0.0307
     75  CG        43.1040   -8.5730  -55.8570 C.3   224  ARG224      0.0489
     76  CD        43.6690   -8.7860  -54.4830 C.3   224  ARG224      0.2205
     77  NE        43.7080   -7.5630  -53.6710 N.pl3 224  ARG224     -0.0865
     78  CZ        42.6610   -7.0390  -53.0350 C.cat 224  ARG224      0.5346
     79  NH1       41.4550   -7.5770  -53.1770 N.pl3 224  ARG224      0.1354
     80  NH2       42.8050   -5.9600  -52.2810 N.pl3 224  ARG224      0.1354
@<TRIPOS>BOND
     1    70    71    1
     2    72    73    2
     3    72    71    1
     4    71    74    1
     5    74    75    1
     6    57    56    1
     7    75    76    1
     8    56    53    1
     9    52    53    1
    10    53    54    1
    11    76    77    1
    12    49    48    2
    13    77    78    2
    14    79    78    1
    15    54    55    2
    16    54    58   am
    17    78    80    1
    18    48    47    1
    19    58    59    1
    20    69    68    1
    21    47    46    1
    22    47    50    1
    23    63    62    1
    24    63    51    1
    25    59    62    1
    26    59    60    1
    27    50    51    1
    28    68    65    1
    29    64    60   am
    30    64    65    1
    31    60    61    2
    32    65    66    1
    33    28    27    2
    34    44    45    2
    35    44    43    1
    36    66    67    2
    37    43    42    1
    38    42    36   am
    39    27    26    1
    40    27    34   am
    41    26    29    1
    42    26    25    1
    43    29    30    1
    44     8     6   am
    45    41    39   am
    46    34    35    1
    47    35    36    1
    48    35    38    1
    49    36    37    2
    50    14    15    1
    51    14    13    1
    52    15     9    1
    53     6     7    2
    54     6     5    1
    55    30    31    1
    56    39    38    1
    57    39    40    2
    58     5     2    1
    59    31    32   ar
    60    31    33   ar
    61    21    22    1
    62    21    20    1
    63    13    10    1
    64     2     3    1
    65     2     1    1
    66     9     3   am
    67     9    10    1
    68    22    23   ar
    69    22    24   ar
    70     3     4    2
    71    20    17    1
    72    10    11    1
    73    16    11   am
    74    16    17    1
    75    11    12    2
    76    17    18    1
    77    18    19    2
