@<TRIPOS>MOLECULE
tmp/5w6kA00.pdb
 178 172 0 0 0
SMALL
GASTEIGER

@<TRIPOS>ATOM
      1  N         24.1790  -30.2090  -11.1090 N.3   278  ARG278     -0.1245
      2  CA        24.8560  -28.9870  -11.5000 C.3   278  ARG278      0.1563
      3  C         26.3350  -29.2610  -11.7500 C.2   278  ARG278      0.2260
      4  O         26.9060  -30.2420  -11.2660 O.2   278  ARG278     -0.2867
      5  CB        24.7240  -27.9200  -10.4160 C.3   278  ARG278      0.0307
      6  CG        23.5120  -27.0280  -10.5330 C.3   278  ARG278      0.0489
      7  CD        23.6450  -25.8540   -9.5860 C.3   278  ARG278      0.2205
      8  NE        22.5410  -24.9070   -9.6940 N.pl3 278  ARG278     -0.0865
      9  CZ        22.4900  -23.7470   -9.0460 C.cat 278  ARG278      0.5346
     10  NH1       23.4860  -23.3910   -8.2450 N.pl3 278  ARG278      0.1354
     11  NH2       21.4470  -22.9410   -9.2010 N.pl3 278  ARG278      0.1354
     12  N         21.5780  -15.8140  -20.2650 N.3   315  ASP315     -0.1225
     13  CA        21.0950  -16.2350  -18.9540 C.3   315  ASP315      0.1805
     14  C         19.6040  -16.5220  -19.0440 C.2   315  ASP315      0.2598
     15  O         18.8270  -15.6480  -19.4390 O.2   315  ASP315     -0.2718
     16  CB        21.3800  -15.1520  -17.9060 C.3   315  ASP315      0.1424
     17  CG        21.0910  -15.6070  -16.4890 C.2   315  ASP315      0.3668
     18  OD1       19.9740  -16.1020  -16.2320 O.co2 315  ASP315     -0.2456
     19  OD2       21.9860  -15.4680  -15.6280 O.co2 315  ASP315     -0.2456
     20  N         19.2070  -17.7430  -18.6840 N.am  316  TYR316     -0.1962
     21  CA        17.7910  -18.0860  -18.6390 C.3   316  TYR316      0.1771
     22  C         17.0730  -17.2280  -17.6050 C.2   316  TYR316      0.2620
     23  O         17.6120  -16.9390  -16.5340 O.2   316  TYR316     -0.2715
     24  CB        17.6050  -19.5650  -18.2960 C.3   316  TYR316      0.0574
     25  CG        17.9880  -20.5320  -19.3950 C.ar  316  TYR316     -0.0198
     26  CD1       17.1170  -20.8080  -20.4420 C.ar  316  TYR316     -0.0009
     27  CD2       19.2120  -21.1880  -19.3720 C.ar  316  TYR316     -0.0009
     28  CE1       17.4620  -21.6980  -21.4410 C.ar  316  TYR316      0.0417
     29  CE2       19.5640  -22.0790  -20.3650 C.ar  316  TYR316      0.0417
     30  CZ        18.6860  -22.3320  -21.3950 C.ar  316  TYR316      0.1957
     31  OH        19.0360  -23.2220  -22.3840 O.3   316  TYR316     -0.2866
     32  N         15.8430  -16.8350  -17.9210 N.am  317  SER317     -0.1936
     33  CA        15.0450  -15.9880  -17.0430 C.3   317  SER317      0.2055
     34  C         14.1300  -16.8510  -16.1830 C.2   317  SER317      0.2643
     35  O         13.4190  -17.7180  -16.7030 O.2   317  SER317     -0.2714
     36  CB        14.2130  -14.9900  -17.8530 C.3   317  SER317      0.2130
     37  OG        12.9700  -15.5540  -18.2300 O.3   317  SER317     -0.2179
     38  N         14.1500  -16.6080  -14.8720 N.am  318  GLN318     -0.1963
     39  CA        13.2720  -17.3030  -13.9300 C.3   318  GLN318      0.1733
     40  C         13.2940  -18.8080  -14.1850 C.2   318  GLN318      0.2616
     41  O         12.2580  -19.4750  -14.2140 O.2   318  GLN318     -0.2715
     42  CB        11.8460  -16.7590  -14.0190 C.3   318  GLN318      0.0408
     43  CG        11.7570  -15.2420  -14.1150 C.3   318  GLN318      0.0908
     44  CD        10.3320  -14.7540  -14.2980 C.2   318  GLN318      0.2608
     45  OE1        9.5570  -14.6880  -13.3420 O.2   318  GLN318     -0.2717
     46  NE2        9.9770  -14.4140  -15.5320 N.am  318  GLN318     -0.0878
     47  N         14.5020  -19.3460  -14.3660 N.am  319  ILE319     -0.1963
     48  CA        14.6380  -20.6740  -14.9600 C.3   319  ILE319      0.1727
     49  C         13.9260  -21.7250  -14.1130 C.2   319  ILE319      0.2616
     50  O         13.1240  -22.5160  -14.6230 O.2   319  ILE319     -0.2715
     51  CB        16.1230  -21.0230  -15.1810 C.3   319  ILE319      0.0290
     52  CG1       16.2660  -22.4200  -15.7920 C.3   319  ILE319      0.0022
     53  CG2       16.9310  -20.9270  -13.8860 C.3   319  ILE319      0.0023
     54  CD1       15.5520  -22.5940  -17.1200 C.3   319  ILE319      0.0001
     55  N         14.2030  -21.7570  -12.8070 N.am  320  GLU320     -0.1977
     56  CA        13.6360  -22.8160  -11.9800 C.3   320  GLU320      0.1602
     57  C         12.1480  -22.6160  -11.7260 C.2   320  GLU320      0.2287
     58  O         11.4530  -23.5870  -11.4130 O.2   320  GLU320     -0.2864
     59  CB        14.3980  -22.9280  -10.6580 C.3   320  GLU320      0.0415
     60  CG        15.8060  -23.4990  -10.8320 C.3   320  GLU320      0.1163
     61  CD        16.3850  -24.0930   -9.5570 C.2   320  GLU320      0.3649
     62  OE1       15.6480  -24.2240   -8.5570 O.co2 320  GLU320     -0.2457
     63  OE2       17.5900  -24.4240   -9.5570 O.co2 320  GLU320     -0.2457
     64  N         10.1910  -12.2370   -9.9700 N.3   344  HIS344     -0.1241
     65  CA        11.2230  -11.5610   -9.1940 C.3   344  HIS344      0.1621
     66  C         10.9730  -10.0610   -9.1280 C.2   344  HIS344      0.2264
     67  O         11.2990   -9.4220   -8.1200 O.2   344  HIS344     -0.2867
     68  CB        12.5970  -11.8530   -9.7960 C.3   344  HIS344      0.0745
     69  CG        12.9150  -13.3120   -9.8870 C.ar  344  HIS344      0.0817
     70  ND1       12.3350  -14.2520   -9.0630 N.ar  344  HIS344     -0.2268
     71  CD2       13.7460  -13.9960  -10.7100 C.ar  344  HIS344      0.1154
     72  CE1       12.7970  -15.4510   -9.3700 C.ar  344  HIS344      0.1986
     73  NE2       13.6550  -15.3230  -10.3660 N.ar  344  HIS344     -0.2212
     74  N         15.6090   -6.6500   -6.8980 N.3   364  ARG364     -0.1231
     75  CA        15.0890   -7.8570   -7.5300 C.3   364  ARG364      0.1694
     76  C         15.9790   -9.0600   -7.2520 C.2   364  ARG364      0.2591
     77  O         15.4770  -10.1820   -7.1220 O.2   364  ARG364     -0.2718
     78  CB        14.9420   -7.6350   -9.0360 C.3   364  ARG364      0.0321
     79  CG        14.4080   -8.8350   -9.8060 C.3   364  ARG364      0.0489
     80  CD        14.1910   -8.4850  -11.2700 C.3   364  ARG364      0.2205
     81  NE        13.7720   -9.6370  -12.0660 N.pl3 364  ARG364     -0.0865
     82  CZ        14.6030  -10.5290  -12.6010 C.cat 364  ARG364      0.5346
     83  NH1       15.9140  -10.4150  -12.4280 N.pl3 364  ARG364      0.1354
     84  NH2       14.1210  -11.5410  -13.3090 N.pl3 364  ARG364      0.1354
     85  N         17.2920   -8.8470   -7.1660 N.am  365  ARG365     -0.1980
     86  CA        18.1820   -9.9090   -6.7150 C.3   365  ARG365      0.1597
     87  C         17.7990  -10.3760   -5.3170 C.2   365  ARG365      0.2287
     88  O         17.8770  -11.5710   -5.0080 O.2   365  ARG365     -0.2864
     89  CB        19.6290   -9.4170   -6.7490 C.3   365  ARG365      0.0334
     90  CG        20.6430  -10.3710   -6.1390 C.3   365  ARG365      0.0492
     91  CD        21.6550  -10.8430   -7.1630 C.3   365  ARG365      0.2205
     92  NE        22.5680  -11.8210   -6.5810 N.pl3 365  ARG365     -0.0865
     93  CZ        22.3260  -13.1270   -6.5100 C.cat 365  ARG365      0.5346
     94  NH1       21.1980  -13.6280   -6.9930 N.pl3 365  ARG365      0.1354
     95  NH2       23.2150  -13.9350   -5.9560 N.pl3 365  ARG365      0.1354
     96  N         14.8730  -12.8350   -5.4090 N.3   368  LYS368     -0.1231
     97  CA        15.2060  -14.2200   -5.7240 C.3   368  LYS368      0.1693
     98  C         15.3990  -15.0320   -4.4510 C.2   368  LYS368      0.2592
     99  O         14.8620  -16.1380   -4.3160 O.2   368  LYS368     -0.2718
    100  CB        16.4620  -14.2760   -6.5920 C.3   368  LYS368      0.0285
    101  CG        16.3190  -13.5940   -7.9420 C.3   368  LYS368      0.0035
    102  CD        17.5490  -13.8260   -8.8090 C.3   368  LYS368      0.0206
    103  CE        17.5530  -12.9200  -10.0270 C.3   368  LYS368      0.1093
    104  NZ        18.7250  -13.1800  -10.9100 N.3   368  LYS368     -0.1314
    105  N         16.1690  -14.4960   -3.5010 N.am  369  THR369     -0.1953
    106  CA        16.3240  -15.1610   -2.2130 C.3   369  THR369      0.1897
    107  C         14.9700  -15.4170   -1.5660 C.2   369  THR369      0.2313
    108  O         14.7340  -16.4930   -1.0060 O.2   369  THR369     -0.2863
    109  CB        17.2030  -14.3180   -1.2880 C.3   369  THR369      0.1794
    110  OG1       18.4310  -13.9970   -1.9530 O.3   369  THR369     -0.2208
    111  CG2       17.5140  -15.0730   -0.0020 C.3   369  THR369      0.0378
    112  N         12.7700  -17.9720   -4.1040 N.3   372  PHE372     -0.1241
    113  CA        13.3450  -19.3100   -4.0350 C.3   372  PHE372      0.1605
    114  C         13.4730  -19.7870   -2.5940 C.2   372  PHE372      0.2264
    115  O         13.3450  -20.9870   -2.3260 O.2   372  PHE372     -0.2867
    116  CB        14.7010  -19.3280   -4.7420 C.3   372  PHE372      0.0534
    117  CG        14.6060  -19.1480   -6.2330 C.ar  372  PHE372     -0.0203
    118  CD1       13.7470  -19.9340   -6.9840 C.ar  372  PHE372     -0.0042
    119  CD2       15.3600  -18.1840   -6.8800 C.ar  372  PHE372     -0.0042
    120  CE1       13.6510  -19.7710   -8.3500 C.ar  372  PHE372     -0.0003
    121  CE2       15.2660  -18.0160   -8.2500 C.ar  372  PHE372     -0.0003
    122  CZ        14.4100  -18.8110   -8.9840 C.ar  372  PHE372     -0.0000
    123  N         11.3660  -23.3200   -1.2680 N.3   376  TYR376     -0.1241
    124  CA        12.0110  -24.5490   -0.8100 C.3   376  TYR376      0.1605
    125  C         12.0020  -24.6890    0.7100 C.2   376  TYR376      0.2264
    126  O         12.9860  -25.1440    1.2990 O.2   376  TYR376     -0.2867
    127  CB        13.4370  -24.6170   -1.3470 C.3   376  TYR376      0.0534
    128  CG        13.5110  -24.6650   -2.8580 C.ar  376  TYR376     -0.0201
    129  CD1       13.0350  -25.7640   -3.5610 C.ar  376  TYR376     -0.0009
    130  CD2       14.0580  -23.6140   -3.5800 C.ar  376  TYR376     -0.0009
    131  CE1       13.0990  -25.8130   -4.9410 C.ar  376  TYR376      0.0417
    132  CE2       14.1300  -23.6550   -4.9610 C.ar  376  TYR376      0.0417
    133  CZ        13.6480  -24.7570   -5.6360 C.ar  376  TYR376      0.1957
    134  OH        13.7140  -24.8050   -7.0090 O.3   376  TYR376     -0.2866
    135  N         13.7970  -30.1220   -3.9900 N.3   441  ASN441     -0.1240
    136  CA        14.5700  -29.1240   -4.7210 C.3   441  ASN441      0.1653
    137  C         15.3390  -29.7440   -5.8810 C.2   441  ASN441      0.2266
    138  O         15.4920  -29.1070   -6.9290 O.2   441  ASN441     -0.2867
    139  CB        15.5430  -28.4130   -3.7790 C.3   441  ASN441      0.1155
    140  CG        16.6400  -27.6720   -4.5240 C.2   441  ASN441      0.2627
    141  OD1       17.6850  -28.2410   -4.8420 O.2   441  ASN441     -0.2716
    142  ND2       16.4060  -26.3960   -4.8050 N.am  441  ASN441     -0.0877
    143  N         16.0970  -28.0300   -9.5720 N.3   445  GLN445     -0.1245
    144  CA        17.4390  -27.5500   -9.8790 C.3   445  GLN445      0.1566
    145  C         18.1610  -28.4820  -10.8430 C.2   445  GLN445      0.2260
    146  O         18.9760  -28.0240  -11.6520 O.2   445  GLN445     -0.2867
    147  CB        18.2380  -27.3970   -8.5840 C.3   445  GLN445      0.0367
    148  CG        19.6870  -26.9640   -8.7740 C.3   445  GLN445      0.0905
    149  CD        20.4260  -26.8240   -7.4590 C.2   445  GLN445      0.2608
    150  OE1       21.5110  -27.3790   -7.2800 O.2   445  GLN445     -0.2717
    151  NE2       19.8440  -26.0750   -6.5290 N.am  445  GLN445     -0.0878
    152  N         25.8430  -22.0490  -14.1260 N.3   475  HIS475     -0.1226
    153  CA        24.6180  -22.7230  -13.7110 C.3   475  HIS475      0.1752
    154  C         23.4990  -22.5640  -14.7340 C.2   475  HIS475      0.2596
    155  O         23.1150  -23.5430  -15.3810 O.2   475  HIS475     -0.2718
    156  CB        24.1970  -22.2180  -12.3310 C.3   475  HIS475      0.0759
    157  CG        25.2640  -22.3820  -11.2960 C.ar  475  HIS475      0.0818
    158  ND1       25.9140  -23.5790  -11.0880 N.ar  475  HIS475     -0.2268
    159  CD2       25.8140  -21.5000  -10.4290 C.ar  475  HIS475      0.1154
    160  CE1       26.8090  -23.4320  -10.1280 C.ar  475  HIS475      0.1986
    161  NE2       26.7680  -22.1800   -9.7100 N.ar  475  HIS475     -0.2212
    162  N         22.9610  -21.3530  -14.8940 N.am  476  ASP476     -0.1974
    163  CA        21.9460  -21.0920  -15.9110 C.3   476  ASP476      0.1709
    164  C         22.3980  -20.0190  -16.8940 C.2   476  ASP476      0.2293
    165  O         21.5670  -19.4160  -17.5810 O.2   476  ASP476     -0.2864
    166  CB        20.6190  -20.6910  -15.2650 C.3   476  ASP476      0.1436
    167  CG        20.5570  -19.2180  -14.9300 C.2   476  ASP476      0.3671
    168  OD1       21.5980  -18.6470  -14.5430 O.co2 476  ASP476     -0.2456
    169  OD2       19.4660  -18.6290  -15.0620 O.co2 476  ASP476     -0.2456
    170  N         17.8580  -13.7910  -21.4950 N.3   511  GLU511     -0.1245
    171  CA        18.4120  -12.4500  -21.6060 C.3   511  GLU511      0.1567
    172  C         19.8460  -12.5460  -22.1060 C.2   511  GLU511      0.2260
    173  O         20.6410  -13.3370  -21.5890 O.2   511  GLU511     -0.2867
    174  CB        18.3670  -11.7340  -20.2580 C.3   511  GLU511      0.0388
    175  CG        16.9670  -11.5720  -19.6840 C.3   511  GLU511      0.1160
    176  CD        16.0640  -10.7360  -20.5690 C.2   511  GLU511      0.3649
    177  OE1       16.5870   -9.8830  -21.3170 O.co2 511  GLU511     -0.2457
    178  OE2       14.8320  -10.9360  -20.5210 O.co2 511  GLU511     -0.2457
@<TRIPOS>BOND
     1    31    30    1
     2   172   171    1
     3   172   173    2
     4   171   170    1
     5   171   174    1
     6    28    30   ar
     7    28    26   ar
     8    30    29   ar
     9   177   176   ar
    10   176   178   ar
    11   176   175    1
    12    26    25   ar
    13    29    27   ar
    14    12    13    1
    15   174   175    1
    16    15    14    2
    17    25    27   ar
    18    25    24    1
    19    14    13    1
    20    14    20   am
    21    13    16    1
    22    20    21    1
    23    21    24    1
    24    21    22    1
    25    37    36    1
    26    32    22   am
    27    32    33    1
    28    16    17    1
    29    36    33    1
    30    22    23    2
    31   165   164    2
    32    54    52    1
    33    33    34    1
    34   164   163    1
    35    35    34    2
    36    17    18   ar
    37    17    19   ar
    38    34    38   am
    39   163   166    1
    40   163   162    1
    41    52    51    1
    42    46    44   am
    43   155   154    2
    44   166   167    1
    45    51    48    1
    46    51    53    1
    47   169   167   ar
    48    48    47    1
    49    48    49    1
    50   167   168   ar
    51   162   154   am
    52    38    39    1
    53   154   153    1
    54    50    49    2
    55    47    40   am
    56    44    43    1
    57    44    45    2
    58    41    40    2
    59    40    39    1
    60   152   153    1
    61    43    42    1
    62    49    55   am
    63    42    39    1
    64   153   156    1
    65    84    82    1
    66    55    56    1
    67    82    83    1
    68    82    81    2
    69   156   157    1
    70    81    80    1
    71    56    57    1
    72    56    59    1
    73     3     2    1
    74     3     4    2
    75    57    58    2
    76   146   145    2
    77     2     1    1
    78     2     5    1
    79   157   158   ar
    80   157   159   ar
    81    80    79    1
    82   158   160   ar
    83   104   103    1
    84   145   144    1
    85    60    59    1
    86    60    61    1
    87    71    73   ar
    88    71    69   ar
    89     6     5    1
    90     6     7    1
    91   159   161   ar
    92    73    72   ar
    93   160   161   ar
    94   103   102    1
    95    64    65    1
    96    69    68    1
    97    69    70   ar
    98   144   143    1
    99   144   147    1
   100    79    78    1
   101    68    65    1
   102     8     7    1
   103     8     9    2
   104    63    61   ar
   105    61    62   ar
   106    72    70   ar
   107    11     9    1
   108    65    66    1
   109    66    67    2
   110     9    10    1
   111    78    75    1
   112   122   120   ar
   113   122   121   ar
   114   102   101    1
   115   148   147    1
   116   148   149    1
   117   120   118   ar
   118   121   119   ar
   119   101   100    1
   120    75    76    1
   121    75    74    1
   122   149   150    2
   123   149   151   am
   124    76    85   am
   125    76    77    2
   126    85    86    1
   127    91    92    1
   128    91    90    1
   129   134   133    1
   130    94    93    1
   131   118   117   ar
   132   138   137    2
   133   119   117   ar
   134    89    86    1
   135    89    90    1
   136    86    87    1
   137   100    97    1
   138    92    93    2
   139    93    95    1
   140   117   116    1
   141   137   136    1
   142    97    96    1
   143    97    98    1
   144   133   132   ar
   145   133   131   ar
   146    87    88    2
   147   132   130   ar
   148   131   129   ar
   149   141   140    2
   150   142   140   am
   151   116   113    1
   152   136   135    1
   153   136   139    1
   154   140   139    1
   155    98    99    2
   156    98   105   am
   157   112   113    1
   158   113   114    1
   159   130   128   ar
   160   129   128   ar
   161   105   106    1
   162   128   127    1
   163   114   115    2
   164   106   107    1
   165   106   109    1
   166   110   109    1
   167   107   108    2
   168   127   124    1
   169   109   111    1
   170   123   124    1
   171   124   125    1
   172   125   126    2
