@<TRIPOS>MOLECULE
tmp/5w6oB01.pdb
 121 119 0 0 0
SMALL
GASTEIGER

@<TRIPOS>ATOM
      1  N         10.5600    5.8260    1.8360 N.3   202  ASP202     -0.1239
      2  CA        11.0490    7.0830    2.4330 C.3   202  ASP202      0.1674
      3  C         12.5620    7.0730    2.5320 C.2   202  ASP202      0.2266
      4  O         13.1370    7.5150    3.5220 O.2   202  ASP202     -0.2867
      5  CB        10.4170    7.2820    3.8260 C.3   202  ASP202      0.1410
      6  CG        10.6270    8.7150    4.3950 C.2   202  ASP202      0.3668
      7  OD1       11.0200    9.6730    3.6700 O.co2 202  ASP202     -0.2456
      8  OD2       10.3920    8.8800    5.6120 O.co2 202  ASP202     -0.2456
      9  N         15.4050    8.4710    2.3330 N.3   204  GLN204     -0.1245
     10  CA        16.1150    9.7380    2.3840 C.3   204  GLN204      0.1566
     11  C         17.3460    9.6600    3.3080 C.2   204  GLN204      0.2260
     12  O         17.4510    8.7800    4.1480 O.2   204  GLN204     -0.2867
     13  CB        15.1720   10.8440    2.8480 C.3   204  GLN204      0.0367
     14  CG        14.5880   10.6710    4.2410 C.3   204  GLN204      0.0905
     15  CD        14.4300   12.0030    4.9740 C.2   204  GLN204      0.2608
     16  OE1       15.4370   12.6800    5.2970 O.2   204  GLN204     -0.2717
     17  NE2       13.1720   12.3970    5.2290 N.am  204  GLN204     -0.0878
     18  N          6.9080    3.7590    7.1170 N.3   229  TYR229     -0.1241
     19  CA         6.1260    3.9490    5.8900 C.3   229  TYR229      0.1605
     20  C          6.2290    2.7710    4.8790 C.2   229  TYR229      0.2264
     21  O          5.6570    2.8370    3.7870 O.2   229  TYR229     -0.2867
     22  CB         6.4840    5.2790    5.2170 C.3   229  TYR229      0.0534
     23  CG         6.1720    6.5500    5.9930 C.ar  229  TYR229     -0.0201
     24  CD1        4.9700    6.7110    6.6830 C.ar  229  TYR229     -0.0009
     25  CD2        7.0590    7.6240    5.9820 C.ar  229  TYR229     -0.0009
     26  CE1        4.6850    7.8860    7.3730 C.ar  229  TYR229      0.0417
     27  CE2        6.7780    8.8050    6.6600 C.ar  229  TYR229      0.0417
     28  CZ         5.5920    8.9330    7.3490 C.ar  229  TYR229      0.1957
     29  OH         5.3160   10.1100    8.0090 O.3   229  TYR229     -0.2866
     30  N         15.1110   12.8410   -3.4400 N.3   245  GLU245     -0.1245
     31  CA        15.7350   13.2920   -2.2010 C.3   245  GLU245      0.1567
     32  C         17.1160   13.8920   -2.3260 C.2   245  GLU245      0.2260
     33  O         17.5890   14.5270   -1.3800 O.2   245  GLU245     -0.2867
     34  CB        15.7590   12.1530   -1.1620 C.3   245  GLU245      0.0388
     35  CG        14.3980   11.8910   -0.5530 C.3   245  GLU245      0.1160
     36  CD        13.8860   13.0610    0.3050 C.2   245  GLU245      0.3649
     37  OE1       14.6750   13.9910    0.5910 O.co2 245  GLU245     -0.2457
     38  OE2       12.6850   13.0640    0.7050 O.co2 245  GLU245     -0.2457
     39  N         16.9790   18.9740    4.4980 N.3   250  TYR250     -0.1241
     40  CA        16.1110   19.3240    5.6270 C.3   250  TYR250      0.1605
     41  C         16.8660   19.9120    6.8420 C.2   250  TYR250      0.2264
     42  O         16.2490   20.2080    7.8780 O.2   250  TYR250     -0.2867
     43  CB        15.2750   18.0930    6.0360 C.3   250  TYR250      0.0534
     44  CG        14.5090   17.4940    4.8730 C.ar  250  TYR250     -0.0201
     45  CD1       13.4840   18.2000    4.2410 C.ar  250  TYR250     -0.0009
     46  CD2       14.8320   16.2460    4.3720 C.ar  250  TYR250     -0.0009
     47  CE1       12.8080   17.6680    3.1420 C.ar  250  TYR250      0.0417
     48  CE2       14.1320   15.6890    3.3060 C.ar  250  TYR250      0.0417
     49  CZ        13.1400   16.4170    2.6760 C.ar  250  TYR250      0.1957
     50  OH        12.4710   15.8840    1.5880 O.3   250  TYR250     -0.2866
     51  N          4.1560   13.5170   -1.7300 N.3   316  TRP316     -0.1241
     52  CA         4.7360   14.2860   -0.6370 C.3   316  TRP316      0.1605
     53  C          4.2430   15.7120   -0.6420 C.2   316  TRP316      0.2264
     54  O          4.1390   16.3290    0.4210 O.2   316  TRP316     -0.2867
     55  CB         6.2710   14.2250   -0.6520 C.3   316  TRP316      0.0550
     56  CG         6.7600   12.8660   -0.3150 C.ar  316  TRP316      0.0003
     57  CD1        7.3860   12.0050   -1.1350 C.ar  316  TRP316      0.0946
     58  CD2        6.6090   12.1940    0.9250 C.ar  316  TRP316      0.0152
     59  NE1        7.6690   10.8580   -0.4890 N.ar  316  TRP316     -0.2442
     60  CE2        7.1960   10.9340    0.7830 C.ar  316  TRP316      0.0810
     61  CE3        6.0420   12.5440    2.1560 C.ar  316  TRP316      0.0012
     62  CZ2        7.2640   10.0030    1.8290 C.ar  316  TRP316      0.0191
     63  CZ3        6.1080   11.6230    3.2070 C.ar  316  TRP316      0.0001
     64  CH2        6.7200   10.3620    3.0320 C.ar  316  TRP316      0.0015
     65  N          0.7360   15.3260    0.9890 N.3   319  TRP319     -0.1241
     66  CA         1.0840   15.0720    2.3960 C.3   319  TRP319      0.1605
     67  C          1.4250   16.3740    3.1280 C.2   319  TRP319      0.2264
     68  O          0.9020   16.6450    4.1890 O.2   319  TRP319     -0.2867
     69  CB         2.2760   14.1200    2.4660 C.3   319  TRP319      0.0550
     70  CG         2.7870   13.8550    3.8490 C.ar  319  TRP319      0.0003
     71  CD1        2.2790   12.9530    4.7510 C.ar  319  TRP319      0.0946
     72  CD2        3.8810   14.5150    4.5030 C.ar  319  TRP319      0.0152
     73  NE1        3.0080   13.0020    5.9160 N.ar  319  TRP319     -0.2442
     74  CE2        3.9980   13.9440    5.7940 C.ar  319  TRP319      0.0810
     75  CE3        4.7920   15.5360    4.1140 C.ar  319  TRP319      0.0012
     76  CZ2        4.9820   14.3620    6.7230 C.ar  319  TRP319      0.0191
     77  CZ3        5.7760   15.9710    5.0320 C.ar  319  TRP319      0.0001
     78  CH2        5.8630   15.3740    6.3340 C.ar  319  TRP319      0.0015
     79  N          4.7740   20.7370   14.3460 N.3   329  ILE329     -0.1245
     80  CA         6.2280   20.8060   14.1050 C.3   329  ILE329      0.1561
     81  C          6.5890   22.0640   13.2830 C.2   329  ILE329      0.2260
     82  O          5.8900   22.4290   12.3510 O.2   329  ILE329     -0.2867
     83  CB         6.7430   19.5240   13.3980 C.3   329  ILE329      0.0252
     84  CG1        6.5620   18.2920   14.2900 C.3   329  ILE329      0.0019
     85  CG2        8.2160   19.6650   13.0010 C.3   329  ILE329      0.0019
     86  CD1        6.5840   16.9620   13.5510 C.3   329  ILE329      0.0001
     87  N          8.0280   23.8220   10.5590 N.3   331  PHE331     -0.1241
     88  CA         8.4930   23.5400    9.1960 C.3   331  PHE331      0.1605
     89  C          7.6220   24.2850    8.2050 C.2   331  PHE331      0.2264
     90  O          6.4220   24.3050    8.3590 O.2   331  PHE331     -0.2867
     91  CB         8.4160   22.0340    8.9470 C.3   331  PHE331      0.0534
     92  CG         9.0600   21.5800    7.6790 C.ar  331  PHE331     -0.0203
     93  CD1       10.4420   21.4610    7.5930 C.ar  331  PHE331     -0.0042
     94  CD2        8.2860   21.2230    6.5800 C.ar  331  PHE331     -0.0042
     95  CE1       11.0390   21.0240    6.4240 C.ar  331  PHE331     -0.0003
     96  CE2        8.8810   20.7980    5.4020 C.ar  331  PHE331     -0.0003
     97  CZ        10.2570   20.6930    5.3240 C.ar  331  PHE331     -0.0000
     98  N          5.7580   23.9100    5.6850 N.3   333  TYR333     -0.1241
     99  CA         5.0610   22.8640    4.9530 C.3   333  TYR333      0.1605
    100  C          4.4760   23.3210    3.6000 C.2   333  TYR333      0.2264
    101  O          4.6020   22.6030    2.5920 O.2   333  TYR333     -0.2867
    102  CB         3.9700   22.2730    5.8190 C.3   333  TYR333      0.0534
    103  CG         4.4530   21.3560    6.9070 C.ar  333  TYR333     -0.0201
    104  CD1        4.8720   20.0680    6.6050 C.ar  333  TYR333     -0.0009
    105  CD2        4.4720   21.7490    8.2390 C.ar  333  TYR333     -0.0009
    106  CE1        5.3190   19.1970    7.5940 C.ar  333  TYR333      0.0417
    107  CE2        4.8970   20.8750    9.2370 C.ar  333  TYR333      0.0417
    108  CZ         5.3200   19.5900    8.9040 C.ar  333  TYR333      0.1957
    109  OH         5.7600   18.6820    9.8770 O.3   333  TYR333     -0.2866
    110  N          7.2370   23.9010    1.0890 N.3   336  TYR336     -0.1241
    111  CA         7.6680   22.5860    0.6490 C.3   336  TYR336      0.1605
    112  C          6.7140   21.9860   -0.3580 C.2   336  TYR336      0.2264
    113  O          7.1540   21.4860   -1.3530 O.2   336  TYR336     -0.2867
    114  CB         7.8600   21.6490    1.8430 C.3   336  TYR336      0.0534
    115  CG         8.4560   20.3180    1.4840 C.ar  336  TYR336     -0.0201
    116  CD1        9.7870   20.2150    1.1190 C.ar  336  TYR336     -0.0009
    117  CD2        7.6800   19.1410    1.5110 C.ar  336  TYR336     -0.0009
    118  CE1       10.3450   18.9740    0.7970 C.ar  336  TYR336      0.0417
    119  CE2        8.2200   17.9040    1.2010 C.ar  336  TYR336      0.0417
    120  CZ         9.5560   17.8400    0.8540 C.ar  336  TYR336      0.1957
    121  OH        10.0930   16.6460    0.5480 O.3   336  TYR336     -0.2866
@<TRIPOS>BOND
     1    30    31    1
     2    32    31    1
     3    32    33    2
     4    31    34    1
     5    51    52    1
     6   113   112    2
     7    34    35    1
     8    57    59   ar
     9    57    56   ar
    10    55    52    1
    11    55    56    1
    12    53    52    1
    13    53    54    2
    14    35    36    1
    15    59    60   ar
    16   112   111    1
    17    56    58   ar
    18    36    37   ar
    19    36    38   ar
    20   121   120    1
    21   111   110    1
    22   111   114    1
    23    60    58   ar
    24    60    62   ar
    25   118   120   ar
    26   118   116   ar
    27   120   119   ar
    28    58    61   ar
    29    65    66    1
    30   116   115   ar
    31   119   117   ar
    32   115   117   ar
    33   115   114    1
    34    50    49    1
    35    62    64   ar
    36     1     2    1
    37    61    63   ar
    38     9    10    1
    39    10    13    1
    40    10    11    1
    41    66    69    1
    42    66    67    1
    43     2     3    1
    44     2     5    1
    45    69    70    1
    46     3     4    2
    47   101   100    2
    48    49    47   ar
    49    49    48   ar
    50    13    14    1
    51    64    63   ar
    52    67    68    2
    53    47    45   ar
    54    48    46   ar
    55    11    12    2
    56   100    99    1
    57     7     6   ar
    58    21    20    2
    59     5     6    1
    60    70    72   ar
    61    70    71   ar
    62    75    72   ar
    63    75    77   ar
    64    14    15    1
    65    45    44   ar
    66    46    44   ar
    67     6     8   ar
    68    39    40    1
    69    72    74   ar
    70    71    73   ar
    71    44    43    1
    72    20    19    1
    73    99    98    1
    74    99   102    1
    75    15    17   am
    76    15    16    2
    77    77    78   ar
    78    22    19    1
    79    22    23    1
    80    97    96   ar
    81    97    95   ar
    82    96    94   ar
    83    40    43    1
    84    40    41    1
    85    74    73   ar
    86    74    76   ar
    87   102   103    1
    88    19    18    1
    89    25    23   ar
    90    25    27   ar
    91    23    24   ar
    92    78    76   ar
    93    95    93   ar
    94    94    92   ar
    95   104   103   ar
    96   104   106   ar
    97    27    28   ar
    98    24    26   ar
    99    41    42    2
   100   103   105   ar
   101    28    26   ar
   102    28    29    1
   103    93    92   ar
   104   106   108   ar
   105    92    91    1
   106    89    90    2
   107    89    88    1
   108   105   107   ar
   109   108   107   ar
   110   108   109    1
   111    91    88    1
   112    88    87    1
   113    82    81    2
   114    85    83    1
   115    81    80    1
   116    83    80    1
   117    83    84    1
   118    86    84    1
   119    80    79    1
