@<TRIPOS>MOLECULE
tmp/5w6sA02.pdb
 79 77 0 0 0
SMALL
GASTEIGER

@<TRIPOS>ATOM
      1  N         -2.7360  -32.7880   -4.2500 N.3   359  TYR359     -0.1241
      2  CA        -3.1180  -31.3830   -4.2430 C.3   359  TYR359      0.1605
      3  C         -4.0970  -31.1020   -5.3700 C.2   359  TYR359      0.2264
      4  O         -4.0910  -31.7740   -6.4070 O.2   359  TYR359     -0.2867
      5  CB        -1.8680  -30.4820   -4.3310 C.3   359  TYR359      0.0534
      6  CG        -1.0290  -30.6550   -3.0880 C.ar  359  TYR359     -0.0201
      7  CD1       -0.1030  -31.6950   -2.9900 C.ar  359  TYR359     -0.0009
      8  CD2       -1.2120  -29.8270   -1.9840 C.ar  359  TYR359     -0.0009
      9  CE1        0.6420  -31.8820   -1.8450 C.ar  359  TYR359      0.0417
     10  CE2       -0.4690  -30.0070   -0.8280 C.ar  359  TYR359      0.0417
     11  CZ         0.4540  -31.0320   -0.7660 C.ar  359  TYR359      0.1957
     12  OH         1.1910  -31.2150    0.3830 O.3   359  TYR359     -0.2866
     13  N         -2.0500  -29.2290    4.5340 N.3   423  ILE423     -0.1231
     14  CA        -0.6050  -29.1090    4.4030 C.3   423  ILE423      0.1692
     15  C         -0.3500  -27.9460    3.4640 C.2   423  ILE423      0.2592
     16  O         -0.9210  -27.8990    2.3690 O.2   423  ILE423     -0.2718
     17  CB         0.0450  -30.3870    3.8400 C.3   423  ILE423      0.0266
     18  CG1       -0.4360  -31.6290    4.5850 C.3   423  ILE423      0.0019
     19  CG2        1.5690  -30.2850    3.9020 C.3   423  ILE423      0.0020
     20  CD1        0.2540  -32.8960    4.1020 C.3   423  ILE423      0.0001
     21  N          0.4960  -27.0090    3.8810 N.am  424  ILE424     -0.1966
     22  CA         0.7850  -25.8240    3.0820 C.3   424  ILE424      0.1727
     23  C          2.2680  -25.8140    2.7280 C.2   424  ILE424      0.2616
     24  O          3.1310  -25.8200    3.6160 O.2   424  ILE424     -0.2715
     25  CB         0.3740  -24.5330    3.8020 C.3   424  ILE424      0.0290
     26  CG1       -1.1350  -24.5530    4.0720 C.3   424  ILE424      0.0022
     27  CG2        0.7480  -23.3170    2.9550 C.3   424  ILE424      0.0023
     28  CD1       -1.6490  -23.2940    4.6990 C.3   424  ILE424      0.0001
     29  N          2.5570  -25.8070    1.4280 N.am  425  ASN425     -0.1959
     30  CA         3.9180  -25.7570    0.9060 C.3   425  ASN425      0.1804
     31  C          4.1410  -24.3760    0.3020 C.2   425  ASN425      0.2463
     32  O          3.6950  -24.1160   -0.8260 O.2   425  ASN425     -0.2730
     33  CB         4.1270  -26.8500   -0.1480 C.3   425  ASN425      0.1195
     34  CG         3.8080  -28.2460    0.3800 C.2   425  ASN425      0.2630
     35  OD1        4.6660  -28.8980    0.9660 O.2   425  ASN425     -0.2716
     36  ND2        2.5720  -28.7060    0.1750 N.am  425  ASN425     -0.0877
     37  N          4.7930  -23.4540    1.0040 N.am  426  PRO426     -0.2727
     38  CA         4.9860  -22.1080    0.4520 C.3   426  PRO426      0.1402
     39  C          5.9550  -22.1300   -0.7210 C.2   426  PRO426      0.2269
     40  O          6.7120  -23.0810   -0.9230 O.2   426  PRO426     -0.2865
     41  CB         5.5600  -21.3190    1.6340 C.3   426  PRO426      0.0296
     42  CG         6.3270  -22.3660    2.4150 C.3   426  PRO426      0.0237
     43  CD         5.4820  -23.6300    2.2970 C.3   426  PRO426      0.0939
     44  N          5.4470  -25.3620   11.3930 N.3   589  ILE589     -0.1231
     45  CA         6.2090  -24.7230   10.3190 C.3   589  ILE589      0.1692
     46  C          7.3030  -25.6210    9.7720 C.2   589  ILE589      0.2592
     47  O          7.9380  -25.2650    8.7740 O.2   589  ILE589     -0.2718
     48  CB         6.8280  -23.3740   10.7380 C.3   589  ILE589      0.0266
     49  CG1        8.1330  -23.5730   11.5080 C.3   589  ILE589      0.0019
     50  CG2        5.8230  -22.5400   11.5490 C.3   589  ILE589      0.0020
     51  CD1        8.8240  -22.2650   11.8600 C.3   589  ILE589      0.0001
     52  N          7.5290  -26.7830   10.3750 N.am  590  GLN590     -0.1966
     53  CA         8.5260  -27.6970    9.8360 C.3   590  GLN590      0.1733
     54  C          7.9220  -28.7420    8.9110 C.2   590  GLN590      0.2617
     55  O          8.6090  -29.2120    7.9970 O.2   590  GLN590     -0.2715
     56  CB         9.2990  -28.3600   10.9790 C.3   590  GLN590      0.0408
     57  CG        10.2520  -27.3740   11.6550 C.3   590  GLN590      0.0908
     58  CD        10.8180  -27.8630   12.9830 C.2   590  GLN590      0.2608
     59  OE1       10.3560  -28.8580   13.5480 O.2   590  GLN590     -0.2717
     60  NE2       11.8210  -27.1480   13.4910 N.am  590  GLN590     -0.0878
     61  N          6.6470  -29.0970    9.0980 N.am  591  THR591     -0.1937
     62  CA         5.9720  -30.0330    8.2080 C.3   591  THR591      0.2028
     63  C          4.8910  -29.3890    7.3500 C.2   591  THR591      0.2642
     64  O          4.3980  -30.0400    6.4210 O.2   591  THR591     -0.2714
     65  CB         5.3440  -31.1840    9.0070 C.3   591  THR591      0.1808
     66  OG1        4.2360  -30.6850    9.7660 O.3   591  THR591     -0.2208
     67  CG2        6.3730  -31.8010    9.9510 C.3   591  THR591      0.0379
     68  N          4.5220  -28.1370    7.6180 N.am  592  GLY592     -0.1954
     69  CA         3.4290  -27.4970    6.9040 C.3   592  GLY592      0.1869
     70  C          2.0440  -28.0120    7.2380 C.2   592  GLY592      0.2309
     71  O          1.0720  -27.5860    6.6050 O.2   592  GLY592     -0.2863
     72  N          5.3190  -19.3390    5.6810 N.3   657  LEU657     -0.1245
     73  CA         4.5270  -19.8820    6.7780 C.3   657  LEU657      0.1561
     74  C          4.4780  -18.9620    7.9960 C.2   657  LEU657      0.2260
     75  O          3.5460  -19.0790    8.8000 O.2   657  LEU657     -0.2867
     76  CB         5.0600  -21.2620    7.1870 C.3   657  LEU657      0.0270
     77  CG         4.9670  -22.3430    6.1050 C.3   657  LEU657      0.0019
     78  CD1        5.3230  -23.7210    6.6620 C.3   657  LEU657      0.0001
     79  CD2        3.5750  -22.3540    5.4620 C.3   657  LEU657      0.0001
@<TRIPOS>BOND
     1     4     3    2
     2     3     2    1
     3     5     2    1
     4     5     6    1
     5     1     2    1
     6     6     7   ar
     7     6     8   ar
     8     7     9   ar
     9     8    10   ar
    10     9    11   ar
    11    40    39    2
    12    10    11   ar
    13    32    31    2
    14    11    12    1
    15    39    38    1
    16    33    34    1
    17    33    30    1
    18    36    34   am
    19    31    30    1
    20    31    37   am
    21    34    35    2
    22    38    37    1
    23    38    41    1
    24    30    29    1
    25    37    43    1
    26    29    23   am
    27    41    42    1
    28    43    42    1
    29    16    15    2
    30    23    22    1
    31    23    24    2
    32    27    25    1
    33    22    25    1
    34    22    21    1
    35    15    21   am
    36    15    14    1
    37    25    26    1
    38    17    19    1
    39    17    14    1
    40    17    18    1
    41    26    28    1
    42    20    18    1
    43    14    13    1
    44    79    77    1
    45    72    73    1
    46    77    78    1
    47    77    76    1
    48    64    63    2
    49    71    70    2
    50    73    76    1
    51    73    74    1
    52    69    70    1
    53    69    68    1
    54    63    68   am
    55    63    62    1
    56    74    75    2
    57    55    54    2
    58    62    65    1
    59    62    61    1
    60    47    46    2
    61    54    61   am
    62    54    53    1
    63    65    66    1
    64    65    67    1
    65    46    45    1
    66    46    52   am
    67    53    52    1
    68    53    56    1
    69    45    48    1
    70    45    44    1
    71    48    49    1
    72    48    50    1
    73    56    57    1
    74    49    51    1
    75    57    58    1
    76    58    60   am
    77    58    59    2
