@<TRIPOS>MOLECULE
tmp/5w6xB00.pdb
 166 156 0 0 0
SMALL
GASTEIGER

@<TRIPOS>ATOM
      1  N          8.7890    5.3110    3.1750 N.3    17  ARG17      -0.1245
      2  CA         9.5770    5.1420    4.3740 C.3    17  ARG17       0.1563
      3  C          9.1500    6.2150    5.3540 C.2    17  ARG17       0.2260
      4  O          8.6920    7.2780    4.9750 O.2    17  ARG17      -0.2867
      5  CB        11.0700    5.2960    4.0750 C.3    17  ARG17       0.0307
      6  CG        11.7190    4.1820    3.2750 C.3    17  ARG17       0.0489
      7  CD        13.2380    4.2910    3.3240 C.3    17  ARG17       0.2205
      8  NE        13.7400    5.4470    2.5820 N.pl3  17  ARG17      -0.0865
      9  CZ        15.0140    5.8290    2.5230 C.cat  17  ARG17       0.5346
     10  NH1       15.3550    6.8960    1.8130 N.pl3  17  ARG17       0.1354
     11  NH2       15.9490    5.1580    3.1750 N.pl3  17  ARG17       0.1354
     12  N         10.2410    8.5950    8.7080 N.3    19  VAL19      -0.1245
     13  CA        11.2590    9.1810    9.5480 C.3    19  VAL19       0.1561
     14  C         10.5860    9.9520   10.6810 C.2    19  VAL19       0.2260
     15  O          9.5970   10.6460   10.4440 O.2    19  VAL19      -0.2867
     16  CB        12.2360   10.0480    8.7130 C.3    19  VAL19       0.0252
     17  CG1       11.6890   11.4140    8.3730 C.3    19  VAL19       0.0019
     18  CG2       13.5570   10.1750    9.4130 C.3    19  VAL19       0.0019
     19  N         11.3430   12.6350   14.1750 N.3    21  HIS21      -0.1241
     20  CA        12.2340   13.5640   14.8450 C.3    21  HIS21       0.1621
     21  C         11.5240   14.3220   15.9710 C.2    21  HIS21       0.2264
     22  O         10.2920   14.5560   15.9050 O.2    21  HIS21      -0.2867
     23  CB        12.8310   14.6060   13.8740 C.3    21  HIS21       0.0745
     24  CG        13.6320   14.0320   12.7690 C.ar   21  HIS21       0.0817
     25  ND1       13.1750   14.0170   11.4740 N.ar   21  HIS21      -0.2268
     26  CD2       14.8640   13.4500   12.7400 C.ar   21  HIS21       0.1154
     27  CE1       14.0690   13.4220   10.6960 C.ar   21  HIS21       0.1986
     28  NE2       15.1060   13.0780   11.4320 N.ar   21  HIS21      -0.2212
     29  N         24.3420   17.9460   12.0510 N.3    47  ARG47      -0.1231
     30  CA        24.3960   16.6230   11.4360 C.3    47  ARG47       0.1694
     31  C         25.7130   16.5210   10.6380 C.2    47  ARG47       0.2592
     32  O         26.2920   17.5280   10.2920 O.2    47  ARG47      -0.2718
     33  CB        23.1680   16.3670   10.4990 C.3    47  ARG47       0.0321
     34  CG        21.8030   16.9140   10.9400 C.3    47  ARG47       0.0489
     35  CD        20.8420   17.1480    9.7690 C.3    47  ARG47       0.2205
     36  NE        20.2220   15.8870    9.3460 N.pl3  47  ARG47      -0.0865
     37  CZ        20.6220   15.0770    8.3650 C.cat  47  ARG47       0.5346
     38  NH1       19.9540   13.9860    8.1130 N.pl3  47  ARG47       0.1354
     39  NH2       21.6550   15.3340    7.6180 N.pl3  47  ARG47       0.1354
     40  N         26.0900   15.2890   10.3050 N.am   48  PHE48      -0.1976
     41  CA        27.2320   14.9230    9.4490 C.3    48  PHE48       0.1639
     42  C         27.2910   15.7140    8.1520 C.2    48  PHE48       0.2290
     43  O         28.3730   15.9850    7.6550 O.2    48  PHE48      -0.2864
     44  CB        27.2490   13.4130    9.1630 C.3    48  PHE48       0.0560
     45  CG        26.1060   12.9250    8.2540 C.ar   48  PHE48      -0.0200
     46  CD1       26.2660   12.8990    6.9000 C.ar   48  PHE48      -0.0042
     47  CD2       24.9000   12.4950    8.7800 C.ar   48  PHE48      -0.0042
     48  CE1       25.2550   12.4520    6.0610 C.ar   48  PHE48      -0.0003
     49  CE2       23.8770   12.0230    7.9530 C.ar   48  PHE48      -0.0003
     50  CZ        24.0540   12.0180    6.5950 C.ar   48  PHE48      -0.0000
     51  N         16.8530   18.0160   13.8360 N.3    54  PHE54      -0.1241
     52  CA        16.3590   17.5100   15.0800 C.3    54  PHE54       0.1605
     53  C         16.7950   16.0620   15.2580 C.2    54  PHE54       0.2264
     54  O         16.8850   15.3160   14.3060 O.2    54  PHE54      -0.2867
     55  CB        14.8370   17.6430   15.1210 C.3    54  PHE54       0.0534
     56  CG        14.3740   19.0420   15.2700 C.ar   54  PHE54      -0.0203
     57  CD1       14.5210   19.6890   16.4740 C.ar   54  PHE54      -0.0042
     58  CD2       13.8250   19.7250   14.2060 C.ar   54  PHE54      -0.0042
     59  CE1       14.1400   21.0170   16.6340 C.ar   54  PHE54      -0.0003
     60  CE2       13.4210   21.0550   14.3490 C.ar   54  PHE54      -0.0003
     61  CZ        13.5670   21.6940   15.5790 C.ar   54  PHE54      -0.0000
     62  N         16.4330   12.1640   15.8370 N.3    56  GLY56      -0.1210
     63  CA        15.4600   11.1620   15.4300 C.3    56  GLY56       0.1956
     64  C         16.0230   10.3590   14.2710 C.2    56  GLY56       0.2612
     65  O         17.2130   10.3470   14.0590 O.2    56  GLY56      -0.2717
     66  N         15.1620    9.6660   13.5450 N.am   57  GLY57      -0.1942
     67  CA        15.5880    8.9180   12.3620 C.3    57  GLY57       0.2014
     68  C         14.5130    8.0340   11.7570 C.2    57  GLY57       0.2638
     69  O         13.3350    8.1580   12.0850 O.2    57  GLY57      -0.2714
     70  N         14.9190    7.1760   10.8350 N.am   58  PHE58      -0.1973
     71  CA        14.0060    6.2880   10.1240 C.3    58  PHE58       0.1639
     72  C         13.3320    5.2510   10.9730 C.2    58  PHE58       0.2290
     73  O         13.9810    4.5520   11.7020 O.2    58  PHE58      -0.2864
     74  CB        14.7330    5.5380    9.0070 C.3    58  PHE58       0.0560
     75  CG        14.8780    6.3150    7.7360 C.ar   58  PHE58      -0.0200
     76  CD1       13.7890    6.5900    6.9500 C.ar   58  PHE58      -0.0042
     77  CD2       16.1140    6.7620    7.3250 C.ar   58  PHE58      -0.0042
     78  CE1       13.9300    7.3000    5.7800 C.ar   58  PHE58      -0.0003
     79  CE2       16.2600    7.4750    6.1560 C.ar   58  PHE58      -0.0003
     80  CZ        15.1640    7.7450    5.3870 C.ar   58  PHE58      -0.0000
     81  N         15.7570    5.5300   18.1250 N.3    72  GLU72      -0.1245
     82  CA        16.7120    6.3950   17.4140 C.3    72  GLU72       0.1567
     83  C         17.2560    7.5070   18.3110 C.2    72  GLU72       0.2260
     84  O         18.4340    7.8340   18.2330 O.2    72  GLU72      -0.2867
     85  CB        16.0670    7.0600   16.1860 C.3    72  GLU72       0.0388
     86  CG        15.8030    6.1440   15.0160 C.3    72  GLU72       0.1160
     87  CD        17.0270    5.8240   14.1710 C.2    72  GLU72       0.3649
     88  OE1       17.8140    6.7520   13.8200 O.co2  72  GLU72      -0.2457
     89  OE2       17.1690    4.6170   13.8300 O.co2  72  GLU72      -0.2457
     90  N         21.2220    8.2910   19.0000 N.3    76  GLU76      -0.1245
     91  CA        21.7980    9.6200   18.7310 C.3    76  GLU76       0.1567
     92  C         22.1780   10.4320   19.9430 C.2    76  GLU76       0.2260
     93  O         23.1440   11.2090   19.8710 O.2    76  GLU76      -0.2867
     94  CB        20.8710   10.4880   17.8410 C.3    76  GLU76       0.0388
     95  CG        20.9690   10.0610   16.3920 C.3    76  GLU76       0.1160
     96  CD        20.0700   10.8200   15.4350 C.2    76  GLU76       0.3649
     97  OE1       19.5700   11.9110   15.8280 O.co2  76  GLU76      -0.2457
     98  OE2       19.8840   10.2830   14.2830 O.co2  76  GLU76      -0.2457
     99  N         13.1270   11.6880   -2.0660 N.3    97  PRO97      -0.2116
    100  CA        12.6770   10.3030   -1.9930 C.3    97  PRO97       0.1372
    101  C         11.2620   10.2000   -1.4100 C.2    97  PRO97       0.2244
    102  O         10.7030   11.2100   -0.9570 O.2    97  PRO97      -0.2868
    103  CB        13.7150    9.6570   -1.0680 C.3    97  PRO97       0.0268
    104  CG        14.1760   10.7740   -0.1840 C.3    97  PRO97       0.0207
    105  CD        13.8890   12.0850   -0.8730 C.3    97  PRO97       0.0892
    106  N          9.7140    9.6390    1.3250 N.3    99  VAL99      -0.1245
    107  CA         9.8840    9.6360    2.7940 C.3    99  VAL99       0.1561
    108  C          8.8550   10.5750    3.4480 C.2    99  VAL99       0.2260
    109  O          8.6790   11.7060    2.9940 O.2    99  VAL99      -0.2867
    110  CB        11.3200   10.0710    3.1770 C.3    99  VAL99       0.0252
    111  CG1       11.5240   10.0690    4.6910 C.3    99  VAL99       0.0019
    112  CG2       12.3330    9.1480    2.5290 C.3    99  VAL99       0.0019
    113  N          7.9440   12.6160    6.9320 N.3   101  ALA101     -0.1245
    114  CA         8.6590   13.1980    8.1030 C.3   101  ALA101      0.1562
    115  C          7.6990   13.5920    9.1920 C.2   101  ALA101      0.2260
    116  O          6.9630   14.5470    9.0570 O.2   101  ALA101     -0.2867
    117  CB         9.4810   14.4040    7.6910 C.3   101  ALA101      0.0290
    118  N         26.1730    7.7680   17.8960 N.3   125  ASP125     -0.1239
    119  CA        26.3460    8.5780   16.6880 C.3   125  ASP125      0.1674
    120  C         27.2710    9.8110   16.8500 C.2   125  ASP125      0.2266
    121  O         27.5170   10.5210   15.8520 O.2   125  ASP125     -0.2867
    122  CB        24.9800    8.9820   16.1050 C.3   125  ASP125      0.1410
    123  CG        24.2210    7.8020   15.4390 C.2   125  ASP125      0.3668
    124  OD1       24.8860    6.8580   14.9700 O.co2 125  ASP125     -0.2456
    125  OD2       22.9570    7.8540   15.3650 O.co2 125  ASP125     -0.2456
    126  N         27.4900   10.4480   12.7440 N.3   129  GLU129     -0.1245
    127  CA        26.2590   10.9740   12.2070 C.3   129  GLU129      0.1567
    128  C         25.8860   12.3240   12.8390 C.2   129  GLU129      0.2260
    129  O         25.3080   13.1780   12.1710 O.2   129  GLU129     -0.2867
    130  CB        25.1490    9.9290   12.3630 C.3   129  GLU129      0.0388
    131  CG        25.2330    8.8120   11.3240 C.3   129  GLU129      0.1160
    132  CD        26.0690    7.6040   11.7390 C.2   129  GLU129      0.3649
    133  OE1       26.8480    7.6730   12.7310 O.co2 129  GLU129     -0.2457
    134  OE2       25.9200    6.5510   11.0680 O.co2 129  GLU129     -0.2457
    135  N         18.2670   20.8890    7.6230 N.3   157  ILE157     -0.1231
    136  CA        17.8520   19.7160    6.9130 C.3   157  ILE157      0.1692
    137  C         16.3250   19.7190    6.7290 C.2   157  ILE157      0.2593
    138  O         15.5520   20.1480    7.6160 O.2   157  ILE157     -0.2718
    139  CB        18.3230   18.4080    7.6210 C.3   157  ILE157      0.0266
    140  CG1       18.0970   17.1780    6.7330 C.3   157  ILE157      0.0019
    141  CG2       17.6110   18.1600    8.9500 C.3   157  ILE157      0.0020
    142  CD1       18.7840   17.2260    5.3770 C.3   157  ILE157      0.0001
    143  N         15.9100   19.2670    5.5510 N.am  158  GLY158     -0.1942
    144  CA        14.5030   18.9580    5.2560 C.3   158  GLY158      0.2014
    145  C         13.5430   20.0750    5.5730 C.2   158  GLY158      0.2640
    146  O         13.7390   21.2080    5.1470 O.2   158  GLY158     -0.2714
    147  N         12.5330   19.7720    6.3770 N.am  159  SER159     -0.1935
    148  CA        11.6050   20.7950    6.9000 C.3   159  SER159      0.2055
    149  C         11.9790   21.2830    8.3160 C.2   159  SER159      0.2642
    150  O         11.1500   21.9550    8.9810 O.2   159  SER159     -0.2714
    151  CB        10.1840   20.2010    6.9520 C.3   159  SER159      0.2130
    152  OG         9.8060   19.6240    5.7100 O.3   159  SER159     -0.2179
    153  N         13.1920   20.9800    8.8060 N.am  160  ALA160     -0.1977
    154  CA        13.5510   21.3560   10.2220 C.3   160  ALA160      0.1597
    155  C         13.2630   22.7950   10.5590 C.2   160  ALA160      0.2287
    156  O         12.7780   23.0590   11.6340 O.2   160  ALA160     -0.2864
    157  CB        14.9880   21.0020   10.5880 C.3   160  ALA160      0.0319
    158  N          9.4160   23.3130   10.9710 N.3   163  GLN163     -0.1245
    159  CA         8.9720   22.5360   12.1520 C.3   163  GLN163      0.1566
    160  C          9.3590   23.2790   13.4340 C.2   163  GLN163      0.2260
    161  O          8.5520   23.3950   14.3630 O.2   163  GLN163     -0.2867
    162  CB         9.6560   21.1850   12.1640 C.3   163  GLN163      0.0367
    163  CG         9.2230   20.2110   11.0530 C.3   163  GLN163      0.0905
    164  CD        10.1350   19.0210   10.9130 C.2   163  GLN163      0.2608
    165  OE1       11.3320   19.1030   11.2110 O.2   163  GLN163     -0.2717
    166  NE2        9.5920   17.8970   10.4520 N.am  163  GLN163     -0.0878
@<TRIPOS>BOND
     1    99   100    1
     2    99   105    1
     3   100   101    1
     4   100   103    1
     5   101   102    2
     6   103   104    1
     7   105   104    1
     8   106   107    1
     9    10     9    1
    10     9     8    2
    11     9    11    1
    12   112   110    1
    13     8     7    1
    14   107   110    1
    15   107   108    1
    16   109   108    2
    17     1     2    1
    18   110   111    1
    19     6     7    1
    20     6     5    1
    21     5     2    1
    22     2     3    1
    23     4     3    2
    24   146   145    2
    25   144   143    1
    26   144   145    1
    27   142   140    1
    28    80    78   ar
    29    80    79   ar
    30   143   137   am
    31   145   147   am
    32   152   151    1
    33    78    76   ar
    34    48    50   ar
    35    48    46   ar
    36    79    77   ar
    37   147   148    1
    38    50    49   ar
    39   137   136    1
    40   137   138    2
    41   140   139    1
    42   148   151    1
    43   148   149    1
    44    46    45   ar
    45   136   139    1
    46   136   135    1
    47   113   114    1
    48    76    75   ar
    49    77    75   ar
    50    39    37    1
    51   139   141    1
    52    43    42    2
    53   117   114    1
    54    75    74    1
    55    49    47   ar
    56   114   115    1
    57    38    37    1
    58    42    41    1
    59    45    47   ar
    60    45    44    1
    61   149   153   am
    62   149   150    2
    63    37    36    2
    64    17    16    1
    65    12    13    1
    66    16    18    1
    67    16    13    1
    68   153   154    1
    69    74    71    1
    70   116   115    2
    71    44    41    1
    72    36    35    1
    73    41    40    1
    74    13    14    1
    75    35    34    1
    76    71    70    1
    77    71    72    1
    78   154   155    1
    79   154   157    1
    80    32    31    2
    81    40    31   am
    82    15    14    2
    83   166   164   am
    84    33    34    1
    85    33    30    1
    86   155   156    2
    87    31    30    1
    88    27    28   ar
    89    27    25   ar
    90    70    68   am
    91   164   163    1
    92   164   165    2
    93   158   159    1
    94    72    73    2
    95   163   162    1
    96   134   132   ar
    97   131   132    1
    98   131   130    1
    99    28    26   ar
   100    30    29    1
   101    25    24   ar
   102   132   133   ar
   103    68    69    2
   104    68    67    1
   105   159   162    1
   106   159   160    1
   107   129   128    2
   108   127   130    1
   109   127   126    1
   110   127   128    1
   111    67    66    1
   112    26    24   ar
   113    24    23    1
   114   160   161    2
   115    66    64   am
   116    88    87   ar
   117    89    87   ar
   118    51    52    1
   119    23    20    1
   120    65    64    2
   121    87    86    1
   122    19    20    1
   123    58    60   ar
   124    58    56   ar
   125    64    63    1
   126    98    96   ar
   127    54    53    2
   128    60    61   ar
   129    20    21    1
   130   124   123   ar
   131    86    85    1
   132    52    55    1
   133    52    53    1
   134    55    56    1
   135    56    57   ar
   136   125   123   ar
   137    63    62    1
   138    96    97   ar
   139    96    95    1
   140   123   122    1
   141    61    59   ar
   142   121   120    2
   143    22    21    2
   144   122   119    1
   145    85    82    1
   146    95    94    1
   147    57    59   ar
   148   119   120    1
   149   119   118    1
   150    82    81    1
   151    82    83    1
   152    94    91    1
   153    84    83    2
   154    91    90    1
   155    91    92    1
   156    93    92    2
