@<TRIPOS>MOLECULE
tmp/5w6yA01.pdb
 86 80 0 0 0
SMALL
GASTEIGER

@<TRIPOS>ATOM
      1  N          5.3350   32.6260  -23.6010 N.3    58  HIS58      -0.1241
      2  CA         5.7700   31.6120  -22.6510 C.3    58  HIS58       0.1621
      3  C          5.1750   31.8310  -21.2420 C.2    58  HIS58       0.2264
      4  O          4.8950   30.8610  -20.5440 O.2    58  HIS58      -0.2867
      5  CB         7.3050   31.5660  -22.6010 C.3    58  HIS58       0.0745
      6  CG         7.9310   31.0310  -23.8570 C.ar   58  HIS58       0.0817
      7  ND1        9.2710   30.7220  -23.9530 N.ar   58  HIS58      -0.2268
      8  CD2        7.3970   30.7580  -25.0750 C.ar   58  HIS58       0.1154
      9  CE1        9.5350   30.2710  -25.1670 C.ar   58  HIS58       0.1986
     10  NE2        8.4150   30.2890  -25.8710 N.ar   58  HIS58      -0.2212
     11  N          1.8320   30.2100  -20.7680 N.3    61  VAL61      -0.1231
     12  CA         1.8200   28.7750  -20.5170 C.3    61  VAL61       0.1692
     13  C          2.7150   28.4300  -19.3060 C.2    61  VAL61       0.2592
     14  O          3.2100   27.3070  -19.1850 O.2    61  VAL61      -0.2718
     15  CB         2.2280   27.9620  -21.7870 C.3    61  VAL61       0.0266
     16  CG1        1.0850   27.9610  -22.8120 C.3    61  VAL61       0.0020
     17  CG2        3.4920   28.5060  -22.4240 C.3    61  VAL61       0.0020
     18  N          2.8950   29.4170  -18.4240 N.am   62  ARG62      -0.1966
     19  CA         3.3800   29.2270  -17.0490 C.3    62  ARG62       0.1729
     20  C          4.8950   29.0350  -16.9240 C.2    62  ARG62       0.2616
     21  O          5.3760   28.5440  -15.8890 O.2    62  ARG62      -0.2715
     22  CB         2.6860   28.0300  -16.3790 C.3    62  ARG62       0.0348
     23  CG         1.1650   28.0520  -16.4020 C.3    62  ARG62       0.0492
     24  CD         0.5800   26.6940  -16.0120 C.3    62  ARG62       0.2205
     25  NE         1.2510   25.5740  -16.6750 N.pl3  62  ARG62      -0.0865
     26  CZ         0.8010   24.3210  -16.6800 C.cat  62  ARG62       0.5346
     27  NH1       -0.3400   24.0180  -16.0760 N.pl3  62  ARG62       0.1354
     28  NH2        1.4830   23.3690  -17.3030 N.pl3  62  ARG62       0.1354
     29  N          5.6470   29.4330  -17.9430 N.am   63  ARG63      -0.1977
     30  CA         7.0980   29.2340  -17.9050 C.3    63  ARG63       0.1597
     31  C          7.7360   29.7810  -16.6280 C.2    63  ARG63       0.2287
     32  O          8.5440   29.0940  -16.0000 O.2    63  ARG63      -0.2864
     33  CB         7.7770   29.8680  -19.1160 C.3    63  ARG63       0.0334
     34  CG         9.2920   29.6740  -19.1140 C.3    63  ARG63       0.0492
     35  CD         9.9830   30.1260  -20.4290 C.3    63  ARG63       0.2205
     36  NE        11.3700   29.6550  -20.4310 N.pl3  63  ARG63      -0.0865
     37  CZ        12.0360   29.2210  -21.4980 C.cat  63  ARG63       0.5346
     38  NH1       11.4640   29.1980  -22.7000 N.pl3  63  ARG63       0.1354
     39  NH2       13.2860   28.8060  -21.3610 N.pl3  63  ARG63       0.1354
     40  N          7.9330   28.2610  -13.0030 N.3    66  ALA66      -0.1245
     41  CA         8.9700   27.2830  -12.6830 C.3    66  ALA66       0.1562
     42  C         10.1290   27.9580  -11.9530 C.2    66  ALA66       0.2260
     43  O         10.5000   29.0780  -12.2770 O.2    66  ALA66      -0.2867
     44  CB         9.4660   26.5810  -13.9450 C.3    66  ALA66       0.0290
     45  N         13.2830   27.4210  -12.0310 N.3    68  ASP68      -0.1225
     46  CA        14.5310   27.5790  -12.7870 C.3    68  ASP68       0.1805
     47  C         14.3900   28.4880  -14.0130 C.2    68  ASP68       0.2597
     48  O         15.3370   28.6320  -14.8000 O.2    68  ASP68      -0.2718
     49  CB        15.0800   26.2100  -13.2310 C.3    68  ASP68       0.1424
     50  CG        14.0090   25.2930  -13.8340 C.2    68  ASP68       0.3668
     51  OD1       12.8300   25.6940  -13.9530 O.co2  68  ASP68      -0.2456
     52  OD2       14.3550   24.1460  -14.1790 O.co2  68  ASP68      -0.2456
     53  N         13.2300   29.1240  -14.1640 N.am   69  GLU69      -0.1979
     54  CA        12.9850   29.9790  -15.3310 C.3    69  GLU69       0.1602
     55  C         12.8430   31.4420  -14.9010 C.2    69  GLU69       0.2287
     56  O         11.9870   31.7610  -14.0980 O.2    69  GLU69      -0.2864
     57  CB        11.7310   29.5290  -16.0870 C.3    69  GLU69       0.0415
     58  CG        11.7590   28.0950  -16.6630 C.3    69  GLU69       0.1163
     59  CD        12.6990   27.9460  -17.8490 C.2    69  GLU69       0.3649
     60  OE1       13.2080   28.9710  -18.3600 O.co2  69  GLU69      -0.2457
     61  OE2       12.9300   26.7940  -18.2670 O.co2  69  GLU69      -0.2457
     62  N         -3.1780   28.6640  -18.4520 N.3    82  LEU82      -0.1245
     63  CA        -3.2880   27.2880  -17.9710 C.3    82  LEU82       0.1561
     64  C         -3.3770   27.2710  -16.4490 C.2    82  LEU82       0.2260
     65  O         -2.8560   28.1750  -15.8040 O.2    82  LEU82      -0.2867
     66  CB        -2.0910   26.4640  -18.4300 C.3    82  LEU82       0.0270
     67  CG        -1.7920   26.5130  -19.9310 C.3    82  LEU82       0.0019
     68  CD1       -0.5650   25.6710  -20.2450 C.3    82  LEU82       0.0001
     69  CD2       -2.9890   26.0370  -20.7290 C.3    82  LEU82       0.0001
     70  N          0.7180   25.4150  -11.8490 N.3    85  LEU85      -0.1245
     71  CA         1.4300   24.2710  -11.2980 C.3    85  LEU85       0.1561
     72  C          1.7000   24.5400   -9.8290 C.2    85  LEU85       0.2260
     73  O          1.7130   25.7000   -9.4150 O.2    85  LEU85      -0.2867
     74  CB         2.7540   24.0230  -12.0260 C.3    85  LEU85       0.0270
     75  CG         2.8450   23.9470  -13.5460 C.3    85  LEU85       0.0019
     76  CD1        3.2420   25.3020  -14.0750 C.3    85  LEU85       0.0001
     77  CD2        3.8660   22.8980  -13.9430 C.3    85  LEU85       0.0001
     78  N         18.8510   29.9840  -17.9060 N.3   141  LYS141     -0.1245
     79  CA        18.5060   28.8110  -17.1160 C.3   141  LYS141      0.1561
     80  C         19.7520   28.1620  -16.5110 C.2   141  LYS141      0.2260
     81  O         19.7730   27.8570  -15.3160 O.2   141  LYS141     -0.2867
     82  CB        17.7460   27.7890  -17.9460 C.3   141  LYS141      0.0271
     83  CG        17.3250   26.5740  -17.1290 C.3   141  LYS141      0.0035
     84  CD        16.4310   25.6470  -17.9320 C.3   141  LYS141      0.0206
     85  CE        16.0400   24.4260  -17.1160 C.3   141  LYS141      0.1093
     86  NZ        15.1310   23.5490  -17.9080 N.3   141  LYS141     -0.1314
@<TRIPOS>BOND
     1    10     9   ar
     2    10     8   ar
     3     9     7   ar
     4     8     6   ar
     5     7     6   ar
     6     6     5    1
     7     1     2    1
     8    16    15    1
     9    38    37    1
    10     2     5    1
    11     2     3    1
    12    17    15    1
    13    15    12    1
    14    37    39    1
    15    37    36    2
    16     3     4    2
    17    11    12    1
    18    69    67    1
    19    12    13    1
    20    36    35    1
    21    35    34    1
    22    68    67    1
    23    67    66    1
    24    13    14    2
    25    13    18   am
    26    33    34    1
    27    33    30    1
    28    62    63    1
    29    66    63    1
    30    18    19    1
    31    60    59   ar
    32    61    59   ar
    33    63    64    1
    34    82    83    1
    35    82    79    1
    36    29    30    1
    37    29    20   am
    38    84    83    1
    39    84    85    1
    40    86    85    1
    41    78    79    1
    42    30    31    1
    43    59    58    1
    44    28    26    1
    45    79    80    1
    46    19    20    1
    47    19    22    1
    48    20    21    2
    49    26    25    2
    50    26    27    1
    51    25    24    1
    52    58    57    1
    53    31    32    2
    54    80    81    2
    55    64    65    2
    56    23    22    1
    57    23    24    1
    58    57    54    1
    59    54    55    1
    60    54    53    1
    61    55    56    2
    62    48    47    2
    63    52    50   ar
    64    53    47   am
    65    76    75    1
    66    47    46    1
    67    51    50   ar
    68    44    41    1
    69    77    75    1
    70    50    49    1
    71    75    74    1
    72    49    46    1
    73    40    41    1
    74    46    45    1
    75    41    42    1
    76    43    42    2
    77    74    71    1
    78    70    71    1
    79    71    72    1
    80    72    73    2
