@<TRIPOS>MOLECULE
tmp/5w70A00.pdb
 152 143 0 0 0
SMALL
GASTEIGER

@<TRIPOS>ATOM
      1  N         18.4530    9.8020   25.9820 N.3    72  SER72      -0.1202
      2  CA        19.8040    9.7910   26.5580 C.3    72  SER72       0.2020
      3  C         20.0330    8.4770   27.3180 C.2    72  SER72       0.2619
      4  O         19.0960    7.7330   27.6050 O.2    72  SER72      -0.2717
      5  CB        19.9910   10.9660   27.5230 C.3    72  SER72       0.2103
      6  OG        19.0680   10.8840   28.6150 O.3    72  SER72      -0.2182
      7  N         21.2950    8.1820   27.6060 N.am   73  GLY73      -0.1942
      8  CA        21.6760    7.0890   28.5130 C.3    73  GLY73       0.2014
      9  C         21.1700    7.3160   29.9090 C.2    73  GLY73       0.2639
     10  O         20.7780    6.3700   30.5450 O.2    73  GLY73      -0.2714
     11  N         21.1380    8.5510   30.3910 N.am   74  THR74      -0.1950
     12  CA        20.4860    8.9600   31.6580 C.3    74  THR74       0.1897
     13  C         18.9950    8.5450   31.6470 C.2    74  THR74       0.2313
     14  O         18.4260    7.9840   32.6100 O.2    74  THR74      -0.2863
     15  CB        20.6090   10.4890   31.8290 C.3    74  THR74       0.1794
     16  OG1       21.9770   10.8940   31.8830 O.3    74  THR74      -0.2208
     17  CG2       20.0210   10.9270   33.1150 C.3    74  THR74       0.0378
     18  N         18.7660    4.6230   31.7420 N.3    77  LEU77      -0.1245
     19  CA        18.9100    4.1180   33.1120 C.3    77  LEU77       0.1561
     20  C         17.6240    4.2410   33.8940 C.2    77  LEU77       0.2260
     21  O         17.1210    3.2490   34.4250 O.2    77  LEU77      -0.2867
     22  CB        20.0710    4.7860   33.8260 C.3    77  LEU77       0.0270
     23  CG        21.4910    4.2480   33.5110 C.3    77  LEU77       0.0019
     24  CD1       22.5220    5.1730   34.1560 C.3    77  LEU77       0.0001
     25  CD2       21.6400    2.8130   33.9880 C.3    77  LEU77       0.0001
     26  N         32.3410    5.2770   38.1800 N.3    98  SER98      -0.1202
     27  CA        31.6040    5.5230   36.9310 C.3    98  SER98       0.2020
     28  C         31.4200    7.0410   36.7970 C.2    98  SER98       0.2618
     29  O         31.6920    7.8330   37.7160 O.2    98  SER98      -0.2717
     30  CB        30.2520    4.7680   36.9320 C.3    98  SER98       0.2103
     31  OG        29.5140    4.8790   35.7270 O.3    98  SER98      -0.2182
     32  N         30.9690    7.4540   35.6270 N.am   99  TRP99      -0.1975
     33  CA        30.4000    8.7910   35.4830 C.3    99  TRP99       0.1640
     34  C         29.2250    9.0680   36.4630 C.2    99  TRP99       0.2290
     35  O         28.4280    8.1980   36.8310 O.2    99  TRP99      -0.2864
     36  CB        30.0020    8.9680   34.0210 C.3    99  TRP99       0.0576
     37  CG        29.1950   10.1040   33.7030 C.ar   99  TRP99       0.0006
     38  CD1       27.9140   10.0640   33.2960 C.ar   99  TRP99       0.0946
     39  CD2       29.5740   11.4840   33.7220 C.ar   99  TRP99       0.0152
     40  NE1       27.4520   11.3360   33.0750 N.ar   99  TRP99      -0.2442
     41  CE2       28.4510   12.2320   33.3170 C.ar   99  TRP99       0.0810
     42  CE3       30.7430   12.1770   34.0680 C.ar   99  TRP99       0.0012
     43  CZ2       28.4550   13.6130   33.2570 C.ar   99  TRP99       0.0191
     44  CZ3       30.7430   13.5850   33.9970 C.ar   99  TRP99       0.0001
     45  CH2       29.6120   14.2670   33.5960 C.ar   99  TRP99       0.0015
     46  N         26.3480   10.2730   36.5880 N.3   101  ALA101     -0.1231
     47  CA        25.0300    9.7970   36.2210 C.3   101  ALA101      0.1694
     48  C         24.6480    8.4280   36.7610 C.2   101  ALA101      0.2592
     49  O         23.4570    8.1750   36.9510 O.2   101  ALA101     -0.2718
     50  CB        24.8550    9.8410   34.7120 C.3   101  ALA101      0.0304
     51  N         25.6270    7.5650   37.0070 N.am  102  SER102     -0.1952
     52  CA        25.3650    6.2700   37.5940 C.3   102  SER102      0.1924
     53  C         24.7820    6.4110   38.9960 C.2   102  SER102      0.2314
     54  O         23.9740    5.5640   39.3880 O.2   102  SER102     -0.2863
     55  CB        26.6250    5.3930   37.6450 C.3   102  SER102      0.2116
     56  OG        26.9880    4.9600   36.3310 O.3   102  SER102     -0.2180
     57  N         28.1970   -1.4840   35.4870 N.3   144  VAL144     -0.1245
     58  CA        28.7930   -0.7620   34.3790 C.3   144  VAL144      0.1561
     59  C         29.9680   -1.5550   33.8350 C.2   144  VAL144      0.2260
     60  O         30.8610   -1.9690   34.5940 O.2   144  VAL144     -0.2867
     61  CB        29.2730    0.6330   34.7760 C.3   144  VAL144      0.0252
     62  CG1       29.8310    1.3780   33.5640 C.3   144  VAL144      0.0019
     63  CG2       28.1140    1.4050   35.3870 C.3   144  VAL144      0.0019
     64  N         24.6500   -1.4890   32.2250 N.3   170  ASP170     -0.1239
     65  CA        24.8350   -0.1510   31.7010 C.3   170  ASP170      0.1674
     66  C         26.0050   -0.3040   30.7610 C.2   170  ASP170      0.2266
     67  O         27.1590   -0.4630   31.1810 O.2   170  ASP170     -0.2867
     68  CB        25.1210    0.8650   32.7880 C.3   170  ASP170      0.1410
     69  CG        25.3110    2.2540   32.2590 C.2   170  ASP170      0.3668
     70  OD1       25.4420    2.4530   31.0130 O.co2 170  ASP170     -0.2456
     71  OD2       25.3500    3.1440   33.1530 O.co2 170  ASP170     -0.2456
     72  N         26.7460    1.8920   28.3000 N.3   172  ALA172     -0.1231
     73  CA        27.1140    3.1700   27.6960 C.3   172  ALA172      0.1694
     74  C         28.5540    3.2530   27.1680 C.2   172  ALA172      0.2591
     75  O         28.8340    4.0280   26.2390 O.2   172  ALA172     -0.2718
     76  CB        26.8390    4.3420   28.6400 C.3   172  ALA172      0.0304
     77  N         29.4160    2.4240   27.7460 N.am  173  GLN173     -0.1979
     78  CA        30.8430    2.4040   27.4360 C.3   173  GLN173      0.1601
     79  C         31.2960    1.1110   26.7690 C.2   173  GLN173      0.2287
     80  O         32.5050    0.8450   26.6970 O.2   173  GLN173     -0.2864
     81  CB        31.6600    2.7260   28.7080 C.3   173  GLN173      0.0394
     82  CG        31.2680    4.0740   29.2960 C.3   173  GLN173      0.0908
     83  CD        32.1540    4.5630   30.4540 C.2   173  GLN173      0.2608
     84  OE1       33.2570    4.0420   30.6590 O.2   173  GLN173     -0.2717
     85  NE2       31.6650    5.5410   31.2220 N.am  173  GLN173     -0.0878
     86  N         24.0230    4.8870   26.3170 N.3   194  SER194     -0.1217
     87  CA        24.1870    6.2690   25.8710 C.3   194  SER194      0.1889
     88  C         24.6100    6.3240   24.3990 C.2   194  SER194      0.2288
     89  O         25.4740    5.5410   23.9640 O.2   194  SER194     -0.2866
     90  CB        25.2320    7.0410   26.6860 C.3   194  SER194      0.2089
     91  OG        25.3600    8.4180   26.2880 O.3   194  SER194     -0.2183
     92  N         25.3350    9.6580   23.4870 N.3   196  GLN196     -0.1245
     93  CA        25.9840   10.9650   23.6040 C.3   196  GLN196      0.1566
     94  C         27.2200   11.0390   22.7400 C.2   196  GLN196      0.2260
     95  O         27.8570   10.0140   22.4970 O.2   196  GLN196     -0.2867
     96  CB        26.3490   11.2130   25.0970 C.3   196  GLN196      0.0367
     97  CG        26.9780   12.5710   25.4630 C.3   196  GLN196      0.0905
     98  CD        28.5160   12.5080   25.5270 C.2   196  GLN196      0.2608
     99  OE1       29.0680   11.4140   25.4030 O.2   196  GLN196     -0.2717
    100  NE2       29.2110   13.6480   25.6930 N.am  196  GLN196     -0.0878
    101  N         30.5140   11.3780   22.9350 N.3   198  SER198     -0.1202
    102  CA        31.8110   10.7100   23.1040 C.3   198  SER198      0.2020
    103  C         31.7660    9.1690   22.9070 C.2   198  SER198      0.2618
    104  O         32.7890    8.4850   22.8350 O.2   198  SER198     -0.2717
    105  CB        32.3910   11.1280   24.4590 C.3   198  SER198      0.2103
    106  OG        31.7250   10.4250   25.5290 O.3   198  SER198     -0.2182
    107  N         30.5530    8.6300   22.8320 N.am  199  LYS199     -0.1979
    108  CA        30.3250    7.2050   22.8600 C.3   199  LYS199      0.1596
    109  C         30.6290    6.6440   21.5000 C.2   199  LYS199      0.2287
    110  O         30.5830    7.3860   20.5230 O.2   199  LYS199     -0.2864
    111  CB        28.8840    6.8860   23.2740 C.3   199  LYS199      0.0298
    112  CG        28.4210    7.5140   24.5900 C.3   199  LYS199      0.0038
    113  CD        29.3890    7.2140   25.7200 C.3   199  LYS199      0.0206
    114  CE        28.9230    7.7720   27.0610 C.3   199  LYS199      0.1093
    115  NZ        29.2890    9.1950   27.0680 N.3   199  LYS199     -0.1314
    116  N         23.2320   13.1460   20.9700 N.3   205  GLU205     -0.1231
    117  CA        22.5330   12.7180   22.1910 C.3   205  GLU205      0.1699
    118  C         21.6950   11.5520   21.7990 C.2   205  GLU205      0.2592
    119  O         21.1780   11.5370   20.6900 O.2   205  GLU205     -0.2718
    120  CB        21.6220   13.8590   22.7370 C.3   205  GLU205      0.0402
    121  CG        22.3940   15.0640   23.2960 C.3   205  GLU205      0.1161
    122  CD        23.0120   14.7930   24.6750 C.2   205  GLU205      0.3649
    123  OE1       22.4860   13.9390   25.4480 O.co2 205  GLU205     -0.2457
    124  OE2       24.0240   15.4660   24.9600 O.co2 205  GLU205     -0.2457
    125  N         21.5590   10.5860   22.6890 N.am  206  GLY206     -0.1957
    126  CA        20.5900    9.5240   22.5140 C.3   206  GLY206      0.1869
    127  C         20.7680    8.3860   23.5040 C.2   206  GLY206      0.2309
    128  O         21.6220    8.4410   24.4230 O.2   206  GLY206     -0.2863
    129  N         35.6440    2.1900   24.4740 N.3   308  TYR308     -0.1241
    130  CA        35.1730    3.5750   24.6410 C.3   308  TYR308      0.1605
    131  C         36.3140    4.4620   25.1260 C.2   308  TYR308      0.2264
    132  O         36.4810    5.5590   24.6220 O.2   308  TYR308     -0.2867
    133  CB        34.0100    3.6520   25.6350 C.3   308  TYR308      0.0534
    134  CG        33.7340    5.0200   26.1850 C.ar  308  TYR308     -0.0201
    135  CD1       33.3620    6.0630   25.3550 C.ar  308  TYR308     -0.0009
    136  CD2       33.8230    5.2670   27.5510 C.ar  308  TYR308     -0.0009
    137  CE1       33.0770    7.3240   25.8670 C.ar  308  TYR308      0.0417
    138  CE2       33.5630    6.5190   28.0670 C.ar  308  TYR308      0.0417
    139  CZ        33.1820    7.5390   27.2280 C.ar  308  TYR308      0.1957
    140  OH        32.8920    8.7750   27.7420 O.3   308  TYR308     -0.2866
    141  N         37.7330    8.8110   36.4730 N.3   343  TYR343     -0.1241
    142  CA        36.6780    9.4920   37.2210 C.3   343  TYR343      0.1605
    143  C         37.0190    9.4140   38.6940 C.2   343  TYR343      0.2264
    144  O         37.5590    8.4030   39.1480 O.2   343  TYR343     -0.2867
    145  CB        35.3080    8.8280   37.1000 C.3   343  TYR343      0.0534
    146  CG        34.7490    8.6360   35.7250 C.ar  343  TYR343     -0.0201
    147  CD1       34.4240    9.7170   34.9120 C.ar  343  TYR343     -0.0009
    148  CD2       34.4730    7.3740   35.2640 C.ar  343  TYR343     -0.0009
    149  CE1       33.8740    9.5330   33.6570 C.ar  343  TYR343      0.0417
    150  CE2       33.9370    7.1750   34.0030 C.ar  343  TYR343      0.0417
    151  CZ        33.6450    8.2520   33.2160 C.ar  343  TYR343      0.1957
    152  OH        33.1080    7.9850   31.9940 O.3   343  TYR343     -0.2866
@<TRIPOS>BOND
     1   110   109    2
     2   119   118    2
     3   116   117    1
     4   109   108    1
     5   118   117    1
     6   118   125   am
     7   117   120    1
     8    95    94    2
     9   126   125    1
    10   126   127    1
    11   120   121    1
    12    94    93    1
    13   107   108    1
    14   107   103   am
    15   104   103    2
    16   108   111    1
    17   103   102    1
    18   101   102    1
    19   102   105    1
    20   111   112    1
    21   121   122    1
    22    92    93    1
    23   127   128    2
    24    93    96    1
    25    89    88    2
    26    88    87    1
    27   105   106    1
    28   129   130    1
    29   112   113    1
    30   132   131    2
    31   130   131    1
    32   130   133    1
    33   122   124   ar
    34   122   123   ar
    35    96    97    1
    36   135   137   ar
    37   135   134   ar
    38    99    98    2
    39    97    98    1
    40    98   100   am
    41   133   134    1
    42   113   114    1
    43   137   139   ar
    44    87    86    1
    45    87    90    1
    46     1     2    1
    47   134   136   ar
    48    75    74    2
    49    91    90    1
    50     2     3    1
    51     2     5    1
    52    80    79    2
    53    79    78    1
    54   114   115    1
    55    74    73    1
    56    74    77   am
    57   139   140    1
    58   139   138   ar
    59     3     4    2
    60     3     7   am
    61    78    77    1
    62    78    81    1
    63     5     6    1
    64   136   138   ar
    65     7     8    1
    66    73    72    1
    67    73    76    1
    68     8     9    1
    69    81    82    1
    70    82    83    1
    71     9    11   am
    72     9    10    2
    73    11    12    1
    74    83    84    2
    75    83    85   am
    76    66    67    2
    77    66    65    1
    78    70    69   ar
    79    13    12    1
    80    13    14    2
    81    12    15    1
    82    65    64    1
    83    65    68    1
    84    18    19    1
    85    15    16    1
    86    15    17    1
    87   152   151    1
    88    69    68    1
    89    69    71   ar
    90    40    38   ar
    91    40    41   ar
    92    19    22    1
    93    19    20    1
    94   151   149   ar
    95   151   150   ar
    96    43    41   ar
    97    43    45   ar
    98    38    37   ar
    99    41    39   ar
   100    23    22    1
   101    23    25    1
   102    23    24    1
   103    62    61    1
   104    45    44   ar
   105   149   147   ar
   106    37    39   ar
   107    37    36    1
   108    39    42   ar
   109    59    58    1
   110    59    60    2
   111    20    21    2
   112    44    42   ar
   113   150   148   ar
   114    36    33    1
   115    58    61    1
   116    58    57    1
   117    50    47    1
   118    61    63    1
   119   147   146   ar
   120   148   146   ar
   121    33    32    1
   122    33    34    1
   123    32    28   am
   124   146   145    1
   125    31    30    1
   126    47    46    1
   127    47    48    1
   128    56    55    1
   129    34    35    2
   130   141   142    1
   131    48    49    2
   132    48    51   am
   133    28    27    1
   134    28    29    2
   135    27    30    1
   136    27    26    1
   137    51    52    1
   138   145   142    1
   139   142   143    1
   140    52    55    1
   141    52    53    1
   142   143   144    2
   143    53    54    2
