@<TRIPOS>MOLECULE
tmp/5w71B00.pdb
 157 148 0 0 0
SMALL
GASTEIGER

@<TRIPOS>ATOM
      1  N        -17.1760   -5.6180   18.1610 N.3    59  SER59      -0.1202
      2  CA       -15.9330   -5.0760   17.6320 C.3    59  SER59       0.2020
      3  C        -15.0450   -6.1890   17.0910 C.2    59  SER59       0.2619
      4  O        -15.2600   -7.3540   17.3630 O.2    59  SER59      -0.2717
      5  CB       -15.1510   -4.3160   18.7090 C.3    59  SER59       0.2103
      6  OG       -14.7830   -5.1910   19.7740 O.3    59  SER59      -0.2182
      7  N        -14.0710   -5.8020   16.2950 N.am   60  GLY60      -0.1942
      8  CA       -12.9910   -6.7070   15.8940 C.3    60  GLY60       0.2014
      9  C        -12.2120   -7.3030   17.0450 C.2    60  GLY60       0.2639
     10  O        -11.9220   -8.4800   17.0240 O.2    60  GLY60      -0.2714
     11  N        -11.8980   -6.4910   18.0470 N.am   61  SER61      -0.1949
     12  CA       -11.1970   -6.9640   19.2510 C.3    61  SER61       0.1924
     13  C        -11.9840   -8.0280   19.9580 C.2    61  SER61       0.2314
     14  O        -11.4430   -9.0390   20.3960 O.2    61  SER61      -0.2863
     15  CB       -10.9630   -5.8210   20.2490 C.3    61  SER61       0.2116
     16  OG       -10.2260   -4.7930   19.6180 O.3    61  SER61      -0.2180
     17  N        -12.0990  -11.3760   18.1130 N.3    64  LEU64      -0.1245
     18  CA       -10.9510  -12.2610   18.3650 C.3    64  LEU64       0.1561
     19  C        -11.0580  -12.9390   19.7130 C.2    64  LEU64       0.2260
     20  O        -10.7110  -14.0730   19.8520 O.2    64  LEU64      -0.2867
     21  CB        -9.6310  -11.5090   18.2800 C.3    64  LEU64       0.0270
     22  CG        -9.2770  -10.9590   16.8950 C.3    64  LEU64       0.0019
     23  CD1       -8.1490   -9.9400   16.9290 C.3    64  LEU64       0.0001
     24  CD2       -8.9290  -12.1160   15.9620 C.3    64  LEU64       0.0001
     25  N          1.1560   -5.7060   13.3540 N.3    85  THR85      -0.1203
     26  CA        -0.2940   -5.6560   13.3080 C.3    85  THR85       0.1994
     27  C         -0.7450   -4.5790   14.2940 C.2    85  THR85       0.2617
     28  O          0.0820   -3.9720   15.0360 O.2    85  THR85      -0.2717
     29  CB        -0.9480   -7.0250   13.6350 C.3    85  THR85       0.1784
     30  OG1       -2.3810   -6.9330   13.5630 O.3    85  THR85      -0.2211
     31  CG2       -0.5560   -7.5460   15.0110 C.3    85  THR85       0.0376
     32  N         -2.0390   -4.3130   14.2680 N.am   86  TRP86      -0.1975
     33  CA        -2.6480   -3.4310   15.2550 C.3    86  TRP86       0.1640
     34  C         -2.7070   -4.2050   16.5790 C.2    86  TRP86       0.2290
     35  O         -2.9470   -5.4290   16.5860 O.2    86  TRP86      -0.2864
     36  CB        -4.0360   -3.0020   14.7690 C.3    86  TRP86       0.0576
     37  CG        -4.8500   -2.3700   15.7850 C.ar   86  TRP86       0.0006
     38  CD1       -5.9780   -2.8700   16.3170 C.ar   86  TRP86       0.0946
     39  CD2       -4.6110   -1.1220   16.4410 C.ar   86  TRP86       0.0152
     40  NE1       -6.4830   -2.0080   17.2500 N.ar   86  TRP86      -0.2442
     41  CE2       -5.6520   -0.9280   17.3530 C.ar   86  TRP86       0.0810
     42  CE3       -3.6110   -0.1510   16.3530 C.ar   86  TRP86       0.0012
     43  CZ2       -5.7410    0.2070   18.1600 C.ar   86  TRP86       0.0191
     44  CZ3       -3.6960    0.9630   17.1620 C.ar   86  TRP86       0.0001
     45  CH2       -4.7620    1.1400   18.0450 C.ar   86  TRP86       0.0015
     46  N         -4.6090   -4.8750   18.9670 N.3    88  ALA88      -0.1231
     47  CA        -5.7410   -5.7380   19.2960 C.3    88  ALA88       0.1694
     48  C         -5.4960   -7.2580   19.0210 C.2    88  ALA88       0.2592
     49  O         -5.8780   -8.1220   19.8080 O.2    88  ALA88      -0.2718
     50  CB        -7.0150   -5.2520   18.6080 C.3    88  ALA88       0.0304
     51  N         -4.8210   -7.5810   17.9330 N.am   89  THR89      -0.1953
     52  CA        -4.4620   -8.9700   17.6540 C.3    89  THR89       0.1897
     53  C         -3.7900   -9.6150   18.8620 C.2    89  THR89       0.2313
     54  O         -4.0850  -10.7240   19.2420 O.2    89  THR89      -0.2863
     55  CB        -3.5180   -9.0190   16.4590 C.3    89  THR89       0.1794
     56  OG1       -4.1500   -8.3920   15.3330 O.3    89  THR89      -0.2208
     57  CG2       -3.2260  -10.4310   16.1170 C.3    89  THR89       0.0378
     58  N         -2.8160  -12.4300   10.2220 N.3   131  VAL131     -0.1245
     59  CA        -3.4920  -11.1890    9.9460 C.3   131  VAL131      0.1561
     60  C         -3.3480  -10.9620    8.4590 C.2   131  VAL131      0.2260
     61  O         -2.2290  -11.0200    7.9140 O.2   131  VAL131     -0.2867
     62  CB        -2.8410  -10.0210   10.7210 C.3   131  VAL131      0.0252
     63  CG1       -3.5190   -8.6910   10.3660 C.3   131  VAL131      0.0019
     64  CG2       -2.8630  -10.2810   12.2490 C.3   131  VAL131      0.0019
     65  N         -7.4790  -13.1260   11.4230 N.3   157  ASP157     -0.1239
     66  CA        -7.8450  -11.7480   11.6610 C.3   157  ASP157      0.1674
     67  C         -8.0070  -11.0470   10.2990 C.2   157  ASP157      0.2266
     68  O         -6.9870  -10.6640    9.6260 O.2   157  ASP157     -0.2867
     69  CB        -6.7830  -11.0830   12.5260 C.3   157  ASP157      0.1410
     70  CG        -7.1530   -9.6870   12.9590 C.2   157  ASP157      0.3668
     71  OD1       -8.2080   -9.1570   12.5140 O.co2 157  ASP157     -0.2456
     72  OD2       -6.3720   -9.1130   13.7570 O.co2 157  ASP157     -0.2456
     73  N         -9.7360   -8.2240    9.8290 N.3   159  ALA159     -0.1231
     74  CA       -10.1940   -6.8560   10.0430 C.3   159  ALA159      0.1694
     75  C         -9.8600   -5.8950    8.9050 C.2   159  ALA159      0.2591
     76  O        -10.5700   -4.9200    8.7360 O.2   159  ALA159     -0.2718
     77  CB        -9.6800   -6.2920   11.3590 C.3   159  ALA159      0.0304
     78  N         -8.8150   -6.1980    8.1330 N.am  160  GLN160     -0.1979
     79  CA        -8.3300   -5.3350    7.0510 C.3   160  GLN160      0.1601
     80  C         -8.4890   -6.0090    5.6920 C.2   160  GLN160      0.2287
     81  O         -7.8710   -5.5750    4.7350 O.2   160  GLN160     -0.2864
     82  CB        -6.8550   -4.9780    7.2810 C.3   160  GLN160      0.0394
     83  CG        -6.5740   -4.5380    8.7140 C.3   160  GLN160      0.0908
     84  CD        -5.2070   -3.9130    8.9620 C.2   160  GLN160      0.2608
     85  OE1       -4.3190   -3.8810    8.0980 O.2   160  GLN160     -0.2717
     86  NE2       -5.0320   -3.4040   10.1800 N.am  160  GLN160     -0.0878
     87  N        -13.3700   -6.6970   12.1010 N.3   181  SER181     -0.1217
     88  CA       -13.7810   -5.4230   12.6660 C.3   181  SER181      0.1889
     89  C        -14.6570   -4.7040   11.6620 C.2   181  SER181      0.2288
     90  O        -14.4800   -4.8710   10.4600 O.2   181  SER181     -0.2866
     91  CB       -12.5470   -4.5870   12.9820 C.3   181  SER181      0.2089
     92  OG       -12.7750   -3.2050   13.0520 O.3   181  SER181     -0.2183
     93  N        -15.1090   -1.2540   12.4890 N.3   183  GLN183     -0.1245
     94  CA       -14.7880    0.0660   12.9640 C.3   183  GLN183      0.1566
     95  C        -14.7540    1.0410   11.7580 C.2   183  GLN183      0.2260
     96  O        -14.5530    0.6080   10.6200 O.2   183  GLN183     -0.2867
     97  CB       -13.4480   -0.0180   13.6920 C.3   183  GLN183      0.0367
     98  CG       -12.9430    1.2910   14.2650 C.3   183  GLN183      0.0905
     99  CD       -12.0940    2.0990   13.2890 C.2   183  GLN183      0.2608
    100  OE1      -11.7550    1.6500   12.1840 O.2   183  GLN183     -0.2717
    101  NE2      -11.7390    3.2880   13.6900 N.am  183  GLN183     -0.0878
    102  N        -12.6780    0.7880    8.4340 N.3   186  LYS186     -0.1245
    103  CA       -12.6410   -0.4550    7.6880 C.3   186  LYS186      0.1561
    104  C        -13.5150   -0.3580    6.4630 C.2   186  LYS186      0.2260
    105  O        -14.3270    0.5810    6.3350 O.2   186  LYS186     -0.2867
    106  CB       -13.0650   -1.6570    8.5640 C.3   186  LYS186      0.0271
    107  CG       -12.2850   -1.8130    9.8680 C.3   186  LYS186      0.0035
    108  CD       -10.7750   -1.7370    9.6550 C.3   186  LYS186      0.0206
    109  CE        -9.9910   -1.8730   10.9450 C.3   186  LYS186      0.1093
    110  NZ        -9.9140   -0.5550   11.6000 N.3   186  LYS186     -0.1314
    111  N        -18.6920    1.2090   14.7160 N.3   192  GLU192     -0.1231
    112  CA       -18.1120    0.1340   15.5100 C.3   192  GLU192      0.1699
    113  C        -18.8410   -1.1280   15.0700 C.2   192  GLU192      0.2592
    114  O        -19.9970   -1.0730   14.6600 O.2   192  GLU192     -0.2718
    115  CB       -18.3510    0.3600   17.0030 C.3   192  GLU192      0.0402
    116  CG       -17.6950    1.6030   17.5610 C.3   192  GLU192      0.1161
    117  CD       -16.2030    1.4740   17.7580 C.2   192  GLU192      0.3649
    118  OE1      -15.7190    0.3560   17.9380 O.co2 192  GLU192     -0.2457
    119  OE2      -15.5030    2.4960   17.7420 O.co2 192  GLU192     -0.2457
    120  N        -18.1670   -2.2570   15.1700 N.am  193  GLY193     -0.1957
    121  CA       -18.8280   -3.5390   14.9610 C.3   193  GLY193      0.1869
    122  C        -17.8780   -4.6910   14.8730 C.2   193  GLY193      0.2309
    123  O        -16.7140   -4.5010   14.6180 O.2   193  GLY193     -0.2863
    124  N         -7.5730   -2.2240    2.6640 N.3   298  TYR298     -0.1241
    125  CA        -7.9050   -1.3250    3.7460 C.3   298  TYR298      0.1605
    126  C         -6.8600   -0.2040    3.7740 C.2   298  TYR298      0.2264
    127  O         -7.1830    0.9580    4.0180 O.2   298  TYR298     -0.2867
    128  CB        -7.8910   -2.1280    5.0570 C.3   298  TYR298      0.0534
    129  CG        -7.8360   -1.3360    6.3160 C.ar  298  TYR298     -0.0201
    130  CD1       -8.8470   -0.4570    6.6520 C.ar  298  TYR298     -0.0009
    131  CD2       -6.7680   -1.4710    7.2090 C.ar  298  TYR298     -0.0009
    132  CE1       -8.8080    0.2720    7.8470 C.ar  298  TYR298      0.0417
    133  CE2       -6.7200   -0.7450    8.4130 C.ar  298  TYR298      0.0417
    134  CZ        -7.7550    0.1080    8.7410 C.ar  298  TYR298      0.1957
    135  OH        -7.7510    0.8210    9.9420 O.3   298  TYR298     -0.2866
    136  N         -0.0700    7.7950    6.8570 N.3   333  HIS333     -0.1241
    137  CA         0.7200    7.5450    8.0530 C.3   333  HIS333      0.1621
    138  C          1.6090    6.3140    7.7960 C.2   333  HIS333      0.2264
    139  O          1.4090    5.5850    6.8170 O.2   333  HIS333     -0.2867
    140  CB        -0.2070    7.2710    9.2500 C.3   333  HIS333      0.0745
    141  CG        -1.1810    6.1720    8.9780 C.ar  333  HIS333      0.0817
    142  ND1       -0.8480    4.8470    9.1040 N.ar  333  HIS333     -0.2268
    143  CD2       -2.4470    6.2000    8.5060 C.ar  333  HIS333      0.1154
    144  CE1       -1.8720    4.1050    8.7420 C.ar  333  HIS333      0.1986
    145  NE2       -2.8620    4.9020    8.3830 N.ar  333  HIS333     -0.2212
    146  N          1.6210    1.0700   11.8740 N.3   336  TYR336     -0.1241
    147  CA         1.8040    0.7450   13.2960 C.3   336  TYR336      0.1605
    148  C          3.2430    0.3770   13.6090 C.2   336  TYR336      0.2264
    149  O          3.8410   -0.4420   12.9130 O.2   336  TYR336     -0.2867
    150  CB         0.9140   -0.4700   13.7780 C.3   336  TYR336      0.0534
    151  CG        -0.3880   -0.6290   13.0240 C.ar  336  TYR336     -0.0201
    152  CD1       -1.4570    0.2550   13.2590 C.ar  336  TYR336     -0.0009
    153  CD2       -0.5260   -1.5720   12.0170 C.ar  336  TYR336     -0.0009
    154  CE1       -2.6330    0.1620   12.5420 C.ar  336  TYR336      0.0417
    155  CE2       -1.7220   -1.6660   11.3050 C.ar  336  TYR336      0.0417
    156  CZ        -2.7690   -0.7940   11.5760 C.ar  336  TYR336      0.1957
    157  OH        -3.9710   -0.8590   10.8840 O.3   336  TYR336     -0.2866
@<TRIPOS>BOND
     1   124   125    1
     2   125   126    1
     3   125   128    1
     4   126   127    2
     5    81    80    2
     6   128   129    1
     7    80    79    1
     8   129   130   ar
     9   129   131   ar
    10   105   104    2
    11   104   103    1
    12   130   132   ar
    13   139   138    2
    14   136   137    1
    15    79    82    1
    16    79    78    1
    17   131   133   ar
    18    82    83    1
    19   103   102    1
    20   103   106    1
    21   138   137    1
    22   132   134   ar
    23    61    60    2
    24   137   140    1
    25    85    84    2
    26    78    75   am
    27   145   143   ar
    28   145   144   ar
    29   133   134   ar
    30    60    59    1
    31   143   141   ar
    32   106   107    1
    33    83    84    1
    34    76    75    2
    35   134   135    1
    36   144   142   ar
    37    75    74    1
    38    84    86   am
    39   141   142   ar
    40   141   140    1
    41    68    67    2
    42   108   107    1
    43   108   109    1
    44    73    74    1
    45    59    58    1
    46    59    62    1
    47    74    77    1
    48    67    66    1
    49    63    62    1
    50    90    89    2
    51    96    95    2
    52    62    64    1
    53   157   156    1
    54   109   110    1
    55   155   156   ar
    56   155   153   ar
    57    65    66    1
    58   156   154   ar
    59    66    69    1
    60    89    88    1
    61    95    94    1
    62   146   147    1
    63   153   151   ar
    64    87    88    1
    65   100    99    2
    66    93    94    1
    67    71    70   ar
    68    69    70    1
    69   154   152   ar
    70    88    91    1
    71   149   148    2
    72    70    72   ar
    73    94    97    1
    74    91    92    1
    75   151   152   ar
    76   151   150    1
    77    99   101   am
    78    99    98    1
    79   147   148    1
    80   147   150    1
    81    26    25    1
    82    26    29    1
    83    26    27    1
    84    30    29    1
    85    29    31    1
    86    97    98    1
    87    32    27   am
    88    32    33    1
    89    27    28    2
    90   123   122    2
    91   114   113    2
    92   111   112    1
    93    36    33    1
    94    36    37    1
    95   122   121    1
    96   121   120    1
    97   113   120   am
    98   113   112    1
    99    33    34    1
   100    56    55    1
   101   112   115    1
   102    37    38   ar
   103    37    39   ar
   104     8     7    1
   105     8     9    1
   106    24    22    1
   107    57    55    1
   108     7     3   am
   109    38    40   ar
   110    42    39   ar
   111    42    44   ar
   112    39    41   ar
   113    55    52    1
   114    34    35    2
   115    22    23    1
   116    22    21    1
   117   115   116    1
   118    10     9    2
   119     9    11   am
   120     3     4    2
   121     3     2    1
   122    44    45   ar
   123    40    41   ar
   124    41    43   ar
   125   116   117    1
   126     2     1    1
   127     2     5    1
   128    52    51    1
   129    52    53    1
   130   119   117   ar
   131   117   118   ar
   132    51    48   am
   133    45    43   ar
   134    11    12    1
   135    17    18    1
   136    21    18    1
   137    18    19    1
   138    50    47    1
   139     5     6    1
   140    53    54    2
   141    46    47    1
   142    48    47    1
   143    48    49    2
   144    12    13    1
   145    12    15    1
   146    16    15    1
   147    19    20    2
   148    13    14    2
