@<TRIPOS>MOLECULE
tmp/5w71A00.pdb
 147 138 0 0 0
SMALL
GASTEIGER

@<TRIPOS>ATOM
      1  N        -21.4850   -1.3490   26.8860 N.3    63  SER63      -0.1202
      2  CA       -22.5330   -2.0950   27.6360 C.3    63  SER63       0.2020
      3  C        -22.3690   -1.8880   29.1320 C.2    63  SER63       0.2619
      4  O        -21.2720   -1.5430   29.5800 O.2    63  SER63      -0.2717
      5  CB       -22.4390   -3.6010   27.3650 C.3    63  SER63       0.2103
      6  OG       -21.1780   -4.1070   27.7720 O.3    63  SER63      -0.2182
      7  N        -23.4330   -2.1350   29.8930 N.am   64  GLY64      -0.1942
      8  CA       -23.3510   -2.2100   31.3610 C.3    64  GLY64       0.2014
      9  C        -22.2810   -3.1470   31.9140 C.2    64  GLY64       0.2639
     10  O        -21.5110   -2.7850   32.8170 O.2    64  GLY64      -0.2714
     11  N        -22.2040   -4.3250   31.3070 N.am   65  SER65      -0.1949
     12  CA       -21.2490   -5.3650   31.7050 C.3    65  SER65       0.1924
     13  C        -19.8190   -4.8860   31.4990 C.2    65  SER65       0.2314
     14  O        -18.9920   -5.0470   32.3610 O.2    65  SER65      -0.2863
     15  CB       -21.4820   -6.6340   30.8740 C.3    65  SER65       0.2116
     16  OG       -22.8630   -7.0210   30.8450 O.3    65  SER65      -0.2180
     17  N        -18.9020   -2.1590   34.0850 N.3    68  LEU68      -0.1245
     18  CA       -18.4790   -2.7580   35.3300 C.3    68  LEU68       0.1561
     19  C        -17.0470   -3.3010   35.2340 C.2    68  LEU68       0.2260
     20  O        -16.1910   -3.0140   36.1080 O.2    68  LEU68      -0.2867
     21  CB       -19.4570   -3.8630   35.7640 C.3    68  LEU68       0.0270
     22  CG       -20.8120   -3.3990   36.2830 C.3    68  LEU68       0.0019
     23  CD1      -21.7880   -4.5520   36.4830 C.3    68  LEU68       0.0001
     24  CD2      -20.6600   -2.7170   37.6220 C.3    68  LEU68       0.0001
     25  N        -29.3010  -10.1500   41.5260 N.3    89  THR89      -0.1203
     26  CA       -29.0160   -9.2020   40.4930 C.3    89  THR89       0.1994
     27  C        -28.9210   -9.9830   39.2130 C.2    89  THR89       0.2617
     28  O        -29.0470  -11.2380   39.2210 O.2    89  THR89      -0.2717
     29  CB       -27.7110   -8.4000   40.7280 C.3    89  THR89       0.1784
     30  OG1      -27.5600   -7.4320   39.6800 O.3    89  THR89      -0.2211
     31  CG2      -26.4640   -9.2890   40.8050 C.3    89  THR89       0.0376
     32  N        -28.6990   -9.2540   38.1220 N.am   90  TRP90      -0.1975
     33  CA       -28.4380   -9.8650   36.8360 C.3    90  TRP90       0.1640
     34  C        -27.0270  -10.4030   36.8900 C.2    90  TRP90       0.2290
     35  O        -26.1890   -9.8690   37.6310 O.2    90  TRP90      -0.2864
     36  CB       -28.5830   -8.8360   35.7050 C.3    90  TRP90       0.0576
     37  CG       -28.1480   -9.3330   34.3630 C.ar   90  TRP90       0.0006
     38  CD1      -27.2000   -8.7690   33.5500 C.ar   90  TRP90       0.0946
     39  CD2      -28.6480  -10.4640   33.6560 C.ar   90  TRP90       0.0152
     40  NE1      -27.0850   -9.4800   32.3740 N.ar   90  TRP90      -0.2442
     41  CE2      -27.9500  -10.5270   32.4080 C.ar   90  TRP90       0.0810
     42  CE3      -29.5850  -11.4540   33.9560 C.ar   90  TRP90       0.0012
     43  CZ2      -28.1890  -11.5260   31.4510 C.ar   90  TRP90       0.0191
     44  CZ3      -29.8240  -12.4410   33.0090 C.ar   90  TRP90       0.0001
     45  CH2      -29.1340  -12.4680   31.7680 C.ar   90  TRP90       0.0015
     46  N        -24.4060  -10.3550   35.0110 N.3    92  ALA92      -0.1231
     47  CA       -23.2800   -9.4670   34.6660 C.3    92  ALA92       0.1694
     48  C        -22.5770   -8.7890   35.8600 C.2    92  ALA92       0.2592
     49  O        -21.4040   -8.4330   35.7930 O.2    92  ALA92      -0.2718
     50  CB       -23.7280   -8.4200   33.6630 C.3    92  ALA92       0.0304
     51  N        -23.2850   -8.5870   36.9500 N.am   93  THR93      -0.1953
     52  CA       -22.6840   -7.9880   38.0960 C.3    93  THR93       0.1897
     53  C        -21.5410   -8.8860   38.6370 C.2    93  THR93       0.2313
     54  O        -20.5170   -8.3870   39.0680 O.2    93  THR93      -0.2863
     55  CB       -23.7610   -7.6810   39.1730 C.3    93  THR93       0.1794
     56  OG1      -24.8600   -6.9620   38.5910 O.3    93  THR93      -0.2208
     57  CG2      -23.1480   -6.8610   40.3250 C.3    93  THR93       0.0378
     58  N        -25.8260   -2.9230   43.9180 N.3   135  VAL135     -0.1245
     59  CA       -26.7360   -2.7530   42.8140 C.3   135  VAL135      0.1561
     60  C        -27.9710   -2.0140   43.3030 C.2   135  VAL135      0.2260
     61  O        -28.5730   -2.3800   44.2880 O.2   135  VAL135     -0.2867
     62  CB       -27.1340   -4.1300   42.2140 C.3   135  VAL135      0.0252
     63  CG1      -28.0100   -3.9680   41.0060 C.3   135  VAL135      0.0019
     64  CG2      -25.9010   -4.9200   41.7790 C.3   135  VAL135      0.0019
     65  N        -23.4740   -0.2330   40.6890 N.3   161  ASP161     -0.1239
     66  CA       -24.1160   -0.7570   39.4650 C.3   161  ASP161      0.1674
     67  C        -25.4750   -0.0960   39.3460 C.2   161  ASP161      0.2266
     68  O        -26.4480   -0.5110   39.9830 O.2   161  ASP161     -0.2867
     69  CB       -24.2170   -2.2790   39.5270 C.3   161  ASP161      0.1410
     70  CG       -24.7890   -2.9020   38.2770 C.2   161  ASP161      0.3668
     71  OD1      -25.3450   -2.1680   37.4280 O.co2 161  ASP161     -0.2456
     72  OD2      -24.6620   -4.1750   38.1480 O.co2 161  ASP161     -0.2456
     73  N        -27.3200    0.2550   36.4390 N.3   163  ALA163     -0.1231
     74  CA       -28.0480   -0.1160   35.2450 C.3   163  ALA163      0.1694
     75  C        -29.5470   -0.0720   35.3370 C.2   163  ALA163      0.2591
     76  O        -30.1900   -0.0240   34.3110 O.2   163  ALA163     -0.2718
     77  CB       -27.6060   -1.5090   34.7990 C.3   163  ALA163      0.0304
     78  N        -30.1130   -0.1530   36.5310 N.am  164  GLN164     -0.1979
     79  CA       -31.5700   -0.1010   36.7500 C.3   164  GLN164      0.1601
     80  C        -31.9730    1.1190   37.6070 C.2   164  GLN164      0.2287
     81  O        -33.0300    1.0830   38.3240 O.2   164  GLN164     -0.2864
     82  CB       -32.0280   -1.3600   37.4730 C.3   164  GLN164      0.0394
     83  CG       -31.7860   -2.6160   36.6580 C.3   164  GLN164      0.0908
     84  CD       -32.1110   -3.9210   37.3710 C.2   164  GLN164      0.2608
     85  OE1      -32.7800   -3.9430   38.4180 O.2   164  GLN164     -0.2717
     86  NE2      -31.6080   -5.0410   36.8040 N.am  164  GLN164     -0.0878
     87  N        -25.8390    0.5050   32.2320 N.3   185  SER185     -0.1217
     88  CA       -26.2140   -0.1990   30.9930 C.3   185  SER185      0.1889
     89  C        -27.2260    0.6730   30.2760 C.2   185  SER185      0.2288
     90  O        -28.0390    1.3630   30.9190 O.2   185  SER185     -0.2866
     91  CB       -26.9300   -1.5210   31.3090 C.3   185  SER185      0.2089
     92  OG       -27.5580   -2.1140   30.1660 O.3   185  SER185     -0.2183
     93  N        -28.8220   -0.9150   27.5750 N.3   187  GLN187     -0.1245
     94  CA       -29.4470   -1.9960   26.8320 C.3   187  GLN187      0.1566
     95  C        -30.9360   -1.6820   26.7030 C.2   187  GLN187      0.2260
     96  O        -31.4820   -0.9020   27.4800 O.2   187  GLN187     -0.2867
     97  CB       -29.1800   -3.3610   27.5210 C.3   187  GLN187      0.0367
     98  CG       -29.7230   -4.6110   26.8060 C.3   187  GLN187      0.0905
     99  CD       -31.1650   -4.9200   27.1690 C.2   187  GLN187      0.2608
    100  OE1      -31.7670   -4.2330   28.0080 O.2   187  GLN187     -0.2717
    101  NE2      -31.7500   -5.9000   26.5040 N.am  187  GLN187     -0.0878
    102  N        -33.7110   -0.7660   29.4200 N.3   190  LYS190     -0.1245
    103  CA       -33.4400    0.2680   30.4290 C.3   190  LYS190      0.1561
    104  C        -34.1450    1.5730   30.1060 C.2   190  LYS190      0.2260
    105  O        -34.6490    1.7610   29.0320 O.2   190  LYS190     -0.2867
    106  CB       -31.9430    0.5100   30.5720 C.3   190  LYS190      0.0271
    107  CG       -31.0610   -0.6860   30.7760 C.3   190  LYS190      0.0035
    108  CD       -31.5320   -1.6350   31.8510 C.3   190  LYS190      0.0206
    109  CE       -31.0200   -3.0350   31.5000 C.3   190  LYS190      0.1093
    110  NZ       -30.8100   -3.7480   32.7770 N.3   190  LYS190     -0.1314
    111  N        -28.0210   -0.9860   22.6490 N.3   196  GLU196     -0.1231
    112  CA       -26.8770   -1.3660   23.4650 C.3   196  GLU196      0.1699
    113  C        -26.1190   -0.0980   23.8360 C.2   196  GLU196      0.2592
    114  O        -26.1620    0.9110   23.0730 O.2   196  GLU196     -0.2718
    115  CB       -25.9000   -2.2700   22.7110 C.3   196  GLU196      0.0402
    116  CG       -26.5170   -3.5390   22.1870 C.3   196  GLU196      0.1161
    117  CD       -26.7980   -4.5830   23.2610 C.2   196  GLU196      0.3649
    118  OE1      -26.1950   -4.5050   24.3550 O.co2 196  GLU196     -0.2457
    119  OE2      -27.5830   -5.5040   22.9310 O.co2 196  GLU196     -0.2457
    120  N        -25.4200   -0.1730   24.9670 N.am  197  GLY197     -0.1957
    121  CA       -24.5260    0.8980   25.3760 C.3   197  GLY197      0.1869
    122  C        -24.1900    0.8030   26.8340 C.2   197  GLY197      0.2309
    123  O        -24.8330    0.0210   27.5900 O.2   197  GLY197     -0.2863
    124  N        -36.7840    1.0610   37.1200 N.3   302  TYR302     -0.1241
    125  CA       -36.6030    0.2250   35.9500 C.3   302  TYR302      0.1605
    126  C        -37.6830   -0.8850   36.0120 C.2   302  TYR302      0.2264
    127  O        -38.1930   -1.3010   34.9900 O.2   302  TYR302     -0.2867
    128  CB       -35.1380   -0.3230   35.9270 C.3   302  TYR302      0.0534
    129  CG       -34.9690   -1.5670   35.1140 C.ar  302  TYR302     -0.0201
    130  CD1      -35.0440   -1.5280   33.7470 C.ar  302  TYR302     -0.0009
    131  CD2      -34.7830   -2.7940   35.7240 C.ar  302  TYR302     -0.0009
    132  CE1      -34.9120   -2.6860   32.9920 C.ar  302  TYR302      0.0417
    133  CE2      -34.6170   -3.9540   34.9910 C.ar  302  TYR302      0.0417
    134  CZ       -34.7080   -3.8820   33.6330 C.ar  302  TYR302      0.1957
    135  OH       -34.6110   -5.0100   32.8950 O.3   302  TYR302     -0.2866
    136  N        -35.3210  -12.1000   39.0390 N.3   340  TYR340     -0.1241
    137  CA       -34.2310  -13.0750   38.7710 C.3   340  TYR340      0.1605
    138  C        -34.1060  -14.1570   39.8340 C.2   340  TYR340      0.2264
    139  O        -34.3140  -13.9110   41.0180 O.2   340  TYR340     -0.2867
    140  CB       -32.8380  -12.3880   38.7790 C.3   340  TYR340      0.0534
    141  CG       -32.7240  -11.1130   38.0100 C.ar  340  TYR340     -0.0201
    142  CD1      -32.7470  -11.1070   36.6110 C.ar  340  TYR340     -0.0009
    143  CD2      -32.6040   -9.9140   38.6680 C.ar  340  TYR340     -0.0009
    144  CE1      -32.6500   -9.9140   35.8980 C.ar  340  TYR340      0.0417
    145  CE2      -32.5120   -8.7400   37.9570 C.ar  340  TYR340      0.0417
    146  CZ       -32.5350   -8.7550   36.6000 C.ar  340  TYR340      0.1957
    147  OH       -32.4600   -7.5730   35.9760 O.3   340  TYR340     -0.2866
@<TRIPOS>BOND
     1   116   115    1
     2   116   117    1
     3   111   112    1
     4   115   112    1
     5   119   117   ar
     6   114   113    2
     7   117   118   ar
     8   112   113    1
     9   113   120   am
    10   120   121    1
    11   121   122    1
    12   101    99   am
    13    95    94    1
    14    95    96    2
    15    98    99    1
    16    98    97    1
    17    94    97    1
    18    94    93    1
    19   122   123    2
    20     1     2    1
    21    99   100    2
    22     5     2    1
    23     5     6    1
    24     2     3    1
    25   105   104    2
    26     3     4    2
    27     3     7   am
    28   102   103    1
    29     7     8    1
    30   104   103    1
    31    92    91    1
    32    89    90    2
    33    89    88    1
    34   103   106    1
    35   106   107    1
    36   107   108    1
    37    16    15    1
    38    15    12    1
    39    88    91    1
    40    88    87    1
    41    11    12    1
    42    11     9   am
    43     8     9    1
    44    43    45   ar
    45    43    41   ar
    46    13    12    1
    47    13    14    2
    48   109   108    1
    49   109   110    1
    50    45    44   ar
    51     9    10    2
    52    40    41   ar
    53    40    38   ar
    54    41    39   ar
    55   135   134    1
    56   132   134   ar
    57   132   130   ar
    58    44    42   ar
    59    38    37   ar
    60   134   133   ar
    61    39    42   ar
    62    39    37   ar
    63    50    47    1
    64   130   129   ar
    65    17    18    1
    66    76    75    2
    67    37    36    1
    68    47    46    1
    69    47    48    1
    70    77    74    1
    71   127   126    2
    72   133   131   ar
    73   129   131   ar
    74   129   128    1
    75    19    18    1
    76    19    20    2
    77    74    75    1
    78    74    73    1
    79    18    21    1
    80    75    78   am
    81    36    33    1
    82    21    22    1
    83    49    48    2
    84    48    51   am
    85   144   146   ar
    86   144   142   ar
    87   128   125    1
    88   125   126    1
    89   125   124    1
    90   147   146    1
    91    22    23    1
    92    22    24    1
    93    78    79    1
    94   146   145   ar
    95   142   141   ar
    96    83    84    1
    97    83    82    1
    98    79    82    1
    99    79    80    1
   100    86    84   am
   101    33    34    1
   102    33    32    1
   103    34    35    2
   104    51    52    1
   105    84    85    2
   106    71    70   ar
   107    80    81    2
   108   145   143   ar
   109   141   143   ar
   110   141   140    1
   111    52    53    1
   112    52    55    1
   113    32    27   am
   114    72    70   ar
   115    70    69    1
   116    56    55    1
   117    53    54    2
   118   137   140    1
   119   137   136    1
   120   137   138    1
   121    55    57    1
   122    27    28    2
   123    27    26    1
   124    67    66    1
   125    67    68    2
   126    66    69    1
   127    66    65    1
   128    30    29    1
   129   138   139    2
   130    26    29    1
   131    26    25    1
   132    29    31    1
   133    63    62    1
   134    64    62    1
   135    62    59    1
   136    59    60    1
   137    59    58    1
   138    60    61    2
