@<TRIPOS>MOLECULE
tmp/5w73A00.pdb
 176 166 0 0 0
SMALL
GASTEIGER

@<TRIPOS>ATOM
      1  N        132.3560  107.4940  276.0510 N.3    23  ALA23      -0.1231
      2  CA       132.3990  106.5400  277.1530 C.3    23  ALA23       0.1694
      3  C        131.7410  105.2230  276.7660 C.2    23  ALA23       0.2591
      4  O        132.3080  104.1470  276.9890 O.2    23  ALA23      -0.2718
      5  CB       131.7310  107.1400  278.3930 C.3    23  ALA23       0.0304
      6  N        130.5530  105.2790  276.1610 N.am   24  MET24      -0.1979
      7  CA       129.8730  104.0310  275.8320 C.3    24  MET24       0.1605
      8  C        130.6370  103.2430  274.7840 C.2    24  MET24       0.2287
      9  O        130.8550  102.0370  274.9480 O.2    24  MET24      -0.2864
     10  CB       128.4410  104.2880  275.3690 C.3    24  MET24       0.0413
     11  CG       127.5030  104.6930  276.5030 C.3    24  MET24       0.0598
     12  SD       125.8560  105.1830  275.9530 S.3    24  MET24      -0.1393
     13  CE       125.1020  103.5900  275.5680 C.3    24  MET24       0.0692
     14  N        133.5550  101.4090  276.0840 N.3    27  TYR27      -0.1241
     15  CA       133.1670  100.1650  276.7340 C.3    27  TYR27       0.1605
     16  C        132.2900   99.2880  275.8450 C.2    27  TYR27       0.2264
     17  O        131.6290   98.3750  276.3460 O.2    27  TYR27      -0.2867
     18  CB       132.4690  100.4600  278.0620 C.3    27  TYR27       0.0534
     19  CG       133.4270  100.9590  279.1240 C.ar   27  TYR27      -0.0201
     20  CD1      134.0280  100.0800  280.0160 C.ar   27  TYR27      -0.0009
     21  CD2      133.7380  102.3080  279.2280 C.ar   27  TYR27      -0.0009
     22  CE1      134.9110  100.5300  280.9860 C.ar   27  TYR27       0.0417
     23  CE2      134.6260  102.7700  280.1910 C.ar   27  TYR27       0.0417
     24  CZ       135.2060  101.8730  281.0690 C.ar   27  TYR27       0.1957
     25  OH       136.0830  102.3250  282.0310 O.3    27  TYR27      -0.2866
     26  N        129.4590   99.7910  273.9050 N.3    29  GLU29      -0.1245
     27  CA       128.0090   99.9090  273.8510 C.3    29  GLU29       0.1567
     28  C        127.6320  101.1170  273.0040 C.2    29  GLU29       0.2260
     29  O        128.3740  102.1000  272.9350 O.2    29  GLU29      -0.2867
     30  CB       127.4070  100.0080  275.2520 C.3    29  GLU29       0.0388
     31  CG       127.4960   98.6860  275.9960 C.3    29  GLU29       0.1160
     32  CD       127.0210   98.7740  277.4260 C.2    29  GLU29       0.3649
     33  OE1      125.8390   99.1110  277.6430 O.co2  29  GLU29      -0.2457
     34  OE2      127.8290   98.4980  278.3360 O.co2  29  GLU29      -0.2457
     35  N        120.6750  103.6800  278.9170 N.3    37  LYS37      -0.1245
     36  CA       122.0010  103.8670  279.4910 C.3    37  LYS37       0.1561
     37  C        122.6210  105.1610  279.0010 C.2    37  LYS37       0.2260
     38  O        123.2790  105.8710  279.7700 O.2    37  LYS37      -0.2867
     39  CB       122.9000  102.6790  279.1490 C.3    37  LYS37       0.0271
     40  CG       123.9340  102.3690  280.2240 C.3    37  LYS37       0.0035
     41  CD       124.8030  101.1860  279.8380 C.3    37  LYS37       0.0206
     42  CE       125.4430  100.5510  281.0660 C.3    37  LYS37       0.1093
     43  NZ       125.7010   99.0880  280.8920 N.3    37  LYS37      -0.1314
     44  N        121.2440  107.7150  281.1780 N.3    40  ALA40      -0.1231
     45  CA       121.8310  107.6120  282.5120 C.3    40  ALA40       0.1694
     46  C        123.2430  108.1800  282.5390 C.2    40  ALA40       0.2591
     47  O        123.6150  108.9160  283.4630 O.2    40  ALA40      -0.2718
     48  CB       121.8350  106.1520  282.9700 C.3    40  ALA40       0.0304
     49  N        124.0520  107.8560  281.5270 N.am   41  ILE41      -0.1980
     50  CA       125.4380  108.3040  281.5460 C.3    41  ILE41       0.1595
     51  C        125.5080  109.8170  281.4470 C.2    41  ILE41       0.2287
     52  O        126.2660  110.4640  282.1840 O.2    41  ILE41      -0.2864
     53  CB       126.2360  107.6100  280.4290 C.3    41  ILE41       0.0276
     54  CG1      126.3700  106.1270  280.7830 C.3    41  ILE41       0.0022
     55  CG2      127.5900  108.2770  280.2440 C.3    41  ILE41       0.0022
     56  CD1      127.4110  105.3880  280.0320 C.3    41  ILE41       0.0001
     57  N        124.4840  111.1790  284.9220 N.3    44  HIS44      -0.1241
     58  CA       125.5810  111.0200  285.8780 C.3    44  HIS44       0.1621
     59  C        126.7000  112.0220  285.5920 C.2    44  HIS44       0.2264
     60  O        127.2630  112.6460  286.5060 O.2    44  HIS44      -0.2867
     61  CB       126.0900  109.5760  285.7870 C.3    44  HIS44       0.0745
     62  CG       127.3370  109.3010  286.5700 C.ar   44  HIS44       0.0817
     63  ND1      128.6090  109.4710  286.0550 N.ar   44  HIS44      -0.2268
     64  CD2      127.4950  108.8270  287.8260 C.ar   44  HIS44       0.1154
     65  CE1      129.4970  109.1400  286.9820 C.ar   44  HIS44       0.1986
     66  NE2      128.8440  108.7450  288.0630 N.ar   44  HIS44      -0.2212
     67  N        135.8210  111.4110  286.4560 N.3    64  GLU64      -0.1245
     68  CA       134.8250  110.9360  285.5120 C.3    64  GLU64       0.1567
     69  C        134.8860  111.7870  284.2480 C.2    64  GLU64       0.2260
     70  O        135.3610  112.9270  284.2650 O.2    64  GLU64      -0.2867
     71  CB       133.4330  110.9770  286.1640 C.3    64  GLU64       0.0388
     72  CG       132.2250  110.6000  285.2930 C.3    64  GLU64       0.1160
     73  CD       132.2880  109.1830  284.7560 C.2    64  GLU64       0.3649
     74  OE1      132.0220  108.2310  285.5240 O.co2  64  GLU64      -0.2457
     75  OE2      132.6090  109.0270  283.5540 O.co2  64  GLU64      -0.2457
     76  N        137.6090  102.9550  289.4700 N.3    90  LEU90      -0.1231
     77  CA       137.7190  104.3830  289.2020 C.3    90  LEU90       0.1678
     78  C        136.6270  105.1550  289.9370 C.2    90  LEU90       0.2434
     79  O        135.4360  104.8610  289.7520 O.2    90  LEU90      -0.2733
     80  CB       137.6340  104.6540  287.7040 C.3    90  LEU90       0.0284
     81  CG       138.9860  104.7340  286.9910 C.3    90  LEU90       0.0019
     82  CD1      138.8040  104.7830  285.4960 C.3    90  LEU90       0.0001
     83  CD2      139.7590  105.9510  287.4810 C.3    90  LEU90       0.0001
     84  N        136.9700  106.1420  290.7620 N.am   91  PRO91      -0.2718
     85  CA       135.9310  107.0050  291.3280 C.3    91  PRO91       0.1535
     86  C        135.6040  108.1490  290.3870 C.2    91  PRO91       0.2598
     87  O        136.1360  108.2100  289.2680 O.2    91  PRO91      -0.2715
     88  CB       136.5700  107.5000  292.6280 C.3    91  PRO91       0.0310
     89  CG       138.0150  107.5840  292.2870 C.3    91  PRO91       0.0237
     90  CD       138.3060  106.4920  291.2730 C.3    91  PRO91       0.0939
     91  N        134.7410  109.0650  290.8280 N.am   92  ASP92      -0.1972
     92  CA       134.3250  110.1650  289.9730 C.3    92  ASP92       0.1709
     93  C        135.0730  111.4570  290.2480 C.2    92  ASP92       0.2293
     94  O        135.3230  112.2170  289.3090 O.2    92  ASP92      -0.2864
     95  CB       132.8140  110.4150  290.0820 C.3    92  ASP92       0.1436
     96  CG       132.0010  109.1870  289.7190 C.2    92  ASP92       0.3671
     97  OD1      132.1090  108.7250  288.5510 O.co2  92  ASP92      -0.2456
     98  OD2      131.2170  108.7140  290.5560 O.co2  92  ASP92      -0.2456
     99  N        132.7460  108.7370  295.0840 N.3   103  GLU103     -0.1231
    100  CA       131.9300  107.9970  294.1310 C.3   103  GLU103      0.1699
    101  C        130.5290  108.5980  294.1540 C.2   103  GLU103      0.2592
    102  O        129.8510  108.5620  295.1890 O.2   103  GLU103     -0.2718
    103  CB       131.8880  106.5090  294.4960 C.3   103  GLU103      0.0402
    104  CG       130.9350  105.6340  293.6640 C.3   103  GLU103      0.1161
    105  CD       130.9320  105.9670  292.1650 C.2   103  GLU103      0.3649
    106  OE1      131.9510  105.7110  291.4980 O.co2 103  GLU103     -0.2457
    107  OE2      129.9100  106.4640  291.6380 O.co2 103  GLU103     -0.2457
    108  N        130.0890  109.1170  293.0150 N.am  104  ILE104     -0.1966
    109  CA       128.8040  109.7930  292.9050 C.3   104  ILE104      0.1727
    110  C        127.8320  108.8480  292.2300 C.2   104  ILE104      0.2617
    111  O        128.1210  108.3190  291.1560 O.2   104  ILE104     -0.2715
    112  CB       128.9220  111.1070  292.1200 C.3   104  ILE104      0.0290
    113  CG1      129.7820  112.1020  292.9070 C.3   104  ILE104      0.0022
    114  CG2      127.5420  111.6640  291.7930 C.3   104  ILE104      0.0023
    115  CD1      129.5990  113.5180  292.4980 C.3   104  ILE104      0.0001
    116  N        126.6740  108.6490  292.8470 N.am  105  GLY105     -0.1940
    117  CA       125.6520  107.7440  292.3370 C.3   105  GLY105      0.2014
    118  C        124.3780  108.4830  292.0290 C.2   105  GLY105      0.2638
    119  O        123.9790  109.4100  292.7540 O.2   105  GLY105     -0.2714
    120  N        123.7390  108.0880  290.9290 N.am  106  VAL106     -0.1977
    121  CA       122.4580  108.6190  290.4910 C.3   106  VAL106      0.1596
    122  C        121.5740  107.4090  290.2230 C.2   106  VAL106      0.2287
    123  O        121.8020  106.6690  289.2570 O.2   106  VAL106     -0.2864
    124  CB       122.5820  109.5020  289.2400 C.3   106  VAL106      0.0276
    125  CG1      121.2230  110.0520  288.8470 C.3   106  VAL106      0.0022
    126  CG2      123.5680  110.6430  289.4800 C.3   106  VAL106      0.0022
    127  N        117.6700  105.4890  289.9590 N.3   108  ARG108     -0.1245
    128  CA       116.2290  105.5390  289.8050 C.3   108  ARG108      0.1563
    129  C        115.5260  104.5830  290.7430 C.2   108  ARG108      0.2260
    130  O        114.3340  104.7720  291.0160 O.2   108  ARG108     -0.2867
    131  CB       115.8270  105.2170  288.3690 C.3   108  ARG108      0.0307
    132  CG       116.6100  104.0930  287.7590 C.3   108  ARG108      0.0489
    133  CD       116.9050  104.4230  286.3190 C.3   108  ARG108      0.2205
    134  NE       118.0350  103.6530  285.7840 N.pl3 108  ARG108     -0.0865
    135  CZ       118.4330  103.6830  284.5110 C.cat 108  ARG108      0.5346
    136  NH1      117.7800  104.4390  283.6490 N.pl3 108  ARG108      0.1354
    137  NH2      119.4680  102.9500  284.0880 N.pl3 108  ARG108      0.1354
    138  N        120.8190  101.1880  296.6920 N.3   114  TYR114     -0.1241
    139  CA       121.8840  101.5380  295.7610 C.3   114  TYR114      0.1605
    140  C        123.2040  101.7080  296.5050 C.2   114  TYR114      0.2264
    141  O        124.2210  101.1300  296.1040 O.2   114  TYR114     -0.2867
    142  CB       121.5170  102.8010  294.9740 C.3   114  TYR114      0.0534
    143  CG       122.2900  102.9960  293.6650 C.ar  114  TYR114     -0.0201
    144  CD1      122.3340  101.9940  292.7000 C.ar  114  TYR114     -0.0009
    145  CD2      122.9490  104.1880  293.3930 C.ar  114  TYR114     -0.0009
    146  CE1      123.0280  102.1690  291.5060 C.ar  114  TYR114      0.0417
    147  CE2      123.6440  104.3700  292.2010 C.ar  114  TYR114      0.0417
    148  CZ       123.6800  103.3580  291.2660 C.ar  114  TYR114      0.1957
    149  OH       124.3720  103.5520  290.0820 O.3   114  TYR114     -0.2866
    150  N        126.6610   99.6440  295.8820 N.3   118  LYS118     -0.1245
    151  CA       127.8790  100.3770  295.5680 C.3   118  LYS118      0.1561
    152  C        128.8740  100.3350  296.7270 C.2   118  LYS118      0.2260
    153  O        130.0860  100.4250  296.5070 O.2   118  LYS118     -0.2867
    154  CB       127.5290  101.8120  295.1640 C.3   118  LYS118      0.0271
    155  CG       126.9910  101.9590  293.7090 C.3   118  LYS118      0.0035
    156  CD       127.8180  102.9930  292.9150 C.3   118  LYS118      0.0206
    157  CE       127.0450  103.7510  291.8190 C.3   118  LYS118      0.1093
    158  NZ       126.7000  102.9430  290.6040 N.3   118  LYS118     -0.1314
    159  N        130.3190   96.8010  296.3450 N.3   121  LYS121     -0.1245
    160  CA       131.1960   96.7390  295.1790 C.3   121  LYS121      0.1561
    161  C        132.5190   97.4450  295.4470 C.2   121  LYS121      0.2260
    162  O        133.5840   96.9200  295.1070 O.2   121  LYS121     -0.2867
    163  CB       130.5050   97.3500  293.9540 C.3   121  LYS121      0.0271
    164  CG       131.2970   97.2220  292.6510 C.3   121  LYS121      0.0035
    165  CD       130.6070   97.9340  291.4880 C.3   121  LYS121      0.0206
    166  CE       129.1280   97.5770  291.4080 C.3   121  LYS121      0.1093
    167  NZ       128.5480   97.8220  290.0610 N.3   121  LYS121     -0.1314
    168  N        117.1710   99.9890  285.1120 N.3   179  GLU179     -0.1245
    169  CA       118.1920   99.6260  286.0920 C.3   179  GLU179      0.1567
    170  C        117.9720   98.2040  286.6100 C.2   179  GLU179      0.2260
    171  O        116.8370   97.7780  286.8270 O.2   179  GLU179     -0.2867
    172  CB       118.1990  100.6150  287.2620 C.3   179  GLU179      0.0388
    173  CG       119.3480  100.4080  288.2390 C.3   179  GLU179      0.1160
    174  CD       119.5840  101.6100  289.1320 C.2   179  GLU179      0.3649
    175  OE1      119.2240  102.7350  288.7340 O.co2 179  GLU179     -0.2457
    176  OE2      120.1410  101.4310  290.2330 O.co2 179  GLU179     -0.2457
@<TRIPOS>BOND
     1    29    28    2
     2    28    27    1
     3    27    26    1
     4    27    30    1
     5     8     9    2
     6     8     7    1
     7    30    31    1
     8    10     7    1
     9    10    11    1
    10    13    12    1
    11     7     6    1
    12    16    17    2
    13    16    15    1
    14    12    11    1
    15    31    32    1
    16     1     2    1
    17    14    15    1
    18     6     3   am
    19    15    18    1
    20     3     4    2
    21     3     2    1
    22     2     5    1
    23    32    33   ar
    24    32    34   ar
    25    18    19    1
    26    35    36    1
    27    37    36    1
    28    37    38    2
    29    19    21   ar
    30    19    20   ar
    31    39    36    1
    32    39    40    1
    33    21    23   ar
    34    41    40    1
    35    41    42    1
    36    20    22   ar
    37    56    54    1
    38    23    24   ar
    39    55    53    1
    40    53    54    1
    41    53    50    1
    42    43    42    1
    43    22    24   ar
    44    24    25    1
    45    44    45    1
    46    51    50    1
    47    51    52    2
    48    49    50    1
    49    49    46   am
    50    45    46    1
    51    45    48    1
    52    46    47    2
    53    75    73   ar
    54   136   135    1
    55   137   135    1
    56    69    70    2
    57    69    68    1
    58   135   134    2
    59    73    72    1
    60    73    74   ar
    61    57    58    1
    62   168   169    1
    63    72    71    1
    64    82    81    1
    65    68    71    1
    66    68    67    1
    67    59    58    1
    68    59    60    2
    69   134   133    1
    70    61    58    1
    71    61    62    1
    72    63    62   ar
    73    63    65   ar
    74   169   170    1
    75   169   172    1
    76   133   132    1
    77    62    64   ar
    78   170   171    2
    79    65    66   ar
    80    81    83    1
    81    81    80    1
    82   172   173    1
    83    80    77    1
    84   132   131    1
    85    64    66   ar
    86   173   174    1
    87   131   128    1
    88    97    96   ar
    89   175   174   ar
    90   125   124    1
    91   174   176   ar
    92    77    76    1
    93    77    78    1
    94   124   126    1
    95   124   121    1
    96   123   122    2
    97    87    86    2
    98    94    93    2
    99    96    95    1
   100    96    98   ar
   101    79    78    2
   102   128   127    1
   103   128   129    1
   104    78    84   am
   105    92    95    1
   106    92    93    1
   107    92    91    1
   108   167   166    1
   109   149   148    1
   110   122   121    1
   111    86    91   am
   112    86    85    1
   113   121   120    1
   114   158   157    1
   115   129   130    2
   116    84    90    1
   117    84    85    1
   118   120   118   am
   119   111   110    2
   120   148   146   ar
   121   148   147   ar
   122    90    89    1
   123    85    88    1
   124   166   165    1
   125   165   164    1
   126   106   105   ar
   127   146   144   ar
   128   107   105   ar
   129   114   112    1
   130   157   156    1
   131   118   117    1
   132   118   119    2
   133   112   109    1
   134   112   113    1
   135   105   104    1
   136   147   145   ar
   137   110   116   am
   138   110   109    1
   139    89    88    1
   140   117   116    1
   141   115   113    1
   142   164   163    1
   143   144   143   ar
   144   109   108    1
   145   156   155    1
   146   108   101   am
   147   145   143   ar
   148   104   103    1
   149   143   142    1
   150   155   154    1
   151   163   160    1
   152   100   101    1
   153   100   103    1
   154   100    99    1
   155   101   102    2
   156   142   139    1
   157   162   161    2
   158   154   151    1
   159   160   161    1
   160   160   159    1
   161   151   150    1
   162   151   152    1
   163   139   140    1
   164   139   138    1
   165   141   140    2
   166   153   152    2
