@<TRIPOS>MOLECULE
tmp/5w75C00.pdb
 144 140 0 0 0
SMALL
GASTEIGER

@<TRIPOS>ATOM
      1  N         27.0040   35.9430  -31.0500 N.3    13  VAL13      -0.1231
      2  CA        27.4710   36.8270  -32.1110 C.3    13  VAL13       0.1692
      3  C         26.6740   38.1280  -32.0970 C.2    13  VAL13       0.2592
      4  O         25.4800   38.1490  -31.7650 O.2    13  VAL13      -0.2718
      5  CB        27.3680   36.1160  -33.4720 C.3    13  VAL13       0.0266
      6  CG1       25.9200   35.7520  -33.7790 C.3    13  VAL13       0.0020
      7  CG2       27.9650   36.9700  -34.5890 C.3    13  VAL13       0.0020
      8  N         27.3520   39.2290  -32.4290 N.am   14  ASP14      -0.1960
      9  CA        26.8020   40.5790  -32.5290 C.3    14  ASP14       0.1840
     10  C         26.3600   41.1540  -31.1910 C.2    14  ASP14       0.2622
     11  O         25.7390   42.2260  -31.1660 O.2    14  ASP14      -0.2715
     12  CB        25.6330   40.6520  -33.5180 C.3    14  ASP14       0.1450
     13  CG        26.0840   40.5040  -34.9540 C.2    14  ASP14       0.3671
     14  OD1       27.1730   41.0180  -35.2870 O.co2  14  ASP14      -0.2456
     15  OD2       25.3570   39.8700  -35.7470 O.co2  14  ASP14      -0.2456
     16  N         26.6740   40.4970  -30.0750 N.am   15  HIS15      -0.1959
     17  CA        26.3060   41.0480  -28.7760 C.3    15  HIS15       0.1787
     18  C         27.2730   42.1190  -28.2820 C.2    15  HIS15       0.2621
     19  O         26.9650   42.8000  -27.2970 O.2    15  HIS15      -0.2715
     20  CB        26.1830   39.9260  -27.7440 C.3    15  HIS15       0.0785
     21  CG        24.8670   39.2140  -27.7930 C.ar   15  HIS15       0.0821
     22  ND1       24.2940   38.6230  -26.6880 N.ar   15  HIS15      -0.2267
     23  CD2       24.0080   39.0050  -28.8190 C.ar   15  HIS15       0.1154
     24  CE1       23.1420   38.0760  -27.0320 C.ar   15  HIS15       0.1986
     25  NE2       22.9450   38.2920  -28.3200 N.ar   15  HIS15      -0.2212
     26  N         28.4130   42.2960  -28.9320 N.am   16  GLY16      -0.1940
     27  CA        29.3100   43.3870  -28.6340 C.3    16  GLY16       0.2014
     28  C         30.6610   43.0160  -28.0530 C.2    16  GLY16       0.2639
     29  O         31.2780   43.8630  -27.3920 O.2    16  GLY16      -0.2714
     30  N         31.1440   41.7940  -28.2860 N.am   17  LYS17      -0.1963
     31  CA        32.4180   41.3720  -27.7110 C.3    17  LYS17       0.1728
     32  C         33.5690   42.2230  -28.2350 C.2    17  LYS17       0.2617
     33  O         34.4100   42.6990  -27.4640 O.2    17  LYS17      -0.2715
     34  CB        32.6570   39.8900  -28.0080 C.3    17  LYS17       0.0311
     35  CG        31.5630   38.9680  -27.4810 C.3    17  LYS17       0.0038
     36  CD        31.8460   37.5000  -27.8040 C.3    17  LYS17       0.0206
     37  CE        31.7230   37.2050  -29.2860 C.3    17  LYS17       0.1093
     38  NZ        30.3520   37.4480  -29.8200 N.3    17  LYS17      -0.1314
     39  N         33.6170   42.4390  -29.5480 N.am   18  SER18      -0.1936
     40  CA        34.7270   43.1940  -30.1170 C.3    18  SER18       0.2055
     41  C         34.6300   44.6720  -29.7680 C.2    18  SER18       0.2643
     42  O         35.6480   45.3180  -29.5010 O.2    18  SER18      -0.2714
     43  CB        34.7700   42.9940  -31.6260 C.3    18  SER18       0.2130
     44  OG        35.0120   41.6330  -31.9180 O.3    18  SER18      -0.2179
     45  N         33.4160   45.2260  -29.7660 N.am   19  THR19      -0.1950
     46  CA        33.2520   46.6220  -29.3770 C.3    19  THR19       0.1897
     47  C         33.7120   46.8430  -27.9430 C.2    19  THR19       0.2313
     48  O         34.3870   47.8340  -27.6430 O.2    19  THR19      -0.2863
     49  CB        31.7930   47.0480  -29.5510 C.3    19  THR19       0.1794
     50  OG1       31.3940   46.8380  -30.9110 O.3    19  THR19      -0.2208
     51  CG2       31.6130   48.5210  -29.1910 C.3    19  THR19       0.0378
     52  N         38.0960   49.3610  -33.1790 N.3    39  TYR39      -0.1241
     53  CA        37.1810   48.2340  -33.3430 C.3    39  TYR39       0.1605
     54  C         37.5020   47.4180  -34.5890 C.2    39  TYR39       0.2264
     55  O         37.5630   46.1840  -34.5370 O.2    39  TYR39      -0.2867
     56  CB        35.7410   48.7490  -33.4040 C.3    39  TYR39       0.0534
     57  CG        34.7440   47.7350  -33.9220 C.ar   39  TYR39      -0.0201
     58  CD1       34.1940   46.7830  -33.0740 C.ar   39  TYR39      -0.0009
     59  CD2       34.3430   47.7390  -35.2530 C.ar   39  TYR39      -0.0009
     60  CE1       33.2800   45.8560  -33.5370 C.ar   39  TYR39       0.0417
     61  CE2       33.4300   46.8150  -35.7250 C.ar   39  TYR39       0.0417
     62  CZ        32.9010   45.8760  -34.8640 C.ar   39  TYR39       0.1957
     63  OH        31.9910   44.9560  -35.3320 O.3    39  TYR39      -0.2866
     64  N         38.0910   43.5700  -34.9420 N.3    43  ASP43      -0.1239
     65  CA        37.0950   42.7600  -35.6300 C.3    43  ASP43       0.1674
     66  C         37.7420   41.8210  -36.6360 C.2    43  ASP43       0.2266
     67  O         37.3250   40.6630  -36.7600 O.2    43  ASP43      -0.2867
     68  CB        36.0740   43.6670  -36.3140 C.3    43  ASP43       0.1410
     69  CG        34.8890   42.9030  -36.8600 C.2    43  ASP43       0.3668
     70  OD1       34.5180   41.8740  -36.2620 O.co2  43  ASP43      -0.2456
     71  OD2       34.3240   43.3350  -37.8850 O.co2  43  ASP43      -0.2456
     72  N         39.8060   37.6770  -28.2590 N.3    73  ASP73      -0.1225
     73  CA        38.4890   37.9550  -28.8120 C.3    73  ASP73       0.1805
     74  C         38.4100   37.2730  -30.1710 C.2    73  ASP73       0.2598
     75  O         39.3750   37.3050  -30.9400 O.2    73  ASP73      -0.2718
     76  CB        38.2530   39.4700  -28.9300 C.3    73  ASP73       0.1424
     77  CG        36.8990   39.8170  -29.5260 C.2    73  ASP73       0.3668
     78  OD1       35.8660   39.4120  -28.9500 O.co2  73  ASP73      -0.2456
     79  OD2       36.8690   40.5060  -30.5710 O.co2  73  ASP73      -0.2456
     80  N         37.2750   36.6350  -30.4570 N.am   74  CYS74      -0.1957
     81  CA        37.1530   35.8630  -31.6870 C.3    74  CYS74       0.1828
     82  C         35.9390   36.3030  -32.4940 C.2    74  CYS74       0.2467
     83  O         34.8970   36.6520  -31.9240 O.2    74  CYS74      -0.2730
     84  CB        37.0450   34.3610  -31.3920 C.3    74  CYS74       0.0996
     85  SG        38.4270   33.6860  -30.4610 S.3    74  CYS74      -0.0797
     86  N         36.0410   36.2840  -33.8250 N.am   75  PRO75      -0.2726
     87  CA        34.8850   36.6840  -34.6430 C.3    75  PRO75       0.1402
     88  C         33.7630   35.6650  -34.6370 C.2    75  PRO75       0.2269
     89  O         32.5940   36.0410  -34.4860 O.2    75  PRO75      -0.2865
     90  CB        35.4850   36.8460  -36.0500 C.3    75  PRO75       0.0296
     91  CG        36.9720   36.8330  -35.8640 C.3    75  PRO75       0.0237
     92  CD        37.2270   36.0070  -34.6460 C.3    75  PRO75       0.0939
     93  N         25.5170   44.2190  -22.1780 N.3   128  ASN128     -0.1225
     94  CA        25.8250   45.2640  -23.1390 C.3   128  ASN128      0.1785
     95  C         24.5460   45.8320  -23.7460 C.2   128  ASN128      0.2597
     96  O         23.4430   45.3240  -23.5320 O.2   128  ASN128     -0.2718
     97  CB        26.7520   44.7140  -24.2290 C.3   128  ASN128      0.1169
     98  CG        27.4180   45.8070  -25.0330 C.2   128  ASN128      0.2627
     99  OD1       27.7170   46.8830  -24.5110 O.2   128  ASN128     -0.2716
    100  ND2       27.6410   45.5450  -26.3160 N.am  128  ASN128     -0.0877
    101  N         24.7140   46.9170  -24.5040 N.am  129  LYS129     -0.1980
    102  CA        23.6310   47.5500  -25.2570 C.3   129  LYS129      0.1596
    103  C         22.5080   48.0440  -24.3470 C.2   129  LYS129      0.2287
    104  O         21.3440   48.0930  -24.7510 O.2   129  LYS129     -0.2864
    105  CB        23.0800   46.6090  -26.3340 C.3   129  LYS129      0.0298
    106  CG        24.1510   46.0860  -27.2810 C.3   129  LYS129      0.0038
    107  CD        23.5500   45.4150  -28.5030 C.3   129  LYS129      0.0206
    108  CE        24.6300   44.8370  -29.4040 C.3   129  LYS129      0.1093
    109  NZ        24.1010   44.4760  -30.7480 N.3   129  LYS129     -0.1314
    110  N         22.0580   50.9750  -23.6910 N.3   131  ASP131     -0.1225
    111  CA        21.5770   52.1750  -24.3640 C.3   131  ASP131      0.1805
    112  C         20.3550   51.9050  -25.2320 C.2   131  ASP131      0.2597
    113  O         19.6640   52.8540  -25.6160 O.2   131  ASP131     -0.2718
    114  CB        22.6910   52.7730  -25.2280 C.3   131  ASP131      0.1424
    115  CG        23.1930   51.8010  -26.2870 C.2   131  ASP131      0.3668
    116  OD1       23.7510   50.7480  -25.9120 O.co2 131  ASP131     -0.2456
    117  OD2       23.0240   52.0820  -27.4940 O.co2 131  ASP131     -0.2456
    118  N         20.0750   50.6420  -25.5550 N.am  132  MET132     -0.1979
    119  CA        18.9770   50.2970  -26.4470 C.3   132  MET132      0.1605
    120  C         17.6850   49.9450  -25.7210 C.2   132  MET132      0.2287
    121  O         16.6480   49.8060  -26.3760 O.2   132  MET132     -0.2864
    122  CB        19.3740   49.1250  -27.3460 C.3   132  MET132      0.0413
    123  CG        20.5090   49.4380  -28.2840 C.3   132  MET132      0.0598
    124  SD        20.0970   50.8240  -29.3510 S.3   132  MET132     -0.1393
    125  CE        18.7630   50.1090  -30.3060 C.3   132  MET132      0.0692
    126  N         27.2010   50.2450  -21.9580 N.3   166  SER166     -0.1202
    127  CA        27.1630   50.2770  -23.4160 C.3   166  SER166      0.2020
    128  C         28.5910   50.3770  -23.9320 C.2   166  SER166      0.2619
    129  O         29.2390   51.4180  -23.7780 O.2   166  SER166     -0.2717
    130  CB        26.3170   51.4430  -23.9260 C.3   166  SER166      0.2103
    131  OG        26.4610   51.5890  -25.3280 O.3   166  SER166     -0.2182
    132  N         29.0800   49.2940  -24.5380 N.am  167  ALA167     -0.1965
    133  CA        30.4150   49.3180  -25.1220 C.3   167  ALA167      0.1728
    134  C         30.5110   50.3370  -26.2480 C.2   167  ALA167      0.2616
    135  O         31.5650   50.9540  -26.4420 O.2   167  ALA167     -0.2715
    136  CB        30.7880   47.9250  -25.6280 C.3   167  ALA167      0.0334
    137  N         29.4220   50.5340  -26.9930 N.am  168  LEU168     -0.1977
    138  CA        29.4420   51.4760  -28.1060 C.3   168  LEU168      0.1596
    139  C         29.5780   52.9110  -27.6130 C.2   168  LEU168      0.2287
    140  O         30.3780   53.6880  -28.1470 O.2   168  LEU168     -0.2864
    141  CB        28.1780   51.3150  -28.9460 C.3   168  LEU168      0.0297
    142  CG        28.0670   52.1950  -30.1890 C.3   168  LEU168      0.0022
    143  CD1       29.1850   51.8750  -31.1710 C.3   168  LEU168      0.0001
    144  CD2       26.7090   52.0100  -30.8360 C.3   168  LEU168      0.0001
@<TRIPOS>BOND
     1    71    69   ar
     2    69    68    1
     3    69    70   ar
     4    67    66    2
     5    66    65    1
     6    68    65    1
     7    90    91    1
     8    90    87    1
     9    91    92    1
    10    15    13   ar
    11    61    59   ar
    12    61    62   ar
    13    65    64    1
    14    63    62    1
    15    14    13   ar
    16    59    57   ar
    17    13    12    1
    18    62    60   ar
    19    92    86    1
    20    87    88    1
    21    87    86    1
    22    88    89    2
    23     7     5    1
    24    54    55    2
    25    54    53    1
    26    57    56    1
    27    57    58   ar
    28    86    82   am
    29     6     5    1
    30    60    58   ar
    31    12     9    1
    32     5     2    1
    33    56    53    1
    34    53    52    1
    35     9     8    1
    36     9    10    1
    37    82    83    2
    38    82    81    1
    39     8     3   am
    40     2     3    1
    41     2     1    1
    42     3     4    2
    43    44    43    1
    44    81    84    1
    45    81    80    1
    46    43    40    1
    47    84    85    1
    48    10    11    2
    49    10    16   am
    50   143   142    1
    51    75    74    2
    52    50    49    1
    53   144   142    1
    54   109   108    1
    55    79    77   ar
    56    80    74   am
    57   125   124    1
    58   142   141    1
    59    74    73    1
    60    40    41    1
    61    40    39    1
    62    16    17    1
    63    38    37    1
    64    41    45   am
    65    41    42    2
    66    45    46    1
    67    49    46    1
    68    49    51    1
    69    39    32   am
    70    77    78   ar
    71    77    76    1
    72   108   107    1
    73    46    47    1
    74   124   123    1
    75    37    36    1
    76   141   138    1
    77    26    27    1
    78    26    18   am
    79    76    73    1
    80    23    25   ar
    81    23    21   ar
    82    73    72    1
    83    17    18    1
    84    17    20    1
    85    27    28    1
    86   107   106    1
    87    25    24   ar
    88    30    28   am
    89    30    31    1
    90   123   122    1
    91    18    19    2
    92    32    31    1
    93    32    33    2
    94   140   139    2
    95   138   139    1
    96   138   137    1
    97    28    29    2
    98    34    31    1
    99    34    35    1
   100    47    48    2
   101    36    35    1
   102    21    20    1
   103    21    22   ar
   104   117   115   ar
   105   122   119    1
   106   106   105    1
   107    24    22   ar
   108   137   134   am
   109   119   120    1
   110   119   118    1
   111   135   134    2
   112   121   120    2
   113   105   102    1
   114   100    98   am
   115   115   116   ar
   116   115   114    1
   117   134   133    1
   118   136   133    1
   119   113   112    2
   120   118   112   am
   121   131   130    1
   122   102   101    1
   123   102   103    1
   124   112   111    1
   125   114   111    1
   126   133   132    1
   127    98    99    2
   128    98    97    1
   129   104   103    2
   130   132   128   am
   131   101    95   am
   132   111   110    1
   133    97    94    1
   134   128   129    2
   135   128   127    1
   136   130   127    1
   137    95    96    2
   138    95    94    1
   139   127   126    1
   140    94    93    1
