@<TRIPOS>MOLECULE
tmp/5w75C01.pdb
 102 97 0 0 0
SMALL
GASTEIGER

@<TRIPOS>ATOM
      1  N         66.3050    4.1910  -19.7200 N.3   211  PHE211     -0.1241
      2  CA        67.5320    3.4590  -19.9880 C.3   211  PHE211      0.1605
      3  C         68.2400    3.1790  -18.6730 C.2   211  PHE211      0.2264
      4  O         67.9810    3.8190  -17.6510 O.2   211  PHE211     -0.2867
      5  CB        68.4510    4.2040  -20.9680 C.3   211  PHE211      0.0534
      6  CG        69.0610    5.4580  -20.4150 C.ar  211  PHE211     -0.0203
      7  CD1       68.3480    6.6500  -20.4080 C.ar  211  PHE211     -0.0042
      8  CD2       70.3580    5.4540  -19.9280 C.ar  211  PHE211     -0.0042
      9  CE1       68.9110    7.8080  -19.9090 C.ar  211  PHE211     -0.0003
     10  CE2       70.9330    6.6120  -19.4260 C.ar  211  PHE211     -0.0003
     11  CZ        70.2060    7.7900  -19.4110 C.ar  211  PHE211     -0.0000
     12  N         71.7780    2.6800  -16.5190 N.3   213  ILE213     -0.1245
     13  CA        73.2020    2.9310  -16.3430 C.3   213  ILE213      0.1561
     14  C         73.7410    1.8370  -15.4390 C.2   213  ILE213      0.2260
     15  O         73.4670    1.8210  -14.2330 O.2   213  ILE213     -0.2867
     16  CB        73.4690    4.3200  -15.7590 C.3   213  ILE213      0.0252
     17  CG1       72.9160    5.3840  -16.7020 C.3   213  ILE213      0.0019
     18  CG2       74.9650    4.5090  -15.5070 C.3   213  ILE213      0.0019
     19  CD1       72.9300    6.7620  -16.1210 C.3   213  ILE213      0.0001
     20  N         74.6290    2.0180  -11.6140 N.3   216  ARG216     -0.1245
     21  CA        73.9350    3.0950  -10.9220 C.3   216  ARG216      0.1563
     22  C         72.4320    2.8360  -10.8360 C.2   216  ARG216      0.2260
     23  O         71.8570    2.8970   -9.7470 O.2   216  ARG216     -0.2867
     24  CB        74.2080    4.4400  -11.5970 C.3   216  ARG216      0.0307
     25  CG        74.0990    5.6030  -10.6270 C.3   216  ARG216      0.0489
     26  CD        75.0530    6.7360  -10.9680 C.3   216  ARG216      0.2205
     27  NE        74.7960    7.3010  -12.2880 N.pl3 216  ARG216     -0.0865
     28  CZ        73.9470    8.2980  -12.5220 C.cat 216  ARG216      0.5346
     29  NH1       73.2600    8.8380  -11.5260 N.pl3 216  ARG216      0.1354
     30  NH2       73.7800    8.7530  -13.7560 N.pl3 216  ARG216      0.1354
     31  N         67.2360    5.0490  -15.2780 N.3   219  VAL219     -0.1245
     32  CA        67.0100    6.4750  -15.4890 C.3   219  VAL219      0.1561
     33  C         65.8110    6.6480  -16.4110 C.2   219  VAL219      0.2260
     34  O         65.7320    6.0080  -17.4660 O.2   219  VAL219     -0.2867
     35  CB        68.2540    7.1630  -16.0790 C.3   219  VAL219      0.0252
     36  CG1       67.9560    8.6180  -16.3910 C.3   219  VAL219      0.0019
     37  CG2       69.4230    7.0470  -15.1190 C.3   219  VAL219      0.0019
     38  N         63.6930    9.7410  -18.4410 N.3   221  THR221     -0.1218
     39  CA        63.8230   11.1200  -18.8800 C.3   221  THR221      0.1862
     40  C         62.4810   11.6380  -19.3750 C.2   221  THR221      0.2287
     41  O         61.6350   10.8750  -19.8540 O.2   221  THR221     -0.2866
     42  CB        64.8730   11.2840  -19.9940 C.3   221  THR221      0.1770
     43  OG1       64.4780   10.5320  -21.1480 O.3   221  THR221     -0.2211
     44  CG2       66.2490   10.8260  -19.5240 C.3   221  THR221      0.0375
     45  N         69.1670   15.1510  -13.2680 N.3   252  GLU252     -0.1231
     46  CA        70.2300   15.6650  -14.1180 C.3   252  GLU252      0.1699
     47  C         69.6620   16.2810  -15.3850 C.2   252  GLU252      0.2592
     48  O         68.7050   15.7660  -15.9730 O.2   252  GLU252     -0.2718
     49  CB        71.2350   14.5650  -14.4740 C.3   252  GLU252      0.0402
     50  CG        71.9710   14.0180  -13.2620 C.3   252  GLU252      0.1161
     51  CD        72.5380   12.6330  -13.4860 C.2   252  GLU252      0.3649
     52  OE1       71.8050   11.6450  -13.2580 O.co2 252  GLU252     -0.2457
     53  OE2       73.7170   12.5290  -13.8840 O.co2 252  GLU252     -0.2457
     54  N         70.2700   17.3900  -15.7960 N.am  253  MET253     -0.1965
     55  CA        69.8900   18.0920  -17.0120 C.3   253  MET253      0.1736
     56  C         71.1350   18.7610  -17.5680 C.2   253  MET253      0.2616
     57  O         71.8670   19.4160  -16.8210 O.2   253  MET253     -0.2715
     58  CB        68.7970   19.1270  -16.7330 C.3   253  MET253      0.0427
     59  CG        68.4550   20.0040  -17.9200 C.3   253  MET253      0.0599
     60  SD        67.2110   21.2360  -17.4990 S.3   253  MET253     -0.1393
     61  CE        68.1680   22.3530  -16.4740 C.3   253  MET253      0.0692
     62  N         71.3720   18.5840  -18.8680 N.am  254  PHE254     -0.1960
     63  CA        72.5500   19.1300  -19.5370 C.3   254  PHE254      0.1771
     64  C         73.8300   18.7020  -18.8200 C.2   254  PHE254      0.2619
     65  O         74.7240   19.5080  -18.5500 O.2   254  PHE254     -0.2715
     66  CB        72.4620   20.6540  -19.6480 C.3   254  PHE254      0.0574
     67  CG        71.2570   21.1360  -20.4060 C.ar  254  PHE254     -0.0200
     68  CD1       70.7300   20.3860  -21.4430 C.ar  254  PHE254     -0.0042
     69  CD2       70.6490   22.3360  -20.0770 C.ar  254  PHE254     -0.0042
     70  CE1       69.6210   20.8260  -22.1410 C.ar  254  PHE254     -0.0003
     71  CE2       69.5390   22.7810  -20.7720 C.ar  254  PHE254     -0.0003
     72  CZ        69.0240   22.0260  -21.8030 C.ar  254  PHE254     -0.0000
     73  N         73.8950   17.4090  -18.4930 N.am  255  ARG255     -0.1977
     74  CA        75.0640   16.7610  -17.9020 C.3   255  ARG255      0.1597
     75  C         75.3960   17.2650  -16.5010 C.2   255  ARG255      0.2287
     76  O         76.5320   17.1100  -16.0470 O.2   255  ARG255     -0.2864
     77  CB        76.3000   16.9150  -18.7940 C.3   255  ARG255      0.0334
     78  CG        76.1130   16.4720  -20.2260 C.3   255  ARG255      0.0492
     79  CD        77.4330   16.5480  -20.9610 C.3   255  ARG255      0.2205
     80  NE        77.2830   16.2720  -22.3830 N.pl3 255  ARG255     -0.0865
     81  CZ        78.2990   16.1910  -23.2330 C.cat 255  ARG255      0.5346
     82  NH1       79.5410   16.3660  -22.7990 N.pl3 255  ARG255      0.1354
     83  NH2       78.0740   15.9370  -24.5130 N.pl3 255  ARG255      0.1354
     84  N         63.8600   19.4920  -19.1600 N.3   266  ASN266     -0.1225
     85  CA        64.0160   18.1280  -19.6530 C.3   266  ASN266      0.1785
     86  C         65.0970   17.4630  -18.8070 C.2   266  ASN266      0.2597
     87  O         66.2740   17.8240  -18.8980 O.2   266  ASN266     -0.2718
     88  CB        64.3820   18.1330  -21.1350 C.3   266  ASN266      0.1169
     89  CG        64.4320   16.7370  -21.7310 C.2   266  ASN266      0.2627
     90  OD1       63.6020   15.8820  -21.4180 O.2   266  ASN266     -0.2716
     91  ND2       65.4140   16.5000  -22.5940 N.am  266  ASN266     -0.0877
     92  N         64.7020   16.5070  -17.9640 N.am  267  VAL267     -0.1966
     93  CA        65.5980   15.9670  -16.9510 C.3   267  VAL267      0.1727
     94  C         65.6540   14.4510  -17.0430 C.2   267  VAL267      0.2616
     95  O         64.7760   13.8010  -17.6110 O.2   267  VAL267     -0.2715
     96  CB        65.1770   16.3810  -15.5230 C.3   267  VAL267      0.0290
     97  CG1       65.1020   17.8920  -15.4070 C.3   267  VAL267      0.0023
     98  CG2       63.8420   15.7410  -15.1620 C.3   267  VAL267      0.0023
     99  N         66.7100   13.8920  -16.4570 N.am  268  GLY268     -0.1955
    100  CA        66.7920   12.4650  -16.2140 C.3   268  GLY268      0.1869
    101  C         66.7280   12.1610  -14.7290 C.2   268  GLY268      0.2309
    102  O         67.4710   12.7570  -13.9400 O.2   268  GLY268     -0.2863
@<TRIPOS>BOND
     1    83    81    1
     2    81    82    1
     3    81    80    2
     4    91    89   am
     5    80    79    1
     6    70    72   ar
     7    70    68   ar
     8    72    71   ar
     9    89    90    2
    10    89    88    1
    11    68    67   ar
    12    43    42    1
    13    88    85    1
    14     5     6    1
    15     5     2    1
    16    79    78    1
    17    71    69   ar
    18     6     7   ar
    19     6     8   ar
    20     7     9   ar
    21    67    69   ar
    22    67    66    1
    23    78    77    1
    24    42    44    1
    25    42    39    1
    26     2     1    1
    27     2     3    1
    28     8    10   ar
    29     9    11   ar
    30    41    40    2
    31    85    84    1
    32    85    86    1
    33    66    63    1
    34    63    62    1
    35    63    64    1
    36    10    11   ar
    37    40    39    1
    38    87    86    2
    39    39    38    1
    40    62    56   am
    41    64    65    2
    42    64    73   am
    43    86    92   am
    44    77    74    1
    45     3     4    2
    46    73    74    1
    47    92    93    1
    48    59    60    1
    49    59    58    1
    50    74    75    1
    51    95    94    2
    52    56    55    1
    53    56    57    2
    54    60    61    1
    55    34    33    2
    56    94    93    1
    57    94    99   am
    58    55    58    1
    59    55    54    1
    60    93    96    1
    61    17    19    1
    62    17    16    1
    63    12    13    1
    64    75    76    2
    65    99   100    1
    66    33    32    1
    67    36    35    1
    68    13    16    1
    69    13    14    1
    70   100   101    1
    71    35    32    1
    72    35    37    1
    73    48    47    2
    74    54    47   am
    75    16    18    1
    76    96    97    1
    77    96    98    1
    78    32    31    1
    79    14    15    2
    80    47    46    1
    81   101   102    2
    82    49    46    1
    83    49    50    1
    84    46    45    1
    85    53    51   ar
    86    30    28    1
    87    51    50    1
    88    51    52   ar
    89    28    27    2
    90    28    29    1
    91    27    26    1
    92    20    21    1
    93    24    21    1
    94    24    25    1
    95    26    25    1
    96    21    22    1
    97    22    23    2
