@<TRIPOS>MOLECULE
tmp/5w78A01.pdb
 75 67 0 0 0
SMALL
GASTEIGER

@<TRIPOS>ATOM
      1  N         67.9560  113.7960   17.8560 N.3    13  VAL13      -0.1245
      2  CA        67.9300  114.7900   16.7890 C.3    13  VAL13       0.1561
      3  C         69.1320  115.7170   16.8900 C.2    13  VAL13       0.2260
      4  O         69.7730  116.0350   15.8830 O.2    13  VAL13      -0.2867
      5  CB        66.6050  115.5690   16.8270 C.3    13  VAL13       0.0252
      6  CG1       66.6750  116.7910   15.9390 C.3    13  VAL13       0.0019
      7  CG2       65.4520  114.6610   16.4160 C.3    13  VAL13       0.0019
      8  N         72.0540  116.4090   14.1150 N.3    17  ILE17      -0.1245
      9  CA        72.3850  117.7540   13.6610 C.3    17  ILE17       0.1561
     10  C         73.8680  118.0280   13.8830 C.2    17  ILE17       0.2260
     11  O         74.5670  118.5380   13.0010 O.2    17  ILE17      -0.2867
     12  CB        71.4940  118.7800   14.3800 C.3    17  ILE17       0.0252
     13  CG1       70.0360  118.6010   13.9400 C.3    17  ILE17       0.0019
     14  CG2       71.9670  120.1900   14.1020 C.3    17  ILE17       0.0019
     15  CD1       69.0380  119.4130   14.7730 C.3    17  ILE17       0.0001
     16  N         70.9240  121.9170    9.9660 N.3    32  MET32      -0.1245
     17  CA        69.4860  121.7310   10.1440 C.3    32  MET32       0.1570
     18  C         68.7340  121.8940    8.8310 C.2    32  MET32       0.2261
     19  O         67.8020  121.1380    8.5440 O.2    32  MET32      -0.2867
     20  CB        68.9480  122.7190   11.1760 C.3    32  MET32       0.0387
     21  CG        69.5900  122.5730   12.5290 C.3    32  MET32       0.0595
     22  SD        68.8570  123.6070   13.8240 S.3    32  MET32      -0.1393
     23  CE        69.1070  125.2380   13.1470 C.3    32  MET32       0.0692
     24  N         69.2570  118.7800    6.7790 N.3    35  LEU35      -0.1245
     25  CA        68.4730  117.6610    7.2840 C.3    35  LEU35       0.1561
     26  C         67.0060  117.7830    6.8790 C.2    35  LEU35       0.2260
     27  O         66.3920  116.8010    6.4480 O.2    35  LEU35      -0.2867
     28  CB        68.6180  117.5780    8.8030 C.3    35  LEU35       0.0270
     29  CG        67.8020  116.4950    9.5020 C.3    35  LEU35       0.0019
     30  CD1       68.1690  115.1450    8.9470 C.3    35  LEU35       0.0001
     31  CD2       68.0380  116.5210   11.0040 C.3    35  LEU35       0.0001
     32  N         64.1750  115.2810    4.1410 N.3    39  LEU39      -0.1245
     33  CA        62.9700  114.5880    4.5770 C.3    39  LEU39       0.1561
     34  C         61.8660  114.7020    3.5250 C.2    39  LEU39       0.2260
     35  O         61.7300  115.7440    2.8840 O.2    39  LEU39      -0.2867
     36  CB        62.4710  115.1650    5.8990 C.3    39  LEU39       0.0270
     37  CG        63.4150  114.9930    7.0830 C.3    39  LEU39       0.0019
     38  CD1       62.8640  115.7230    8.2750 C.3    39  LEU39       0.0001
     39  CD2       63.5970  113.5210    7.3930 C.3    39  LEU39       0.0001
     40  N         56.5060  115.4810    7.4670 N.3    45  LEU45      -0.1245
     41  CA        57.8310  115.3250    8.0560 C.3    45  LEU45       0.1561
     42  C         58.6830  116.5600    7.8060 C.2    45  LEU45       0.2260
     43  O         59.2440  117.1390    8.7420 O.2    45  LEU45      -0.2867
     44  CB        58.5140  114.0740    7.4990 C.3    45  LEU45       0.0270
     45  CG        57.9890  112.7500    8.0490 C.3    45  LEU45       0.0019
     46  CD1       58.2980  111.6150    7.0960 C.3    45  LEU45       0.0001
     47  CD2       58.5890  112.4720    9.4130 C.3    45  LEU45       0.0001
     48  N         57.2420  119.5560    9.6760 N.3    48  THR48      -0.1203
     49  CA        57.5610  119.4710   11.0970 C.3    48  THR48       0.1994
     50  C         59.0260  119.8050   11.3550 C.2    48  THR48       0.2618
     51  O         59.3630  120.4770   12.3380 O.2    48  THR48      -0.2717
     52  CB        57.2420  118.0710   11.6090 C.3    48  THR48       0.1784
     53  OG1       55.8410  117.8200   11.4580 O.3    48  THR48      -0.2211
     54  CG2       57.6390  117.9300   13.0680 C.3    48  THR48       0.0376
     55  N         59.9130  119.3270   10.4870 N.am   49  CYS49      -0.1969
     56  CA        61.3230  119.6470   10.6320 C.3    49  CYS49       0.1712
     57  C         61.5290  121.1520   10.6680 C.2    49  CYS49       0.2296
     58  O         62.3420  121.6520   11.4530 O.2    49  CYS49      -0.2864
     59  CB        62.1110  119.0130    9.4900 C.3    49  CYS49       0.0983
     60  SG        63.8910  119.1230    9.6690 S.3    49  CYS49      -0.0798
     61  N         60.4180  122.7970   13.9250 N.3    52  VAL52      -0.1231
     62  CA        61.3740  122.5980   15.0090 C.3    52  VAL52       0.1692
     63  C         62.5180  123.6030   14.9120 C.2    52  VAL52       0.2591
     64  O         62.9460  124.1710   15.9220 O.2    52  VAL52      -0.2718
     65  CB        61.8830  121.1460   14.9930 C.3    52  VAL52       0.0266
     66  CG1       63.0370  120.9600   15.9640 C.3    52  VAL52       0.0020
     67  CG2       60.7520  120.1950   15.3340 C.3    52  VAL52       0.0020
     68  N         63.0460  123.8280   13.7100 N.am   53  ILE53      -0.1980
     69  CA        64.0440  124.8810   13.5370 C.3    53  ILE53       0.1595
     70  C         63.4980  126.2170   14.0180 C.2    53  ILE53       0.2287
     71  O         64.2090  126.9980   14.6600 O.2    53  ILE53      -0.2864
     72  CB        64.4970  124.9710   12.0690 C.3    53  ILE53       0.0276
     73  CG1       65.1540  123.6620   11.6340 C.3    53  ILE53       0.0022
     74  CG2       65.4610  126.1570   11.8740 C.3    53  ILE53       0.0022
     75  CD1       65.5420  123.6390   10.1510 C.3    53  ILE53       0.0001
@<TRIPOS>BOND
     1    35    34    2
     2    34    33    1
     3    32    33    1
     4    33    36    1
     5    36    37    1
     6    27    26    2
     7    24    25    1
     8    26    25    1
     9    37    39    1
    10    37    38    1
    11    46    45    1
    12    25    28    1
    13    40    41    1
    14    44    45    1
    15    44    41    1
    16    42    41    1
    17    42    43    2
    18    45    47    1
    19    19    18    2
    20    28    29    1
    21    18    17    1
    22    30    29    1
    23    59    60    1
    24    59    56    1
    25    29    31    1
    26    48    49    1
    27    16    17    1
    28    17    20    1
    29    75    73    1
    30    55    56    1
    31    55    50   am
    32    56    57    1
    33    57    58    2
    34    49    50    1
    35    49    52    1
    36    20    21    1
    37    50    51    2
    38    53    52    1
    39    52    54    1
    40    73    72    1
    41    74    72    1
    42    72    69    1
    43    21    22    1
    44    11    10    2
    45    23    22    1
    46    69    68    1
    47    69    70    1
    48     9    10    1
    49     9     8    1
    50     9    12    1
    51    68    63   am
    52    61    62    1
    53    13    12    1
    54    13    15    1
    55    70    71    2
    56    14    12    1
    57    63    62    1
    58    63    64    2
    59    65    62    1
    60    65    67    1
    61    65    66    1
    62     4     3    2
    63     6     5    1
    64     7     5    1
    65     2     5    1
    66     2     3    1
    67     2     1    1
