@<TRIPOS>MOLECULE
tmp/5w78B04.pdb
 156 147 0 0 0
SMALL
GASTEIGER

@<TRIPOS>ATOM
      1  N         57.3390   92.4730   18.9460 N.3    94  SER94      -0.1217
      2  CA        58.0850   93.3380   18.0460 C.3    94  SER94       0.1889
      3  C         59.1350   92.5800   17.2490 C.2    94  SER94       0.2288
      4  O         59.5610   93.0580   16.1940 O.2    94  SER94      -0.2866
      5  CB        58.7440   94.4650   18.8460 C.3    94  SER94       0.2089
      6  OG        59.5250   93.9340   19.8920 O.3    94  SER94      -0.2183
      7  N         60.4280   94.6860   14.0850 N.3    99  PHE99      -0.1241
      8  CA        60.6820   96.0830   14.4100 C.3    99  PHE99       0.1605
      9  C         62.0940   96.4710   13.9860 C.2    99  PHE99       0.2264
     10  O         63.0620   95.7570   14.2700 O.2    99  PHE99      -0.2867
     11  CB        60.5010   96.3020   15.9120 C.3    99  PHE99       0.0534
     12  CG        60.6760   97.7230   16.3460 C.ar   99  PHE99      -0.0203
     13  CD1       59.5860   98.5600   16.4680 C.ar   99  PHE99      -0.0042
     14  CD2       61.9330   98.2200   16.6440 C.ar   99  PHE99      -0.0042
     15  CE1       59.7460   99.8750   16.8740 C.ar   99  PHE99      -0.0003
     16  CE2       62.0980   99.5320   17.0540 C.ar   99  PHE99      -0.0003
     17  CZ        61.0030  100.3590   17.1680 C.ar   99  PHE99      -0.0000
     18  N         64.5250  100.1360   13.1270 N.3   101  ILE101     -0.1245
     19  CA        64.8780  101.5150   12.8180 C.3   101  ILE101      0.1561
     20  C         66.1220  101.4790   11.9480 C.2   101  ILE101      0.2260
     21  O         67.1500  100.9240   12.3510 O.2   101  ILE101     -0.2867
     22  CB        65.1270  102.3300   14.0920 C.3   101  ILE101      0.0252
     23  CG1       63.8770  102.3370   14.9750 C.3   101  ILE101      0.0019
     24  CG2       65.5320  103.7470   13.7350 C.3   101  ILE101      0.0019
     25  CD1       64.1450  102.7910   16.3950 C.3   101  ILE101      0.0001
     26  N         69.8150  107.8410   10.9410 N.3   106  ILE106     -0.1245
     27  CA        70.4320  108.4810   12.0950 C.3   106  ILE106      0.1561
     28  C         71.9490  108.5290   12.0220 C.2   106  ILE106      0.2260
     29  O         72.5780  109.0130   12.9600 O.2   106  ILE106     -0.2867
     30  CB        69.9910  107.8070   13.4150 C.3   106  ILE106      0.0252
     31  CG1       70.5610  106.3940   13.5400 C.3   106  ILE106      0.0019
     32  CG2       68.4580  107.7590   13.5190 C.3   106  ILE106      0.0019
     33  CD1       70.4610  105.8390   14.9500 C.3   106  ILE106      0.0001
     34  N         54.0640   95.4920   18.7340 N.3   171  ASN171     -0.1225
     35  CA        55.1330   95.9120   19.6260 C.3   171  ASN171      0.1785
     36  C         54.5760   95.9060   21.0440 C.2   171  ASN171      0.2597
     37  O         53.4560   96.3680   21.2830 O.2   171  ASN171     -0.2718
     38  CB        55.6520   97.3180   19.2810 C.3   171  ASN171      0.1169
     39  CG        56.1240   97.4770   17.8270 C.2   171  ASN171      0.2627
     40  OD1       55.9940   98.5530   17.2440 O.2   171  ASN171     -0.2716
     41  ND2       56.6960   96.4340   17.2580 N.am  171  ASN171     -0.0877
     42  N         55.3330   95.3660   21.9850 N.am  172  GLY172     -0.1957
     43  CA        54.8390   95.3350   23.3450 C.3   172  GLY172      0.1869
     44  C         53.8290   94.2480   23.6400 C.2   172  GLY172      0.2309
     45  O         53.2960   94.2060   24.7570 O.2   172  GLY172     -0.2863
     46  N         58.5500   90.2480   26.0860 N.3   204  ASN204     -0.1240
     47  CA        57.8800   91.2390   26.9150 C.3   204  ASN204      0.1653
     48  C         57.2960   90.6740   28.2070 C.2   204  ASN204      0.2266
     49  O         56.7920   91.4600   29.0170 O.2   204  ASN204     -0.2867
     50  CB        56.7970   91.9200   26.0870 C.3   204  ASN204      0.1155
     51  CG        57.3890   92.7920   25.0080 C.2   204  ASN204      0.2627
     52  OD1       58.2840   93.5870   25.2800 O.2   204  ASN204     -0.2716
     53  ND2       56.9340   92.6170   23.7720 N.am  204  ASN204     -0.0877
     54  N         77.6470  102.2220   19.0800 N.3   264  HIS264     -0.1241
     55  CA        76.3430  102.4400   18.4980 C.3   264  HIS264      0.1621
     56  C         76.4920  103.2430   17.2090 C.2   264  HIS264      0.2264
     57  O         77.4870  103.9470   17.0260 O.2   264  HIS264     -0.2867
     58  CB        75.4730  103.1870   19.5080 C.3   264  HIS264      0.0745
     59  CG        74.0320  103.2840   19.1320 C.ar  264  HIS264      0.0817
     60  ND1       73.5080  104.3750   18.4740 N.ar  264  HIS264     -0.2268
     61  CD2       72.9950  102.4390   19.3460 C.ar  264  HIS264      0.1154
     62  CE1       72.2130  104.1920   18.2870 C.ar  264  HIS264      0.1986
     63  NE2       71.8760  103.0260   18.8080 N.ar  264  HIS264     -0.2212
     64  N         75.1540  106.0510   16.4300 N.3   266  LEU266     -0.1245
     65  CA        75.4010  107.4470   16.7790 C.3   266  LEU266      0.1561
     66  C         76.7780  107.6830   17.3830 C.2   266  LEU266      0.2260
     67  O         77.1560  108.8440   17.5750 O.2   266  LEU266     -0.2867
     68  CB        74.3640  107.9440   17.7760 C.3   266  LEU266      0.0270
     69  CG        73.0130  108.3970   17.2510 C.3   266  LEU266      0.0019
     70  CD1       72.1660  108.7480   18.4510 C.3   266  LEU266      0.0001
     71  CD2       73.1560  109.5830   16.3120 C.3   266  LEU266      0.0001
     72  N         80.3360  106.6080   22.0010 N.3   273  MET273     -0.1245
     73  CA        79.1410  106.0310   22.6040 C.3   273  MET273      0.1570
     74  C         79.0400  104.5590   22.2450 C.2   273  MET273      0.2261
     75  O         78.8750  104.2060   21.0710 O.2   273  MET273     -0.2867
     76  CB        77.8880  106.7620   22.1570 C.3   273  MET273      0.0387
     77  CG        76.6330  106.2320   22.8310 C.3   273  MET273      0.0595
     78  SD        75.2460  106.1740   21.6880 S.3   273  MET273     -0.1393
     79  CE        75.3110  107.8680   21.0790 C.3   273  MET273      0.0692
     80  N         74.4680  103.5500   25.9770 N.3   278  LEU278     -0.1245
     81  CA        73.0590  103.6560   25.6090 C.3   278  LEU278      0.1561
     82  C         72.1740  102.9410   26.6290 C.2   278  LEU278      0.2260
     83  O         71.1890  103.5070   27.1150 O.2   278  LEU278     -0.2867
     84  CB        72.8380  103.0940   24.2030 C.3   278  LEU278      0.0270
     85  CG        71.3800  103.0820   23.7330 C.3   278  LEU278      0.0019
     86  CD1       70.8940  104.4970   23.4800 C.3   278  LEU278      0.0001
     87  CD2       71.2020  102.2180   22.4990 C.3   278  LEU278      0.0001
     88  N         71.9100  104.9340   29.7160 N.3   281  PHE281     -0.1227
     89  CA        71.0670  106.1000   29.4570 C.3   281  PHE281      0.1736
     90  C         69.5860  105.7350   29.5030 C.2   281  PHE281      0.2595
     91  O         68.7870  106.4090   30.1590 O.2   281  PHE281     -0.2718
     92  CB        71.4490  106.6950   28.1000 C.3   281  PHE281      0.0547
     93  CG        70.6390  107.8950   27.6960 C.ar  281  PHE281     -0.0202
     94  CD1       70.5830  109.0100   28.4970 C.ar  281  PHE281     -0.0042
     95  CD2       69.9680  107.9160   26.4860 C.ar  281  PHE281     -0.0042
     96  CE1       69.8560  110.1240   28.1190 C.ar  281  PHE281     -0.0003
     97  CE2       69.2420  109.0280   26.0970 C.ar  281  PHE281     -0.0003
     98  CZ        69.1870  110.1320   26.9170 C.ar  281  PHE281     -0.0000
     99  N         69.2000  104.6600   28.8200 N.am  282  LEU282     -0.1980
    100  CA        67.7860  104.3020   28.7670 C.3   282  LEU282      0.1596
    101  C         67.2770  103.8080   30.1150 C.2   282  LEU282      0.2287
    102  O         66.1070  104.0200   30.4490 O.2   282  LEU282     -0.2864
    103  CB        67.5460  103.2400   27.6910 C.3   282  LEU282      0.0297
    104  CG        67.9090  103.6310   26.2580 C.3   282  LEU282      0.0022
    105  CD1       67.7880  102.4450   25.3580 C.3   282  LEU282      0.0001
    106  CD2       67.0260  104.7420   25.7580 C.3   282  LEU282      0.0001
    107  N         63.0670  103.7630   30.1380 N.3   287  VAL287     -0.1245
    108  CA        62.3950  103.5680   28.8580 C.3   287  VAL287      0.1561
    109  C         63.0980  102.4840   28.0560 C.2   287  VAL287      0.2260
    110  O         62.8830  102.3550   26.8470 O.2   287  VAL287     -0.2867
    111  CB        62.3280  104.8810   28.0580 C.3   287  VAL287      0.0252
    112  CG1       61.5570  105.9330   28.8390 C.3   287  VAL287      0.0019
    113  CG2       63.7190  105.3810   27.7280 C.3   287  VAL287      0.0019
    114  N         63.5520   99.0210   26.4270 N.3   289  PRO289     -0.2116
    115  CA        62.6700   97.8880   26.1230 C.3   289  PRO289      0.1372
    116  C         62.9100   96.6890   27.0240 C.2   289  PRO289      0.2244
    117  O         61.9770   95.9110   27.2470 O.2   289  PRO289     -0.2868
    118  CB        62.9950   97.5720   24.6560 C.3   289  PRO289      0.0268
    119  CG        64.3450   98.1270   24.4340 C.3   289  PRO289      0.0207
    120  CD        64.4280   99.3500   25.2910 C.3   289  PRO289      0.0892
    121  N         70.3640   99.8090   15.8480 N.3   357  VAL357     -0.1231
    122  CA        69.9270  101.0530   16.4700 C.3   357  VAL357      0.1692
    123  C         69.4090  100.8100   17.8780 C.2   357  VAL357      0.2592
    124  O         69.6630  101.6070   18.7850 O.2   357  VAL357     -0.2718
    125  CB        68.8740  101.7520   15.5960 C.3   357  VAL357      0.0266
    126  CG1       68.3320  102.9820   16.2990 C.3   357  VAL357      0.0020
    127  CG2       69.4830  102.1430   14.2560 C.3   357  VAL357      0.0020
    128  N         68.6590   99.7320   18.0960 N.am  358  ASP358     -0.1974
    129  CA        68.1080   99.5130   19.4240 C.3   358  ASP358      0.1709
    130  C         68.9450   98.5630   20.2700 C.2   358  ASP358      0.2293
    131  O         68.7810   98.5430   21.4940 O.2   358  ASP358     -0.2864
    132  CB        66.6540   99.0120   19.3250 C.3   358  ASP358      0.1436
    133  CG        66.5120   97.6990   18.5720 C.2   358  ASP358      0.3671
    134  OD1       67.2920   96.7490   18.8400 O.co2 358  ASP358     -0.2456
    135  OD2       65.5840   97.6150   17.7270 O.co2 358  ASP358     -0.2456
    136  N         68.7680   95.4180   20.6670 N.3   360  PHE360     -0.1227
    137  CA        67.8830   94.5420   21.4200 C.3   360  PHE360      0.1736
    138  C         67.2090   93.4840   20.5510 C.2   360  PHE360      0.2595
    139  O         67.1990   92.3050   20.9100 O.2   360  PHE360     -0.2718
    140  CB        66.8230   95.3770   22.1380 C.3   360  PHE360      0.0547
    141  CG        65.7280   94.5570   22.7430 C.ar  360  PHE360     -0.0202
    142  CD1       66.0050   93.6400   23.7450 C.ar  360  PHE360     -0.0042
    143  CD2       64.4230   94.6910   22.3040 C.ar  360  PHE360     -0.0042
    144  CE1       64.9930   92.8680   24.3030 C.ar  360  PHE360     -0.0003
    145  CE2       63.4080   93.9250   22.8540 C.ar  360  PHE360     -0.0003
    146  CZ        63.6950   93.0080   23.8540 C.ar  360  PHE360     -0.0000
    147  N         66.6350   93.8920   19.4140 N.am  361  HIS361     -0.1975
    148  CA        65.8310   93.0070   18.5780 C.3   361  HIS361      0.1656
    149  C         66.6990   92.1650   17.6590 C.2   361  HIS361      0.2291
    150  O         67.7910   92.5820   17.2800 O.2   361  HIS361     -0.2864
    151  CB        64.8780   93.8040   17.7020 C.3   361  HIS361      0.0771
    152  CG        63.7650   94.4440   18.4560 C.ar  361  HIS361      0.0820
    153  ND1       63.7270   95.7960   18.7140 N.ar  361  HIS361     -0.2267
    154  CD2       62.6550   93.9170   19.0220 C.ar  361  HIS361      0.1154
    155  CE1       62.6340   96.0760   19.4010 C.ar  361  HIS361      0.1986
    156  NE2       61.9680   94.9540   19.6010 N.ar  361  HIS361     -0.2212
@<TRIPOS>BOND
     1    26    27    1
     2    20    21    2
     3    20    19    1
     4    28    27    1
     5    28    29    2
     6    27    30    1
     7    19    18    1
     8    19    22    1
     9    30    32    1
    10    30    31    1
    11    31    33    1
    12    24    22    1
    13     9    10    2
    14     9     8    1
    15     7     8    1
    16    22    23    1
    17   127   125    1
    18     8    11    1
    19    23    25    1
    20   125   126    1
    21   125   122    1
    22   121   122    1
    23    11    12    1
    24     4     3    2
    25    71    69    1
    26    12    13   ar
    27    12    14   ar
    28    64    65    1
    29    13    15   ar
    30   122   123    1
    31    14    16   ar
    32    65    66    1
    33    65    68    1
    34    15    17   ar
    35    57    56    2
    36    16    17   ar
    37    56    55    1
    38    40    39    2
    39     3     2    1
    40    69    68    1
    41    69    70    1
    42    41    39   am
    43   150   149    2
    44    66    67    2
    45   149   148    1
    46   151   152    1
    47   151   148    1
    48   135   133   ar
    49    39    38    1
    50   123   128   am
    51   123   124    2
    52     2     5    1
    53     2     1    1
    54   128   129    1
    55    62    60   ar
    56    62    63   ar
    57   152   153   ar
    58   152   154   ar
    59    60    59   ar
    60    55    54    1
    61    55    58    1
    62   133   134   ar
    63   133   132    1
    64   148   147    1
    65   153   155   ar
    66    34    35    1
    67    63    61   ar
    68     5     6    1
    69   154   156   ar
    70    59    61   ar
    71    59    58    1
    72    38    35    1
    73   132   129    1
    74   155   156   ar
    75   147   138   am
    76   129   130    1
    77    35    36    1
    78   130   131    2
    79   138   139    2
    80   138   137    1
    81   136   137    1
    82    36    37    2
    83    36    42   am
    84    75    74    2
    85    79    78    1
    86   137   140    1
    87    78    77    1
    88    42    43    1
    89    72    73    1
    90   140   141    1
    91    76    73    1
    92    76    77    1
    93    74    73    1
    94   143   141   ar
    95   143   145   ar
    96    87    85    1
    97   141   142   ar
    98   145   146   ar
    99    43    44    1
   100    86    85    1
   101    44    45    2
   102    85    84    1
   103   142   144   ar
   104    53    51   am
   105   146   144   ar
   106    84    81    1
   107   119   118    1
   108   119   120    1
   109   118   115    1
   110    51    52    2
   111    51    50    1
   112   120   114    1
   113   105   104    1
   114    81    80    1
   115    81    82    1
   116   106   104    1
   117    46    47    1
   118    50    47    1
   119    97    95   ar
   120    97    98   ar
   121   115   114    1
   122   115   116    1
   123   104   103    1
   124    95    93   ar
   125    82    83    2
   126   110   109    2
   127    47    48    1
   128    98    96   ar
   129   116   117    2
   130   103   100    1
   131    93    92    1
   132    93    94   ar
   133   113   111    1
   134   109   108    1
   135   111   112    1
   136   111   108    1
   137    92    89    1
   138    96    94   ar
   139    48    49    2
   140   100    99    1
   141   100   101    1
   142    99    90   am
   143   108   107    1
   144    89    90    1
   145    89    88    1
   146    90    91    2
   147   101   102    2
