@<TRIPOS>MOLECULE
tmp/5w78A00.pdb
 101 96 0 0 0
SMALL
GASTEIGER

@<TRIPOS>ATOM
      1  N         60.7830  109.7160   26.9830 N.3     5  HIS5       -0.1226
      2  CA        60.7880  109.5780   25.5320 C.3     5  HIS5        0.1752
      3  C         61.1780  110.8780   24.8410 C.2     5  HIS5        0.2596
      4  O         61.9450  110.8610   23.8720 O.2     5  HIS5       -0.2718
      5  CB        59.4210  109.1100   25.0510 C.3     5  HIS5        0.0759
      6  CG        59.0670  107.7350   25.5140 C.ar    5  HIS5        0.0818
      7  ND1       59.5720  106.6000   24.9160 N.ar    5  HIS5       -0.2268
      8  CD2       58.2700  107.3090   26.5220 C.ar    5  HIS5        0.1154
      9  CE1       59.0940  105.5330   25.5310 C.ar    5  HIS5        0.1986
     10  NE2       58.3020  105.9360   26.5100 N.ar    5  HIS5       -0.2212
     11  N         60.6690  112.0150   25.3200 N.am    6  THR6       -0.1953
     12  CA        61.0730  113.2880   24.7350 C.3     6  THR6        0.1897
     13  C         62.5710  113.4970   24.8980 C.2     6  THR6        0.2313
     14  O         63.2260  114.0570   24.0120 O.2     6  THR6       -0.2863
     15  CB        60.3000  114.4560   25.3640 C.3     6  THR6        0.1794
     16  OG1       60.7940  114.7230   26.6830 O.3     6  THR6       -0.2208
     17  CG2       58.8030  114.1590   25.4290 C.3     6  THR6        0.0378
     18  N         64.9560  111.0860   25.0010 N.3     8  VAL8       -0.1231
     19  CA        65.6260  110.2700   23.9910 C.3     8  VAL8        0.1692
     20  C         65.5520  110.9490   22.6340 C.2     8  VAL8        0.2593
     21  O         66.5310  110.9740   21.8820 O.2     8  VAL8       -0.2718
     22  CB        65.0100  108.8600   23.9320 C.3     8  VAL8        0.0266
     23  CG1       65.5940  108.0810   22.7600 C.3     8  VAL8        0.0020
     24  CG2       65.2360  108.1120   25.2330 C.3     8  VAL8        0.0020
     25  N         64.3860  111.5000   22.3000 N.am    9  GLY9       -0.1942
     26  CA        64.1990  112.0990   20.9900 C.3     9  GLY9        0.2014
     27  C         65.0150  113.3550   20.7710 C.2     9  GLY9        0.2639
     28  O         65.5450  113.5770   19.6790 O.2     9  GLY9       -0.2714
     29  N         65.1010  114.2100   21.7890 N.am   10  CYS10      -0.1967
     30  CA        65.9130  115.4130   21.6690 C.3    10  CYS10       0.1712
     31  C         67.3830  115.0590   21.4960 C.2    10  CYS10       0.2296
     32  O         68.0770  115.6250   20.6440 O.2    10  CYS10      -0.2864
     33  CB        65.7080  116.3000   22.8960 C.3    10  CYS10       0.0983
     34  SG        66.8330  117.7050   22.9630 S.3    10  CYS10      -0.0798
     35  N         68.6360  112.3720   20.2980 N.3    12  LEU12      -0.1231
     36  CA        68.8200  111.8000   18.9660 C.3    12  LEU12       0.1693
     37  C         68.9320  112.8930   17.9030 C.2    12  LEU12       0.2592
     38  O         69.8880  112.9250   17.1180 O.2    12  LEU12      -0.2718
     39  CB        67.6580  110.8660   18.6470 C.3    12  LEU12       0.0284
     40  CG        67.5890  110.3300   17.2240 C.3    12  LEU12       0.0019
     41  CD1       68.8430  109.5270   16.9210 C.3    12  LEU12       0.0001
     42  CD2       66.3440  109.4800   17.0520 C.3    12  LEU12       0.0001
     43  N         67.9560  113.7960   17.8560 N.am   13  VAL13      -0.1966
     44  CA        67.9300  114.7900   16.7890 C.3    13  VAL13       0.1727
     45  C         69.1320  115.7170   16.8900 C.2    13  VAL13       0.2616
     46  O         69.7730  116.0350   15.8830 O.2    13  VAL13      -0.2715
     47  CB        66.6050  115.5690   16.8270 C.3    13  VAL13       0.0290
     48  CG1       66.6750  116.7910   15.9390 C.3    13  VAL13       0.0023
     49  CG2       65.4520  114.6610   16.4160 C.3    13  VAL13       0.0023
     50  N         69.4540  116.1700   18.1010 N.am   14  VAL14      -0.1977
     51  CA        70.5720  117.0910   18.2770 C.3    14  VAL14       0.1596
     52  C         71.8810  116.4130   17.9020 C.2    14  VAL14       0.2287
     53  O         72.7680  117.0260   17.2910 O.2    14  VAL14      -0.2864
     54  CB        70.5930  117.6210   19.7250 C.3    14  VAL14       0.0276
     55  CG1       71.8610  118.4250   19.9970 C.3    14  VAL14       0.0022
     56  CG2       69.3680  118.4750   19.9720 C.3    14  VAL14       0.0022
     57  N         60.4180  122.7970   13.9250 N.3    52  VAL52      -0.1245
     58  CA        61.3740  122.5980   15.0090 C.3    52  VAL52       0.1561
     59  C         62.5180  123.6030   14.9120 C.2    52  VAL52       0.2260
     60  O         62.9460  124.1710   15.9220 O.2    52  VAL52      -0.2867
     61  CB        61.8830  121.1460   14.9930 C.3    52  VAL52       0.0252
     62  CG1       63.0370  120.9600   15.9640 C.3    52  VAL52       0.0019
     63  CG2       60.7520  120.1950   15.3340 C.3    52  VAL52       0.0019
     64  N         63.1140  125.9510   18.0750 N.3    56  PHE56      -0.1241
     65  CA        64.2870  125.5990   18.8710 C.3    56  PHE56       0.1605
     66  C         65.6120  125.8810   18.1800 C.2    56  PHE56       0.2264
     67  O         66.6650  125.7180   18.8120 O.2    56  PHE56      -0.2867
     68  CB        64.2450  124.1120   19.2500 C.3    56  PHE56       0.0534
     69  CG        63.0100  123.7120   19.9970 C.ar   56  PHE56      -0.0203
     70  CD1       62.7720  124.1890   21.2730 C.ar   56  PHE56      -0.0042
     71  CD2       62.0920  122.8510   19.4320 C.ar   56  PHE56      -0.0042
     72  CE1       61.6340  123.8220   21.9650 C.ar   56  PHE56      -0.0003
     73  CE2       60.9510  122.4810   20.1240 C.ar   56  PHE56      -0.0003
     74  CZ        60.7270  122.9680   21.3900 C.ar   56  PHE56      -0.0000
     75  N         69.6140  125.8550   19.7510 N.3    60  ILE60      -0.1245
     76  CA        70.5010  124.7540   19.3880 C.3    60  ILE60       0.1561
     77  C         71.7780  125.2970   18.7650 C.2    60  ILE60       0.2260
     78  O         72.8750  124.7810   19.0110 O.2    60  ILE60      -0.2867
     79  CB        69.7830  123.7750   18.4420 C.3    60  ILE60       0.0252
     80  CG1       68.6050  123.1190   19.1590 C.3    60  ILE60       0.0019
     81  CG2       70.7400  122.7110   17.9400 C.3    60  ILE60       0.0019
     82  CD1       67.6610  122.4030   18.2180 C.3    60  ILE60       0.0001
     83  N         67.0790  122.8030   27.3650 N.3    77  LEU77      -0.1245
     84  CA        65.7800  123.0600   26.7580 C.3    77  LEU77       0.1561
     85  C         64.6480  122.3060   27.4400 C.2    77  LEU77       0.2260
     86  O         63.4980  122.4270   27.0080 O.2    77  LEU77      -0.2867
     87  CB        65.8090  122.7040   25.2710 C.3    77  LEU77       0.0270
     88  CG        66.9010  123.3950   24.4580 C.3    77  LEU77       0.0019
     89  CD1       66.8160  122.9660   23.0070 C.3    77  LEU77       0.0001
     90  CD2       66.8030  124.8990   24.5770 C.3    77  LEU77       0.0001
     91  N         63.7620  119.1950   27.6070 N.3    79  PHE79      -0.1241
     92  CA        63.3190  117.8790   27.1570 C.3    79  PHE79       0.1605
     93  C         63.7530  116.7950   28.1310 C.2    79  PHE79       0.2264
     94  O         63.0620  115.7800   28.2750 O.2    79  PHE79      -0.2867
     95  CB        63.8670  117.5770   25.7630 C.3    79  PHE79       0.0534
     96  CG        63.2980  118.4440   24.6940 C.ar   79  PHE79      -0.0203
     97  CD1       62.2040  118.0290   23.9640 C.ar   79  PHE79      -0.0042
     98  CD2       63.8570  119.6750   24.4120 C.ar   79  PHE79      -0.0042
     99  CE1       61.6770  118.8240   22.9710 C.ar   79  PHE79      -0.0003
    100  CE2       63.3310  120.4720   23.4240 C.ar   79  PHE79      -0.0003
    101  CZ        62.2390  120.0440   22.7040 C.ar   79  PHE79      -0.0000
@<TRIPOS>BOND
     1    57    58    1
     2    59    58    1
     3    59    60    2
     4    61    58    1
     5    61    63    1
     6    61    62    1
     7    46    45    2
     8    48    47    1
     9    49    47    1
    10    44    47    1
    11    44    45    1
    12    44    43    1
    13    45    50   am
    14    41    40    1
    15    42    40    1
    16    38    37    2
    17    40    39    1
    18    53    52    2
    19    43    37   am
    20    52    51    1
    21    37    36    1
    22    81    79    1
    23    64    65    1
    24    50    51    1
    25    66    67    2
    26    66    65    1
    27    82    80    1
    28    51    54    1
    29    79    80    1
    30    79    76    1
    31    39    36    1
    32    77    78    2
    33    77    76    1
    34    65    68    1
    35    36    35    1
    36    68    69    1
    37    76    75    1
    38    71    69   ar
    39    71    73   ar
    40    28    27    2
    41    54    56    1
    42    54    55    1
    43    69    70   ar
    44    73    74   ar
    45    32    31    2
    46    27    26    1
    47    27    29   am
    48    26    25    1
    49    70    72   ar
    50    74    72   ar
    51    31    30    1
    52    30    29    1
    53    30    33    1
    54    21    20    2
    55    25    20   am
    56    20    19    1
    57   101    99   ar
    58   101   100   ar
    59    23    22    1
    60    33    34    1
    61    99    97   ar
    62    89    88    1
    63   100    98   ar
    64     4     3    2
    65    22    19    1
    66    22    24    1
    67    97    96   ar
    68    19    18    1
    69    14    13    2
    70    98    96   ar
    71    88    90    1
    72    88    87    1
    73    96    95    1
    74    12    13    1
    75    12    11    1
    76    12    15    1
    77     3    11   am
    78     3     2    1
    79     7     6   ar
    80     7     9   ar
    81     5     6    1
    82     5     2    1
    83    87    84    1
    84    15    17    1
    85    15    16    1
    86     6     8   ar
    87     9    10   ar
    88     2     1    1
    89    95    92    1
    90    10     8   ar
    91    84    83    1
    92    84    85    1
    93    86    85    2
    94    92    91    1
    95    92    93    1
    96    93    94    2
