@<TRIPOS>MOLECULE
tmp/5w7aB03.pdb
 158 149 0 0 0
SMALL
GASTEIGER

@<TRIPOS>ATOM
      1  N         25.5330   37.8940   52.0450 N.3    94  ALA94      -0.1245
      2  CA        25.5360   39.0770   51.1910 C.3    94  ALA94       0.1562
      3  C         24.8390   40.2500   51.8670 C.2    94  ALA94       0.2260
      4  O         25.2610   41.4020   51.7160 O.2    94  ALA94      -0.2867
      5  CB        24.8730   38.7580   49.8510 C.3    94  ALA94       0.0290
      6  N         25.5400   43.8440   50.1790 N.3    99  PHE99      -0.1241
      7  CA        25.6490   43.7710   48.7330 C.3    99  PHE99       0.1605
      8  C         24.7570   44.8350   48.1060 C.2    99  PHE99       0.2264
      9  O         23.6060   45.0180   48.5120 O.2    99  PHE99      -0.2867
     10  CB        25.2450   42.3810   48.2550 C.3    99  PHE99       0.0534
     11  CG        25.4190   42.1680   46.7850 C.ar   99  PHE99      -0.0203
     12  CD1       26.5200   41.4840   46.3010 C.ar   99  PHE99      -0.0042
     13  CD2       24.4790   42.6390   45.8850 C.ar   99  PHE99      -0.0042
     14  CE1       26.6810   41.2770   44.9500 C.ar   99  PHE99      -0.0003
     15  CE2       24.6360   42.4360   44.5320 C.ar   99  PHE99      -0.0003
     16  CZ        25.7360   41.7540   44.0610 C.ar   99  PHE99      -0.0000
     17  N         24.3180   46.9620   44.1760 N.3   101  ILE101     -0.1245
     18  CA        24.6040   47.5240   42.8630 C.3   101  ILE101      0.1561
     19  C         23.8560   48.8630   42.7730 C.2   101  ILE101      0.2260
     20  O         22.6170   48.8620   42.8100 O.2   101  ILE101     -0.2867
     21  CB        24.1980   46.5730   41.7340 C.3   101  ILE101      0.0252
     22  CG1       25.0360   45.2910   41.8340 C.3   101  ILE101      0.0019
     23  CG2       24.4110   47.2440   40.3830 C.3   101  ILE101      0.0019
     24  CD1       24.6670   44.2150   40.8400 C.3   101  ILE101      0.0001
     25  N         22.8310   51.6190   36.0930 N.3   106  LEU106     -0.1245
     26  CA        21.9960   51.0880   35.0250 C.3   106  LEU106      0.1561
     27  C         20.9430   52.0730   34.5460 C.2   106  LEU106      0.2260
     28  O         20.1870   51.7470   33.6250 O.2   106  LEU106     -0.2867
     29  CB        21.2990   49.8040   35.4850 C.3   106  LEU106      0.0270
     30  CG        22.1410   48.5420   35.6640 C.3   106  LEU106      0.0019
     31  CD1       21.2260   47.4020   36.0710 C.3   106  LEU106      0.0001
     32  CD2       22.9150   48.1750   34.4040 C.3   106  LEU106      0.0001
     33  N         29.4790   36.8300   50.2380 N.3   171  ASN171     -0.1225
     34  CA        28.2330   36.9020   49.4810 C.3   171  ASN171      0.1785
     35  C         27.4480   35.5930   49.5550 C.2   171  ASN171      0.2597
     36  O         26.2380   35.5940   49.8120 O.2   171  ASN171     -0.2718
     37  CB        28.5240   37.2710   48.0240 C.3   171  ASN171      0.1169
     38  CG        28.8260   38.7600   47.8300 C.2   171  ASN171      0.2627
     39  OD1       29.6290   39.1250   46.9780 O.2   171  ASN171     -0.2716
     40  ND2       28.1810   39.6170   48.6140 N.am  171  ASN171     -0.0877
     41  N         28.1150   34.4650   49.3430 N.am  172  GLY172     -0.1957
     42  CA        27.4100   33.1990   49.2740 C.3   172  GLY172      0.1869
     43  C         27.4030   32.4030   50.5620 C.2   172  GLY172      0.2309
     44  O         27.0960   31.2080   50.5500 O.2   172  GLY172     -0.2863
     45  N         20.7660   31.9710   52.4520 N.3   204  ASN204     -0.1240
     46  CA        21.4560   31.1080   51.4980 C.3   204  ASN204      0.1653
     47  C         21.2000   29.6320   51.7660 C.2   204  ASN204      0.2266
     48  O         21.2830   28.8230   50.8340 O.2   204  ASN204     -0.2867
     49  CB        22.9580   31.3910   51.5090 C.3   204  ASN204      0.1155
     50  CG        23.3370   32.5570   50.6160 C.2   204  ASN204      0.2627
     51  OD1       22.6620   32.8460   49.6270 O.2   204  ASN204     -0.2716
     52  ND2       24.4200   33.2350   50.9610 N.am  204  ASN204     -0.0877
     53  N         20.2280   26.3250   41.9470 N.3   210  ARG210     -0.1245
     54  CA        19.9830   27.0920   40.7260 C.3   210  ARG210      0.1563
     55  C         19.7040   26.1870   39.5290 C.2   210  ARG210      0.2260
     56  O         18.8720   26.5230   38.6760 O.2   210  ARG210     -0.2867
     57  CB        21.1720   28.0140   40.4400 C.3   210  ARG210      0.0307
     58  CG        21.0680   29.3730   41.1410 C.3   210  ARG210      0.0489
     59  CD        22.4230   30.0750   41.3450 C.3   210  ARG210      0.2205
     60  NE        23.0320   29.8630   42.6610 N.pl3 210  ARG210     -0.0865
     61  CZ        22.4600   30.1550   43.8310 C.cat 210  ARG210      0.5346
     62  NH1       21.2290   30.6480   43.8980 N.pl3 210  ARG210      0.1354
     63  NH2       23.1240   29.9300   44.9550 N.pl3 210  ARG210      0.1354
     64  N         11.3610   47.4040   37.6730 N.3   265  HIS265     -0.1241
     65  CA        12.8040   47.4190   37.8440 C.3   265  HIS265      0.1621
     66  C         13.3700   48.7370   37.3130 C.2   265  HIS265      0.2264
     67  O         12.8190   49.3140   36.3720 O.2   265  HIS265     -0.2867
     68  CB        13.4140   46.2350   37.0900 C.3   265  HIS265      0.0745
     69  CG        14.8680   46.0030   37.3670 C.ar  265  HIS265      0.0817
     70  ND1       15.8570   46.3900   36.4910 N.ar  265  HIS265     -0.2268
     71  CD2       15.5000   45.4050   38.4050 C.ar  265  HIS265      0.1154
     72  CE1       17.0360   46.0550   36.9820 C.ar  265  HIS265      0.1986
     73  NE2       16.8470   45.4560   38.1430 N.ar  265  HIS265     -0.2212
     74  N         15.6930   49.2780   35.3210 N.3   267  LEU267     -0.1245
     75  CA        15.9100   49.1560   33.8820 C.3   267  LEU267      0.1561
     76  C         14.6140   49.1580   33.0850 C.2   267  LEU267      0.2260
     77  O         14.6390   48.8610   31.8850 O.2   267  LEU267     -0.2867
     78  CB        16.6910   47.8780   33.5500 C.3   267  LEU267      0.0270
     79  CG        18.2110   47.9490   33.3900 C.3   267  LEU267      0.0019
     80  CD1       18.6830   46.6430   32.7860 C.3   267  LEU267      0.0001
     81  CD2       18.6750   49.1200   32.5260 C.3   267  LEU267      0.0001
     82  N         12.3840   40.0830   35.6140 N.3   279  LEU279     -0.1245
     83  CA        13.7420   39.8760   36.1030 C.3   279  LEU279      0.1561
     84  C         13.8860   38.5110   36.7570 C.2   279  LEU279      0.2260
     85  O         14.8510   37.7850   36.4920 O.2   279  LEU279     -0.2867
     86  CB        14.1120   40.9830   37.0880 C.3   279  LEU279      0.0270
     87  CG        15.4490   40.8110   37.8080 C.3   279  LEU279      0.0019
     88  CD1       16.5860   40.8660   36.8090 C.3   279  LEU279      0.0001
     89  CD2       15.6060   41.8780   38.8610 C.3   279  LEU279      0.0001
     90  N         13.7640   35.9010   33.9750 N.3   282  PHE282     -0.1227
     91  CA        14.9780   35.9730   33.1690 C.3   282  PHE282      0.1736
     92  C         16.1490   35.2880   33.8650 C.2   282  PHE282      0.2595
     93  O         16.8500   34.4650   33.2640 O.2   282  PHE282     -0.2718
     94  CB        15.3000   37.4390   32.8820 C.3   282  PHE282      0.0547
     95  CG        16.5820   37.6460   32.1440 C.ar  282  PHE282     -0.0202
     96  CD1       16.8410   36.9580   30.9730 C.ar  282  PHE282     -0.0042
     97  CD2       17.5310   38.5350   32.6180 C.ar  282  PHE282     -0.0042
     98  CE1       18.0210   37.1490   30.2920 C.ar  282  PHE282     -0.0003
     99  CE2       18.7130   38.7300   31.9380 C.ar  282  PHE282     -0.0003
    100  CZ        18.9600   38.0380   30.7720 C.ar  282  PHE282     -0.0000
    101  N         16.3830   35.6250   35.1360 N.am  283  LEU283     -0.1980
    102  CA        17.5050   35.0460   35.8670 C.3   283  LEU283      0.1596
    103  C         17.2730   33.5770   36.1740 C.2   283  LEU283      0.2287
    104  O         18.2280   32.7920   36.2120 O.2   283  LEU283     -0.2864
    105  CB        17.7370   35.8130   37.1660 C.3   283  LEU283      0.0297
    106  CG        17.9860   37.3110   37.0320 C.3   283  LEU283      0.0022
    107  CD1       18.0010   37.9510   38.4110 C.3   283  LEU283      0.0001
    108  CD2       19.2910   37.5490   36.2930 C.3   283  LEU283      0.0001
    109  N         20.6390   31.5540   37.1170 N.3   288  VAL288     -0.1245
    110  CA        21.5330   32.4180   37.8820 C.3   288  VAL288      0.1561
    111  C         20.7370   33.1820   38.9360 C.2   288  VAL288      0.2260
    112  O         21.1970   34.2060   39.4510 O.2   288  VAL288     -0.2867
    113  CB        22.3090   33.3760   36.9520 C.3   288  VAL288      0.0252
    114  CG1       23.1230   32.5800   35.9370 C.3   288  VAL288      0.0019
    115  CG2       21.3670   34.3330   36.2340 C.3   288  VAL288      0.0019
    116  N         19.5180   34.4760   42.3190 N.3   290  PRO290     -0.2116
    117  CA        20.0940   34.4490   43.6730 C.3   290  PRO290      0.1372
    118  C         19.2520   33.6740   44.6670 C.2   290  PRO290      0.2244
    119  O         19.7790   33.2520   45.7050 O.2   290  PRO290     -0.2868
    120  CB        20.1940   35.9350   44.0480 C.3   290  PRO290      0.0268
    121  CG        19.2160   36.6260   43.1720 C.3   290  PRO290      0.0207
    122  CD        19.1550   35.8420   41.9010 C.3   290  PRO290      0.0892
    123  N         18.2750   47.0460   42.1220 N.3   358  VAL358     -0.1231
    124  CA        18.8340   46.3230   40.9840 C.3   358  VAL358      0.1692
    125  C         18.5450   44.8300   41.0960 C.2   358  VAL358      0.2592
    126  O         18.0320   44.2160   40.1530 O.2   358  VAL358     -0.2718
    127  CB        20.3430   46.5990   40.8570 C.3   358  VAL358      0.0266
    128  CG1       20.9260   45.8330   39.6720 C.3   358  VAL358      0.0020
    129  CG2       20.5960   48.0950   40.6990 C.3   358  VAL358      0.0020
    130  N         18.8730   44.2150   42.2350 N.am  359  ASP359     -0.1974
    131  CA        18.7160   42.7700   42.3440 C.3   359  ASP359      0.1709
    132  C         17.3690   42.3520   42.9210 C.2   359  ASP359      0.2293
    133  O         17.0210   41.1700   42.8280 O.2   359  ASP359     -0.2864
    134  CB        19.8660   42.1590   43.1690 C.3   359  ASP359      0.1436
    135  CG        19.8690   42.5990   44.6220 C.2   359  ASP359      0.3671
    136  OD1       18.8090   42.5130   45.2810 O.co2 359  ASP359     -0.2456
    137  OD2       20.9490   43.0160   45.1080 O.co2 359  ASP359     -0.2456
    138  N         16.2580   41.6670   45.8180 N.3   361  PHE361     -0.1227
    139  CA        16.4340   40.4950   46.6660 C.3   361  PHE361      0.1736
    140  C         17.0210   40.8650   48.0260 C.2   361  PHE361      0.2595
    141  O         16.4220   40.5660   49.0640 O.2   361  PHE361     -0.2718
    142  CB        17.3280   39.4730   45.9590 C.3   361  PHE361      0.0547
    143  CG        17.6850   38.2830   46.8070 C.ar  361  PHE361     -0.0202
    144  CD1       16.7030   37.4330   47.2940 C.ar  361  PHE361     -0.0042
    145  CD2       19.0070   38.0070   47.1110 C.ar  361  PHE361     -0.0042
    146  CE1       17.0370   36.3390   48.0720 C.ar  361  PHE361     -0.0003
    147  CE2       19.3440   36.9140   47.8850 C.ar  361  PHE361     -0.0003
    148  CZ        18.3550   36.0770   48.3670 C.ar  361  PHE361     -0.0000
    149  N         18.1990   41.5070   48.0390 N.am  362  HIS362     -0.1975
    150  CA        18.8070   41.8520   49.3160 C.3   362  HIS362      0.1656
    151  C         18.1340   43.0760   49.9340 C.2   362  HIS362      0.2291
    152  O         17.6860   43.9770   49.2180 O.2   362  HIS362     -0.2864
    153  CB        20.2880   42.1550   49.1580 C.3   362  HIS362      0.0771
    154  CG        21.0730   41.0640   48.5090 C.ar  362  HIS362      0.0820
    155  ND1       21.6820   41.2190   47.2830 N.ar  362  HIS362     -0.2267
    156  CD2       21.3760   39.8130   48.9270 C.ar  362  HIS362      0.1154
    157  CE1       22.3190   40.1070   46.9680 C.ar  362  HIS362      0.1986
    158  NE2       22.1480   39.2360   47.9480 N.ar  362  HIS362     -0.2212
@<TRIPOS>BOND
     1    98   100   ar
     2    98    96   ar
     3   100    99   ar
     4    96    95   ar
     5    77    76    2
     6    99    97   ar
     7    95    97   ar
     8    95    94    1
     9    81    79    1
    10    80    79    1
    11    94    91    1
    12    76    75    1
    13    91    92    1
    14    91    90    1
    15    93    92    2
    16    79    78    1
    17    78    75    1
    18    28    27    2
    19    92   101   am
    20    75    74    1
    21    32    30    1
    22    27    26    1
    23    26    29    1
    24    26    25    1
    25   101   102    1
    26    29    30    1
    27    82    83    1
    28    30    31    1
    29   102   103    1
    30   102   105    1
    31   114   113    1
    32    83    84    1
    33    83    86    1
    34   103   104    2
    35   115   113    1
    36   108   106    1
    37    67    66    2
    38    70    72   ar
    39    70    69   ar
    40    85    84    2
    41    88    87    1
    42   113   110    1
    43    72    73   ar
    44   106   105    1
    45   106   107    1
    46    86    87    1
    47    68    69    1
    48    68    65    1
    49   109   110    1
    50    66    65    1
    51    69    71   ar
    52    64    65    1
    53    87    89    1
    54   110   111    1
    55    73    71   ar
    56    56    55    2
    57   111   112    2
    58    55    54    1
    59   128   127    1
    60   126   125    2
    61    23    21    1
    62    57    54    1
    63    57    58    1
    64   129   127    1
    65    54    53    1
    66    24    22    1
    67   127   124    1
    68   124   125    1
    69   124   123    1
    70   125   130   am
    71    58    59    1
    72    59    60    1
    73    21    22    1
    74    21    18    1
    75   122   116    1
    76   122   121    1
    77   130   131    1
    78   116   117    1
    79   131   132    1
    80   131   134    1
    81    60    61    2
    82    19    20    2
    83    19    18    1
    84   133   132    2
    85    18    17    1
    86   134   135    1
    87   121   120    1
    88   117   120    1
    89   117   118    1
    90    61    62    1
    91    61    63    1
    92    16    15   ar
    93    16    14   ar
    94    15    13   ar
    95   135   137   ar
    96   135   136   ar
    97   118   119    2
    98    14    12   ar
    99   138   139    1
   100    13    11   ar
   101   142   139    1
   102   142   143    1
   103    12    11   ar
   104   139   140    1
   105    11    10    1
   106   143   145   ar
   107   143   144   ar
   108   157   155   ar
   109   157   158   ar
   110    39    38    2
   111   145   147   ar
   112   155   154   ar
   113   144   146   ar
   114    38    37    1
   115    38    40   am
   116   147   148   ar
   117   158   156   ar
   118    37    34    1
   119   140   149   am
   120   140   141    2
   121   149   150    1
   122   146   148   ar
   123     8     9    2
   124     8     7    1
   125    10     7    1
   126   154   156   ar
   127   154   153    1
   128     7     6    1
   129   153   150    1
   130   152   151    2
   131    42    41    1
   132    42    43    1
   133   150   151    1
   134    41    35   am
   135    34    35    1
   136    34    33    1
   137    35    36    2
   138    51    50    2
   139     5     2    1
   140    44    43    2
   141    50    52   am
   142    50    49    1
   143    48    47    2
   144     2     3    1
   145     2     1    1
   146    46    49    1
   147    46    47    1
   148    46    45    1
   149     4     3    2
