@<TRIPOS>MOLECULE
tmp/5w7bB18.pdb
 78 71 0 0 0
SMALL
GASTEIGER

@<TRIPOS>ATOM
      1  N        -35.5990   34.2450  -23.4540 N.3    13  ILE13      -0.1245
      2  CA       -34.5360   34.1080  -24.4480 C.3    13  ILE13       0.1561
      3  C        -34.6710   35.1890  -25.5040 C.2    13  ILE13       0.2260
      4  O        -33.7610   35.9980  -25.7210 O.2    13  ILE13      -0.2867
      5  CB       -34.5770   32.7130  -25.0900 C.3    13  ILE13       0.0252
      6  CG1      -34.3170   31.6460  -24.0320 C.3    13  ILE13       0.0019
      7  CG2      -33.5690   32.6210  -26.2380 C.3    13  ILE13       0.0019
      8  CD1      -35.0950   30.3850  -24.2600 C.3    13  ILE13       0.0001
      9  N        -33.2710   38.4300  -24.7120 N.3    16  ALA16      -0.1231
     10  CA       -31.8230   38.6330  -24.7020 C.3    16  ALA16       0.1694
     11  C        -31.3090   38.9050  -26.1080 C.2    16  ALA16       0.2591
     12  O        -30.5220   39.8340  -26.3330 O.2    16  ALA16      -0.2718
     13  CB       -31.1320   37.4050  -24.1100 C.3    16  ALA16       0.0304
     14  N        -31.7420   38.0790  -27.0610 N.am   17  ILE17      -0.1980
     15  CA       -31.4740   38.3060  -28.4790 C.3    17  ILE17       0.1595
     16  C        -31.7190   39.7650  -28.8300 C.2    17  ILE17       0.2287
     17  O        -30.8170   40.4960  -29.2570 O.2    17  ILE17      -0.2864
     18  CB       -32.3720   37.3930  -29.3320 C.3    17  ILE17       0.0276
     19  CG1      -32.1390   35.9260  -28.9510 C.3    17  ILE17       0.0022
     20  CG2      -32.1880   37.6830  -30.8260 C.3    17  ILE17       0.0022
     21  CD1      -33.0030   34.9370  -29.6600 C.3    17  ILE17       0.0001
     22  N        -27.1610   42.7950  -26.4380 N.3    21  VAL21      -0.1245
     23  CA       -26.0630   43.0780  -25.5200 C.3    21  VAL21       0.1561
     24  C        -25.6050   41.7560  -24.9240 C.2    21  VAL21       0.2260
     25  O        -26.3650   40.7770  -24.8850 O.2    21  VAL21      -0.2867
     26  CB       -26.4810   44.0820  -24.4220 C.3    21  VAL21       0.0252
     27  CG1      -26.7470   45.4420  -25.0420 C.3    21  VAL21       0.0019
     28  CG2      -27.7080   43.5840  -23.6870 C.3    21  VAL21       0.0019
     29  N        -24.8800   38.6160  -22.7640 N.3    23  ILE23      -0.1245
     30  CA       -25.4830   37.9550  -21.6180 C.3    23  ILE23       0.1561
     31  C        -24.4880   37.8490  -20.4700 C.2    23  ILE23       0.2260
     32  O        -24.8720   37.9400  -19.2970 O.2    23  ILE23      -0.2867
     33  CB       -26.0020   36.5870  -22.0820 C.3    23  ILE23       0.0252
     34  CG1      -27.1550   36.8130  -23.0640 C.3    23  ILE23       0.0019
     35  CG2      -26.3960   35.7280  -20.9000 C.3    23  ILE23       0.0019
     36  CD1      -27.9080   35.5690  -23.4570 C.3    23  ILE23       0.0001
     37  N        -22.8420   34.9140  -27.6170 N.3    37  LEU37      -0.1231
     38  CA       -23.9650   35.5610  -26.9670 C.3    37  LEU37       0.1693
     39  C        -23.6970   37.0560  -26.8520 C.2    37  LEU37       0.2591
     40  O        -23.7260   37.6440  -25.7690 O.2    37  LEU37      -0.2718
     41  CB       -24.2520   34.9370  -25.6010 C.3    37  LEU37       0.0284
     42  CG       -24.4220   33.4170  -25.5940 C.3    37  LEU37       0.0019
     43  CD1      -24.3200   32.9490  -24.1670 C.3    37  LEU37       0.0001
     44  CD2      -25.7430   32.9950  -26.2110 C.3    37  LEU37       0.0001
     45  N        -23.3730   37.6550  -27.9980 N.am   38  ARG38      -0.1980
     46  CA       -23.1120   39.0840  -28.1300 C.3    38  ARG38       0.1597
     47  C        -21.8730   39.5210  -27.3500 C.2    38  ARG38       0.2287
     48  O        -21.7420   40.7010  -26.9930 O.2    38  ARG38      -0.2864
     49  CB       -24.3530   39.8910  -27.7210 C.3    38  ARG38       0.0334
     50  CG       -25.4920   39.7620  -28.7480 C.3    38  ARG38       0.0492
     51  CD       -25.2460   40.6400  -29.9790 C.3    38  ARG38       0.2205
     52  NE       -26.0160   40.2210  -31.1510 N.pl3  38  ARG38      -0.0865
     53  CZ       -26.1150   40.9310  -32.2730 C.cat  38  ARG38       0.5346
     54  NH1      -25.5000   42.1030  -32.3780 N.pl3  38  ARG38       0.1354
     55  NH2      -26.8330   40.4750  -33.2910 N.pl3  38  ARG38       0.1354
     56  N        -24.2730   28.9040  -33.4920 N.3   133  VAL133     -0.1231
     57  CA       -25.6460   29.0800  -33.0350 C.3   133  VAL133      0.1692
     58  C        -25.7280   30.1590  -31.9640 C.2   133  VAL133      0.2592
     59  O        -26.6280   31.0070  -31.9890 O.2   133  VAL133     -0.2718
     60  CB       -26.2200   27.7390  -32.5430 C.3   133  VAL133      0.0266
     61  CG1      -27.5370   27.9500  -31.8120 C.3   133  VAL133      0.0020
     62  CG2      -26.4320   26.8170  -33.7170 C.3   133  VAL133      0.0020
     63  N        -24.8090   30.1530  -31.0040 N.am  134  THR134     -0.1953
     64  CA       -24.8560   31.1770  -29.9710 C.3   134  THR134      0.1897
     65  C        -24.3670   32.5320  -30.4730 C.2   134  THR134      0.2313
     66  O        -24.4270   33.5130  -29.7220 O.2   134  THR134     -0.2863
     67  CB       -24.0580   30.7270  -28.7430 C.3   134  THR134      0.1794
     68  OG1      -22.6830   30.5290  -29.0990 O.3   134  THR134     -0.2208
     69  CG2      -24.6380   29.4200  -28.1950 C.3   134  THR134      0.0378
     70  N        -25.9340   33.5590  -33.2980 N.3   136  GLU136     -0.1245
     71  CA       -27.0640   33.8600  -34.1720 C.3   136  GLU136      0.1567
     72  C        -26.7250   33.5520  -35.6350 C.2   136  GLU136      0.2260
     73  O        -27.2560   34.1750  -36.5570 O.2   136  GLU136     -0.2867
     74  CB       -27.5060   35.3210  -33.9870 C.3   136  GLU136      0.0388
     75  CG       -27.7470   35.7030  -32.5060 C.3   136  GLU136      0.1160
     76  CD       -27.7170   37.2020  -32.2500 C.2   136  GLU136      0.3649
     77  OE1      -28.4980   37.9330  -32.8940 O.co2 136  GLU136     -0.2457
     78  OE2      -26.9140   37.6490  -31.4010 O.co2 136  GLU136     -0.2457
@<TRIPOS>BOND
     1    73    72    2
     2    72    71    1
     3    71    74    1
     4    71    70    1
     5    74    75    1
     6    62    60    1
     7    56    57    1
     8    55    53    1
     9    57    60    1
    10    57    58    1
    11    77    76   ar
    12    60    61    1
    13    75    76    1
    14    54    53    1
    15    53    52    2
    16    76    78   ar
    17    59    58    2
    18    58    63   am
    19    52    51    1
    20    63    64    1
    21    20    18    1
    22    65    64    1
    23    65    66    2
    24    51    50    1
    25    64    67    1
    26    21    19    1
    27    18    19    1
    28    18    15    1
    29    17    16    2
    30    68    67    1
    31    16    15    1
    32    50    49    1
    33    67    69    1
    34    15    14    1
    35    46    45    1
    36    46    49    1
    37    46    47    1
    38    45    39   am
    39    37    38    1
    40    47    48    2
    41    14    11   am
    42    38    39    1
    43    38    41    1
    44    39    40    2
    45    22    23    1
    46    12    11    2
    47     7     5    1
    48    44    42    1
    49    11    10    1
    50     4     3    2
    51    41    42    1
    52    42    43    1
    53    23    24    1
    54    23    26    1
    55     3     2    1
    56     5     2    1
    57     5     6    1
    58    27    26    1
    59    24    25    2
    60     9    10    1
    61    10    13    1
    62     2     1    1
    63    26    28    1
    64     8     6    1
    65    36    34    1
    66    34    33    1
    67    29    30    1
    68    33    30    1
    69    33    35    1
    70    30    31    1
    71    31    32    2
