@<TRIPOS>MOLECULE
tmp/5w7bD13.pdb
 127 117 0 0 0
SMALL
GASTEIGER

@<TRIPOS>ATOM
      1  N        -19.3140   -9.7370   -8.3280 N.3   100  LEU100     -0.1245
      2  CA       -20.1200   -9.3470   -7.1800 C.3   100  LEU100      0.1561
      3  C        -21.5760   -9.2370   -7.6020 C.2   100  LEU100      0.2260
      4  O        -21.9180   -8.4290   -8.4750 O.2   100  LEU100     -0.2867
      5  CB       -19.6360   -8.0290   -6.5760 C.3   100  LEU100      0.0270
      6  CG       -20.4180   -7.5800   -5.3360 C.3   100  LEU100      0.0019
      7  CD1      -20.2970   -8.6200   -4.2280 C.3   100  LEU100      0.0001
      8  CD2      -19.9630   -6.2100   -4.8390 C.3   100  LEU100      0.0001
      9  N        -25.7750   -5.1650   -3.8370 N.3   103  ASP103     -0.1239
     10  CA       -26.7980   -4.1310   -3.7670 C.3   103  ASP103      0.1674
     11  C        -26.1290   -2.7620   -3.7480 C.2   103  ASP103      0.2266
     12  O        -25.0040   -2.6200   -4.2380 O.2   103  ASP103     -0.2867
     13  CB       -27.6670   -4.3460   -2.5260 C.3   103  ASP103      0.1410
     14  CG       -26.8380   -4.5260   -1.2670 C.2   103  ASP103      0.3668
     15  OD1      -25.6660   -4.0970   -1.2680 O.co2 103  ASP103     -0.2456
     16  OD2      -27.3500   -5.1070   -0.2860 O.co2 103  ASP103     -0.2456
     17  N        -24.7160   -1.2660   -1.3800 N.3   105  ALA105     -0.1231
     18  CA       -23.4390   -1.3440   -0.6800 C.3   105  ALA105      0.1694
     19  C        -22.3670   -1.9670   -1.5630 C.2   105  ALA105      0.2592
     20  O        -21.2070   -1.5370   -1.5410 O.2   105  ALA105     -0.2718
     21  CB       -23.5970   -2.1410    0.6150 C.3   105  ALA105      0.0304
     22  N        -22.7380   -2.9780   -2.3510 N.am  106  GLY106     -0.1957
     23  CA       -21.7690   -3.6200   -3.2230 C.3   106  GLY106      0.1869
     24  C        -21.3400   -2.7310   -4.3760 C.2   106  GLY106      0.2309
     25  O        -20.1830   -2.7750   -4.8070 O.2   106  GLY106     -0.2863
     26  N        -15.0880   -2.0370   -2.3930 N.3   144  GLY144     -0.1210
     27  CA       -14.2380   -2.9860   -1.6980 C.3   144  GLY144      0.1956
     28  C        -14.0760   -4.3170   -2.4020 C.2   144  GLY144      0.2612
     29  O        -13.0780   -5.0060   -2.1700 O.2   144  GLY144     -0.2717
     30  N        -15.0340   -4.7070   -3.2450 N.am  145  THR145     -0.1952
     31  CA       -14.8600   -5.9410   -4.0030 C.3   145  THR145      0.1897
     32  C        -14.2200   -5.7120   -5.3700 C.2   145  THR145      0.2313
     33  O        -13.3380   -6.4820   -5.7650 O.2   145  THR145     -0.2863
     34  CB       -16.1970   -6.6670   -4.1810 C.3   145  THR145      0.1794
     35  OG1      -16.7870   -6.9100   -2.8970 O.3   145  THR145     -0.2208
     36  CG2      -15.9770   -8.0070   -4.8750 C.3   145  THR145      0.0378
     37  N        -10.9700   -6.7410   -3.2610 N.3   155  ILE155     -0.1245
     38  CA       -10.8160   -8.1580   -3.5810 C.3   155  ILE155      0.1561
     39  C        -10.2180   -8.3180   -4.9700 C.2   155  ILE155      0.2260
     40  O         -9.3720   -9.1910   -5.2020 O.2   155  ILE155     -0.2867
     41  CB       -12.1620   -8.9000   -3.4680 C.3   155  ILE155      0.0252
     42  CG1      -12.7000   -8.8560   -2.0330 C.3   155  ILE155      0.0019
     43  CG2      -12.0000  -10.3560   -3.9310 C.3   155  ILE155      0.0019
     44  CD1      -11.8000   -9.5130   -1.0060 C.3   155  ILE155      0.0001
     45  N        -19.4660  -13.6350   -5.3580 N.3   203  ILE203     -0.1245
     46  CA       -19.8900  -13.2430   -4.0280 C.3   203  ILE203      0.1561
     47  C        -21.3130  -12.7410   -4.1440 C.2   203  ILE203      0.2260
     48  O        -21.5790  -11.7610   -4.8520 O.2   203  ILE203     -0.2867
     49  CB       -18.9750  -12.1710   -3.4270 C.3   203  ILE203      0.0252
     50  CG1      -17.5800  -12.7480   -3.1920 C.3   203  ILE203      0.0019
     51  CG2      -19.5750  -11.6570   -2.1260 C.3   203  ILE203      0.0019
     52  CD1      -16.5880  -11.7250   -2.7150 C.3   203  ILE203      0.0001
     53  N        -23.9220  -10.9450   -2.1350 N.3   205  ALA205     -0.1245
     54  CA       -23.9440  -10.0980   -0.9400 C.3   205  ALA205      0.1562
     55  C        -25.1060   -9.1150   -1.0430 C.2   205  ALA205      0.2260
     56  O        -24.9230   -7.9430   -1.3820 O.2   205  ALA205     -0.2867
     57  CB       -22.6120   -9.3750   -0.7610 C.3   205  ALA205      0.0290
     58  N        -27.1250   -7.4290    1.3650 N.3   207  ILE207     -0.1245
     59  CA       -26.9640   -7.3100    2.8090 C.3   207  ILE207      0.1561
     60  C        -28.1210   -6.6070    3.4950 C.2   207  ILE207      0.2260
     61  O        -28.1080   -6.4970    4.7290 O.2   207  ILE207     -0.2867
     62  CB       -25.6530   -6.5820    3.1800 C.3   207  ILE207      0.0252
     63  CG1      -25.6140   -5.1500    2.6350 C.3   207  ILE207      0.0019
     64  CG2      -24.4740   -7.3770    2.6720 C.3   207  ILE207      0.0019
     65  CD1      -24.4700   -4.3410    3.2180 C.3   207  ILE207      0.0001
     66  N        -23.0820  -14.3520    1.3870 N.3   253  TYR253     -0.1241
     67  CA       -22.7070  -13.4680    2.4800 C.3   253  TYR253      0.1605
     68  C        -23.9450  -13.0810    3.2730 C.2   253  TYR253      0.2264
     69  O        -24.9870  -12.7580    2.6950 O.2   253  TYR253     -0.2867
     70  CB       -22.0080  -12.2200    1.9450 C.3   253  TYR253      0.0534
     71  CG       -21.1100  -11.5550    2.9550 C.ar  253  TYR253     -0.0201
     72  CD1      -21.5410  -10.4450    3.6670 C.ar  253  TYR253     -0.0009
     73  CD2      -19.8270  -12.0300    3.1890 C.ar  253  TYR253     -0.0009
     74  CE1      -20.7210   -9.8270    4.5860 C.ar  253  TYR253      0.0417
     75  CE2      -18.9990  -11.4230    4.1090 C.ar  253  TYR253      0.0417
     76  CZ       -19.4520  -10.3220    4.8060 C.ar  253  TYR253      0.1957
     77  OH       -18.6300   -9.7160    5.7260 O.3   253  TYR253     -0.2866
     78  N        -21.7420  -11.9410    8.1380 N.3   340  PHE340     -0.1241
     79  CA       -21.4370  -10.5210    8.0180 C.3   340  PHE340      0.1605
     80  C        -20.5000  -10.1290    9.1570 C.2   340  PHE340      0.2264
     81  O        -20.8860  -10.1680   10.3300 O.2   340  PHE340     -0.2867
     82  CB       -22.7520   -9.7500    8.0460 C.3   340  PHE340      0.0534
     83  CG       -22.6250   -8.2780    7.8180 C.ar  340  PHE340     -0.0203
     84  CD1      -22.8230   -7.7350    6.5600 C.ar  340  PHE340     -0.0042
     85  CD2      -22.3570   -7.4300    8.8730 C.ar  340  PHE340     -0.0042
     86  CE1      -22.7310   -6.3750    6.3580 C.ar  340  PHE340     -0.0003
     87  CE2      -22.2580   -6.0710    8.6820 C.ar  340  PHE340     -0.0003
     88  CZ       -22.4470   -5.5400    7.4220 C.ar  340  PHE340     -0.0000
     89  N        -22.7910    1.3000    4.4550 N.3   368  PRO368     -0.2116
     90  CA       -21.3700    1.3650    4.7980 C.3   368  PRO368      0.1372
     91  C        -20.6530    2.2230    3.7710 C.2   368  PRO368      0.2244
     92  O        -20.9900    2.2100    2.5860 O.2   368  PRO368     -0.2868
     93  CB       -20.9160   -0.0980    4.7410 C.3   368  PRO368      0.0268
     94  CG       -21.8970   -0.7700    3.8550 C.3   368  PRO368      0.0207
     95  CD       -23.1990   -0.0620    4.0640 C.3   368  PRO368      0.0892
     96  N        -16.3090   -0.6410    3.5450 N.3   373  LEU373     -0.1245
     97  CA       -16.3100   -1.6470    2.4880 C.3   373  LEU373      0.1561
     98  C        -14.9510   -2.3160    2.3490 C.2   373  LEU373      0.2260
     99  O        -14.8690   -3.5330    2.1490 O.2   373  LEU373     -0.2867
    100  CB       -16.7370   -1.0060    1.1670 C.3   373  LEU373      0.0270
    101  CG       -18.2170   -0.6150    1.1430 C.3   373  LEU373      0.0019
    102  CD1      -18.5830    0.1980   -0.0940 C.3   373  LEU373      0.0001
    103  CD2      -19.1030   -1.8550    1.2340 C.3   373  LEU373      0.0001
    104  N        -14.4350   -4.7870    5.2910 N.3   376  PHE376     -0.1227
    105  CA       -15.1360   -6.0350    5.0170 C.3   376  PHE376      0.1736
    106  C        -14.3740   -6.8740    4.0050 C.2   376  PHE376      0.2595
    107  O        -14.2200   -8.0870    4.1830 O.2   376  PHE376     -0.2718
    108  CB       -16.5490   -5.7560    4.5210 C.3   376  PHE376      0.0547
    109  CG       -17.5020   -5.4080    5.6140 C.ar  376  PHE376     -0.0202
    110  CD1      -18.0040   -6.3930    6.4480 C.ar  376  PHE376     -0.0042
    111  CD2      -17.8880   -4.0960    5.8210 C.ar  376  PHE376     -0.0042
    112  CE1      -18.8760   -6.0770    7.4700 C.ar  376  PHE376     -0.0003
    113  CE2      -18.7620   -3.7710    6.8350 C.ar  376  PHE376     -0.0003
    114  CZ       -19.2540   -4.7630    7.6640 C.ar  376  PHE376     -0.0000
    115  N        -13.8690   -6.2450    2.9420 N.am  377  ALA377     -0.1980
    116  CA       -13.0950   -6.9950    1.9600 C.3   377  ALA377      0.1597
    117  C        -11.8740   -7.6200    2.6150 C.2   377  ALA377      0.2287
    118  O        -11.5230   -8.7700    2.3290 O.2   377  ALA377     -0.2864
    119  CB       -12.6720   -6.0850    0.8050 C.3   377  ALA377      0.0319
    120  N        -13.0090  -10.6400    4.6790 N.3   380  LEU380     -0.1245
    121  CA       -13.3490  -11.7620    3.8160 C.3   380  LEU380      0.1561
    122  C        -12.0910  -12.4070    3.2610 C.2   380  LEU380      0.2260
    123  O        -11.9370  -13.6330    3.2970 O.2   380  LEU380     -0.2867
    124  CB       -14.2570  -11.3040    2.6770 C.3   380  LEU380      0.0270
    125  CG       -14.6610  -12.4250    1.7170 C.3   380  LEU380      0.0019
    126  CD1      -16.0390  -12.1290    1.1770 C.3   380  LEU380      0.0001
    127  CD2      -13.6620  -12.5910    0.5670 C.3   380  LEU380      0.0001
@<TRIPOS>BOND
     1     4     3    2
     2     1     2    1
     3     3     2    1
     4     2     5    1
     5     5     6    1
     6    33    32    2
     7    32    31    1
     8    45    46    1
     9     6     8    1
    10     6     7    1
    11    40    39    2
    12    39    38    1
    13    36    34    1
    14    48    47    2
    15    25    24    2
    16    24    23    1
    17    12    11    2
    18    34    31    1
    19    34    35    1
    20    47    46    1
    21    46    49    1
    22    31    30    1
    23    43    41    1
    24     9    10    1
    25    10    11    1
    26    10    13    1
    27    38    41    1
    28    38    37    1
    29    41    42    1
    30    49    50    1
    31    49    51    1
    32    30    28   am
    33    23    22    1
    34    50    52    1
    35    13    14    1
    36    28    29    2
    37    28    27    1
    38    26    27    1
    39    22    19   am
    40    53    54    1
    41    42    44    1
    42    19    20    2
    43    19    18    1
    44    56    55    2
    45    17    18    1
    46    15    14   ar
    47    14    16   ar
    48    55    54    1
    49    54    57    1
    50    18    21    1
    51   102   101    1
    52   127   125    1
    53   119   116    1
    54   101   100    1
    55   101   103    1
    56   100    97    1
    57   126   125    1
    58    58    59    1
    59    66    67    1
    60   125   124    1
    61    70    67    1
    62    70    71    1
    63   116   117    1
    64   116   115    1
    65    99    98    2
    66   118   117    2
    67    98    97    1
    68    67    68    1
    69    97    96    1
    70    92    91    2
    71    63    62    1
    72    63    65    1
    73    64    62    1
    74   124   121    1
    75    69    68    2
    76    59    62    1
    77    59    60    1
    78   115   106   am
    79    71    73   ar
    80    71    72   ar
    81    73    75   ar
    82   122   123    2
    83   122   121    1
    84    60    61    2
    85    72    74   ar
    86    91    90    1
    87   121   120    1
    88    94    95    1
    89    94    93    1
    90   106   107    2
    91   106   105    1
    92    95    89    1
    93    75    76   ar
    94    89    90    1
    95   108   105    1
    96   108   109    1
    97    74    76   ar
    98    93    90    1
    99    76    77    1
   100   105   104    1
   101   109   111   ar
   102   109   110   ar
   103   111   113   ar
   104    86    84   ar
   105    86    88   ar
   106   110   112   ar
   107    84    83   ar
   108   113   114   ar
   109    88    87   ar
   110   112   114   ar
   111    83    82    1
   112    83    85   ar
   113    79    82    1
   114    79    78    1
   115    79    80    1
   116    87    85   ar
   117    80    81    2
