@<TRIPOS>MOLECULE
tmp/5w7bB04.pdb
 98 96 0 0 0
SMALL
GASTEIGER

@<TRIPOS>ATOM
      1  N        -24.5450   52.7100  -49.3290 N.3   255  GLY255     -0.1210
      2  CA       -25.6600   52.4230  -50.2020 C.3   255  GLY255      0.1956
      3  C        -26.0750   50.9650  -50.1580 C.2   255  GLY255      0.2612
      4  O        -25.3800   50.0940  -49.6370 O.2   255  GLY255     -0.2717
      5  N        -27.2470   50.7020  -50.7320 N.am  256  LEU256     -0.1965
      6  CA       -27.8310   49.3720  -50.7070 C.3   256  LEU256      0.1728
      7  C        -27.2140   48.4800  -51.7840 C.2   256  LEU256      0.2616
      8  O        -26.5130   48.9360  -52.6890 O.2   256  LEU256     -0.2715
      9  CB       -29.3470   49.4490  -50.8800 C.3   256  LEU256      0.0311
     10  CG       -30.1710   49.7770  -49.6330 C.3   256  LEU256      0.0022
     11  CD1      -29.9690   51.2030  -49.1410 C.3   256  LEU256      0.0001
     12  CD2      -31.6210   49.5320  -49.9680 C.3   256  LEU256      0.0001
     13  N        -27.4730   47.1830  -51.6710 N.am  257  ALA257     -0.1963
     14  CA       -26.8050   46.2110  -52.5250 C.3   257  ALA257      0.1728
     15  C        -27.3360   46.2150  -53.9590 C.2   257  ALA257      0.2616
     16  O        -28.4670   46.6270  -54.2310 O.2   257  ALA257     -0.2715
     17  CB       -26.9750   44.8180  -51.9370 C.3   257  ALA257      0.0334
     18  N        -26.4860   45.7530  -54.8820 N.am  258  HIS258     -0.1973
     19  CA       -26.9060   45.4200  -56.2450 C.3   258  HIS258      0.1656
     20  C        -27.3950   43.9700  -56.2550 C.2   258  HIS258      0.2291
     21  O        -26.7420   43.0520  -56.7560 O.2   258  HIS258     -0.2864
     22  CB       -25.7610   45.6200  -57.2340 C.3   258  HIS258      0.0771
     23  CG       -25.3470   47.0470  -57.4230 C.ar  258  HIS258      0.0820
     24  ND1      -24.9830   47.5550  -58.6520 N.ar  258  HIS258     -0.2267
     25  CD2      -25.2090   48.0650  -56.5420 C.ar  258  HIS258      0.1154
     26  CE1      -24.6570   48.8280  -58.5230 C.ar  258  HIS258      0.1986
     27  NE2      -24.7890   49.1640  -57.2530 N.ar  258  HIS258     -0.2212
     28  N        -35.7390   40.1500  -54.8320 N.3   300  TRP300     -0.1241
     29  CA       -34.5600   39.8160  -55.6150 C.3   300  TRP300      0.1605
     30  C        -34.3980   38.3230  -55.8520 C.2   300  TRP300      0.2264
     31  O        -33.7420   37.9350  -56.8250 O.2   300  TRP300     -0.2867
     32  CB       -33.3040   40.3570  -54.9240 C.3   300  TRP300      0.0550
     33  CG       -32.9650   41.7630  -55.2880 C.ar  300  TRP300      0.0003
     34  CD1      -33.1550   42.3750  -56.4990 C.ar  300  TRP300      0.0946
     35  CD2      -32.3580   42.7380  -54.4350 C.ar  300  TRP300      0.0152
     36  NE1      -32.7050   43.6720  -56.4440 N.ar  300  TRP300     -0.2442
     37  CE2      -32.2070   43.9190  -55.1910 C.ar  300  TRP300      0.0810
     38  CE3      -31.9190   42.7250  -53.1080 C.ar  300  TRP300      0.0012
     39  CZ2      -31.6420   45.0770  -54.6580 C.ar  300  TRP300      0.0191
     40  CZ3      -31.3690   43.8740  -52.5750 C.ar  300  TRP300      0.0001
     41  CH2      -31.2280   45.0370  -53.3540 C.ar  300  TRP300      0.0015
     42  N        -34.6550   46.4730  -57.4660 N.3   312  SER312     -0.1217
     43  CA       -33.4150   47.2040  -57.6900 C.3   312  SER312      0.1889
     44  C        -33.6760   48.6990  -57.7660 C.2   312  SER312      0.2288
     45  O        -32.9120   49.5040  -57.2170 O.2   312  SER312     -0.2866
     46  CB       -32.7410   46.7180  -58.9740 C.3   312  SER312      0.2089
     47  OG       -32.3520   45.3610  -58.8660 O.3   312  SER312     -0.2183
     48  N        -34.1100   50.0590  -54.3990 N.3   315  ALA315     -0.1231
     49  CA       -32.8200   50.0880  -53.7190 C.3   315  ALA315      0.1694
     50  C        -32.0140   51.3070  -54.1450 C.2   315  ALA315      0.2591
     51  O        -31.4090   51.9860  -53.3090 O.2   315  ALA315     -0.2718
     52  CB       -32.0450   48.8000  -53.9980 C.3   315  ALA315      0.0304
     53  N        -32.0080   51.6060  -55.4440 N.am  316  GLN316     -0.1979
     54  CA       -31.3090   52.7830  -55.9420 C.3   316  GLN316      0.1601
     55  C        -31.9560   54.0590  -55.4200 C.2   316  GLN316      0.2287
     56  O        -31.2600   55.0180  -55.0770 O.2   316  GLN316     -0.2864
     57  CB       -31.2990   52.7460  -57.4740 C.3   316  GLN316      0.0394
     58  CG       -30.5000   53.8240  -58.1970 C.3   316  GLN316      0.0908
     59  CD       -30.6860   53.7210  -59.7030 C.2   316  GLN316      0.2608
     60  OE1      -31.4220   52.8560  -60.1820 O.2   316  GLN316     -0.2717
     61  NE2      -30.0240   54.5910  -60.4560 N.am  316  GLN316     -0.0878
     62  N        -30.9120   54.4910  -51.8340 N.3   319  SER319     -0.1217
     63  CA       -29.5190   54.9160  -51.7580 C.3   319  SER319      0.1889
     64  C        -29.3870   56.3990  -52.0760 C.2   319  SER319      0.2288
     65  O        -28.6080   57.1140  -51.4340 O.2   319  SER319     -0.2866
     66  CB       -28.6500   54.0890  -52.7090 C.3   319  SER319      0.2089
     67  OG       -28.7210   52.7030  -52.4100 O.3   319  SER319     -0.2183
     68  N        -21.5480   59.8760  -47.5930 N.3   338  TYR338     -0.1241
     69  CA       -22.2300   58.7960  -48.2940 C.3   338  TYR338      0.1605
     70  C        -21.2440   58.0700  -49.2000 C.2   338  TYR338      0.2264
     71  O        -20.4140   58.7040  -49.8600 O.2   338  TYR338     -0.2867
     72  CB       -23.4080   59.3000  -49.1370 C.3   338  TYR338      0.0534
     73  CG       -23.9710   58.2320  -50.0510 C.ar  338  TYR338     -0.0201
     74  CD1      -24.8750   57.2890  -49.5760 C.ar  338  TYR338     -0.0009
     75  CD2      -23.5930   58.1610  -51.3890 C.ar  338  TYR338     -0.0009
     76  CE1      -25.3880   56.3070  -50.4040 C.ar  338  TYR338      0.0417
     77  CE2      -24.0940   57.1790  -52.2250 C.ar  338  TYR338      0.0417
     78  CZ       -24.9940   56.2570  -51.7280 C.ar  338  TYR338      0.1957
     79  OH       -25.5040   55.2810  -52.5530 O.3   338  TYR338     -0.2866
     80  N        -21.3440   54.8850  -52.2120 N.3   340  ASP340     -0.1225
     81  CA       -22.0900   53.9010  -52.9750 C.3   340  ASP340      0.1805
     82  C        -21.6120   52.4940  -52.6610 C.2   340  ASP340      0.2597
     83  O        -20.4580   52.2630  -52.2870 O.2   340  ASP340     -0.2718
     84  CB       -21.9540   54.1430  -54.4760 C.3   340  ASP340      0.1424
     85  CG       -22.7190   55.3590  -54.9410 C.2   340  ASP340      0.3668
     86  OD1      -23.9670   55.3020  -54.9390 O.co2 340  ASP340     -0.2456
     87  OD2      -22.0820   56.3650  -55.3220 O.co2 340  ASP340     -0.2456
     88  N        -22.5260   51.5520  -52.8300 N.am  341  PHE341     -0.1976
     89  CA       -22.2090   50.1390  -52.7360 C.3   341  PHE341      0.1639
     90  C        -21.2590   49.7680  -53.8710 C.2   341  PHE341      0.2290
     91  O        -21.6180   49.8690  -55.0470 O.2   341  PHE341     -0.2864
     92  CB       -23.5130   49.3560  -52.8010 C.3   341  PHE341      0.0560
     93  CG       -23.3610   47.8960  -52.6030 C.ar  341  PHE341     -0.0200
     94  CD1      -23.4600   47.3400  -51.3400 C.ar  341  PHE341     -0.0042
     95  CD2      -23.1430   47.0730  -53.6860 C.ar  341  PHE341     -0.0042
     96  CE1      -23.3310   45.9860  -51.1590 C.ar  341  PHE341     -0.0003
     97  CE2      -23.0150   45.7190  -53.5200 C.ar  341  PHE341     -0.0003
     98  CZ       -23.1100   45.1700  -52.2520 C.ar  341  PHE341     -0.0000
@<TRIPOS>BOND
     1    61    59   am
     2    60    59    2
     3    59    58    1
     4    46    47    1
     5    46    43    1
     6    24    26   ar
     7    24    23   ar
     8    26    27   ar
     9    58    57    1
    10    44    43    1
    11    44    45    2
    12    43    42    1
    13    57    54    1
    14    23    22    1
    15    23    25   ar
    16    27    25   ar
    17    22    19    1
    18    31    30    2
    19    21    20    2
    20    34    36   ar
    21    34    33   ar
    22    36    37   ar
    23    20    19    1
    24    19    18    1
    25    54    53    1
    26    54    55    1
    27    30    29    1
    28    29    32    1
    29    29    28    1
    30    53    50   am
    31    55    56    2
    32    87    85   ar
    33    33    32    1
    34    33    35   ar
    35    37    39   ar
    36    37    35   ar
    37    91    90    2
    38    85    86   ar
    39    85    84    1
    40    18    15   am
    41    39    41   ar
    42    84    81    1
    43    35    38   ar
    44    48    49    1
    45    16    15    2
    46    50    49    1
    47    50    51    2
    48    52    49    1
    49    15    14    1
    50    90    89    1
    51    95    97   ar
    52    95    93   ar
    53    97    98   ar
    54    41    40   ar
    55    38    40   ar
    56    81    82    1
    57    81    80    1
    58    88    89    1
    59    88    82   am
    60    92    89    1
    61    92    93    1
    62    66    67    1
    63    66    63    1
    64     8     7    2
    65    82    83    2
    66    93    94   ar
    67    79    78    1
    68    14    17    1
    69    14    13    1
    70    98    96   ar
    71    77    78   ar
    72    77    75   ar
    73    64    63    1
    74    64    65    2
    75    62    63    1
    76     7    13   am
    77     7     6    1
    78    78    76   ar
    79    75    73   ar
    80    94    96   ar
    81     9     6    1
    82     9    10    1
    83     5     6    1
    84     5     3   am
    85    76    74   ar
    86     2     3    1
    87     2     1    1
    88     3     4    2
    89    73    74   ar
    90    73    72    1
    91    12    10    1
    92    71    70    2
    93    10    11    1
    94    70    69    1
    95    72    69    1
    96    69    68    1
