@<TRIPOS>MOLECULE
tmp/5w7bB10.pdb
 91 86 0 0 0
SMALL
GASTEIGER

@<TRIPOS>ATOM
      1  N        -23.3510   36.7690  -41.6020 N.3   109  PHE109     -0.1241
      2  CA       -24.1440   35.5450  -41.5510 C.3   109  PHE109      0.1605
      3  C        -23.5460   34.4810  -42.4660 C.2   109  PHE109      0.2264
      4  O        -23.2230   34.7560  -43.6240 O.2   109  PHE109     -0.2867
      5  CB       -25.5770   35.8670  -41.9730 C.3   109  PHE109      0.0534
      6  CG       -26.5260   34.7230  -41.8460 C.ar  109  PHE109     -0.0203
      7  CD1      -27.3660   34.6300  -40.7480 C.ar  109  PHE109     -0.0042
      8  CD2      -26.5990   33.7460  -42.8320 C.ar  109  PHE109     -0.0042
      9  CE1      -28.2490   33.5770  -40.6210 C.ar  109  PHE109     -0.0003
     10  CE2      -27.4850   32.6890  -42.7180 C.ar  109  PHE109     -0.0003
     11  CZ       -28.3130   32.6070  -41.6100 C.ar  109  PHE109     -0.0000
     12  N        -23.8700   30.0260  -42.9690 N.3   111  ILE111     -0.1245
     13  CA       -24.1170   28.6210  -42.6580 C.3   111  ILE111      0.1561
     14  C        -23.0350   27.8040  -43.3570 C.2   111  ILE111      0.2260
     15  O        -22.9690   27.8210  -44.5960 O.2   111  ILE111     -0.2867
     16  CB       -25.5150   28.1730  -43.1030 C.3   111  ILE111      0.0252
     17  CG1      -26.5920   28.9090  -42.3100 C.3   111  ILE111      0.0019
     18  CG2      -25.6950   26.6760  -42.8920 C.3   111  ILE111      0.0019
     19  CD1      -27.9040   28.9730  -43.0380 C.3   111  ILE111      0.0001
     20  N        -21.9460   21.6230  -43.2890 N.3   115  TRP115     -0.1227
     21  CA       -23.0540   21.0220  -42.5530 C.3   115  TRP115      0.1737
     22  C        -24.0600   20.3300  -43.4660 C.2   115  TRP115      0.2595
     23  O        -24.9120   19.5870  -42.9690 O.2   115  TRP115     -0.2718
     24  CB       -23.8020   22.0760  -41.7330 C.3   115  TRP115      0.0564
     25  CG       -23.0050   22.7670  -40.6760 C.ar  115  TRP115      0.0003
     26  CD1      -21.7170   22.5120  -40.3030 C.ar  115  TRP115      0.0946
     27  CD2      -23.4580   23.8460  -39.8500 C.ar  115  TRP115      0.0152
     28  NE1      -21.3430   23.3660  -39.2910 N.ar  115  TRP115     -0.2442
     29  CE2      -22.3950   24.1940  -38.9960 C.ar  115  TRP115      0.0810
     30  CE3      -24.6630   24.5510  -39.7500 C.ar  115  TRP115      0.0012
     31  CZ2      -22.4990   25.2210  -38.0580 C.ar  115  TRP115      0.0191
     32  CZ3      -24.7650   25.5630  -38.8170 C.ar  115  TRP115      0.0001
     33  CH2      -23.6890   25.8920  -37.9850 C.ar  115  TRP115      0.0015
     34  N        -23.9840   20.5620  -44.7770 N.am  116  LEU116     -0.1980
     35  CA       -25.0090   20.1240  -45.7140 C.3   116  LEU116      0.1596
     36  C        -24.4570   19.3650  -46.9030 C.2   116  LEU116      0.2287
     37  O        -25.2290   19.0050  -47.7970 O.2   116  LEU116     -0.2864
     38  CB       -25.7900   21.3250  -46.2570 C.3   116  LEU116      0.0297
     39  CG       -26.5330   22.2210  -45.2800 C.3   116  LEU116      0.0022
     40  CD1      -27.3030   23.2450  -46.0780 C.3   116  LEU116      0.0001
     41  CD2      -27.4650   21.4100  -44.4130 C.3   116  LEU116      0.0001
     42  N        -18.4520   15.3430  -45.5370 N.3   121  MET121     -0.1245
     43  CA       -18.8630   15.4660  -44.1480 C.3   121  MET121      0.1570
     44  C        -18.0410   14.5340  -43.2640 C.2   121  MET121      0.2261
     45  O        -17.6590   13.4350  -43.6720 O.2   121  MET121     -0.2867
     46  CB       -20.3530   15.1570  -44.0310 C.3   121  MET121      0.0387
     47  CG       -20.9620   15.5140  -42.6990 C.3   121  MET121      0.0595
     48  SD       -22.7540   15.3660  -42.7470 S.3   121  MET121     -0.1393
     49  CE       -23.1820   16.7790  -43.7610 C.3   121  MET121      0.0692
     50  N        -18.9760   19.6180  -37.7050 N.3   126  PHE126     -0.1241
     51  CA       -19.9310   20.2620  -36.8110 C.3   126  PHE126      0.1605
     52  C        -19.2960   20.8150  -35.5420 C.2   126  PHE126      0.2264
     53  O        -20.0200   21.2340  -34.6330 O.2   126  PHE126     -0.2867
     54  CB       -21.0400   19.2740  -36.4550 C.3   126  PHE126      0.0534
     55  CG       -21.8710   18.8780  -37.6310 C.ar  126  PHE126     -0.0203
     56  CD1      -22.9220   19.6770  -38.0430 C.ar  126  PHE126     -0.0042
     57  CD2      -21.5860   17.7250  -38.3430 C.ar  126  PHE126     -0.0042
     58  CE1      -23.6860   19.3290  -39.1390 C.ar  126  PHE126     -0.0003
     59  CE2      -22.3480   17.3690  -39.4380 C.ar  126  PHE126     -0.0003
     60  CZ       -23.4000   18.1740  -39.8380 C.ar  126  PHE126     -0.0000
     61  N        -20.5530   24.2390  -34.5910 N.3   129  LEU129     -0.1245
     62  CA       -21.9940   24.4650  -34.5180 C.3   129  LEU129      0.1561
     63  C        -22.4030   25.2350  -33.2670 C.2   129  LEU129      0.2260
     64  O        -23.2020   26.1810  -33.3880 O.2   129  LEU129     -0.2867
     65  CB       -22.7140   23.1150  -34.6300 C.3   129  LEU129      0.0270
     66  CG       -24.2410   23.0720  -34.6050 C.3   129  LEU129      0.0019
     67  CD1      -24.8420   23.7700  -35.7940 C.3   129  LEU129      0.0001
     68  CD2      -24.6900   21.6380  -34.6050 C.3   129  LEU129      0.0001
     69  N        -25.8420   32.5700  -35.8400 N.3   137  LEU137     -0.1245
     70  CA       -25.3320   32.1480  -37.1490 C.3   137  LEU137      0.1561
     71  C        -24.5110   33.2310  -37.8380 C.2   137  LEU137      0.2260
     72  O        -24.2460   33.1410  -39.0420 O.2   137  LEU137     -0.2867
     73  CB       -26.4550   31.6820  -38.0850 C.3   137  LEU137      0.0270
     74  CG       -27.1540   30.3660  -37.7360 C.3   137  LEU137      0.0019
     75  CD1      -28.0920   29.9920  -38.8620 C.3   137  LEU137      0.0001
     76  CD2      -26.1660   29.2420  -37.4980 C.3   137  LEU137      0.0001
     77  N        -29.2920   40.4000  -37.8330 N.3   177  ASN177     -0.1240
     78  CA       -29.6730   39.7840  -39.1010 C.3   177  ASN177      0.1653
     79  C        -30.8100   40.5310  -39.7890 C.2   177  ASN177      0.2266
     80  O        -30.7560   40.7830  -40.9980 O.2   177  ASN177     -0.2867
     81  CB       -30.0600   38.3230  -38.8660 C.3   177  ASN177      0.1155
     82  CG       -28.8690   37.4360  -38.5220 C.2   177  ASN177      0.2627
     83  OD1      -29.0120   36.4720  -37.7640 O.2   177  ASN177     -0.2716
     84  ND2      -27.6970   37.7460  -39.0770 N.am  177  ASN177     -0.0877
     85  N        -24.8300   28.5070  -48.9950 N.3   364  VAL364     -0.1245
     86  CA       -26.0310   27.8710  -48.4640 C.3   364  VAL364      0.1561
     87  C        -27.2550   28.7660  -48.6390 C.2   364  VAL364      0.2260
     88  O        -28.3300   28.2820  -49.0100 O.2   364  VAL364     -0.2867
     89  CB       -25.8280   27.4570  -46.9940 C.3   364  VAL364      0.0252
     90  CG1      -27.1440   26.9800  -46.3930 C.3   364  VAL364      0.0019
     91  CG2      -24.8110   26.3370  -46.9240 C.3   364  VAL364      0.0019
@<TRIPOS>BOND
     1    88    87    2
     2    85    86    1
     3    87    86    1
     4    86    89    1
     5    37    36    2
     6    89    91    1
     7    89    90    1
     8    36    35    1
     9    38    35    1
    10    38    39    1
    11    40    39    1
    12    35    34    1
    13    42    43    1
    14    39    41    1
    15    34    22   am
    16    15    14    2
    17    43    46    1
    18    43    44    1
    19    46    47    1
    20    49    48    1
    21    45    44    2
    22     4     3    2
    23    22    23    2
    24    22    21    1
    25    14    13    1
    26    20    21    1
    27    16    18    1
    28    16    13    1
    29    16    17    1
    30    19    17    1
    31    12    13    1
    32     8    10   ar
    33     8     6   ar
    34    48    47    1
    35    10    11   ar
    36    21    24    1
    37     3     2    1
    38     5     6    1
    39     5     2    1
    40     6     7   ar
    41    24    25    1
    42    11     9   ar
    43     1     2    1
    44    80    79    2
    45     7     9   ar
    46    25    26   ar
    47    25    27   ar
    48    26    28   ar
    49    27    30   ar
    50    27    29   ar
    51    60    59   ar
    52    60    58   ar
    53    79    78    1
    54    30    32   ar
    55    59    57   ar
    56    28    29   ar
    57    58    56   ar
    58    78    81    1
    59    78    77    1
    60    84    82   am
    61    72    71    2
    62    29    31   ar
    63    81    82    1
    64    75    74    1
    65    32    33   ar
    66    82    83    2
    67    57    55   ar
    68    73    74    1
    69    73    70    1
    70    31    33   ar
    71    56    55   ar
    72    71    70    1
    73    74    76    1
    74    50    51    1
    75    55    54    1
    76    70    69    1
    77    51    54    1
    78    51    52    1
    79    67    66    1
    80    52    53    2
    81    65    66    1
    82    65    62    1
    83    66    68    1
    84    61    62    1
    85    62    63    1
    86    64    63    2
