@<TRIPOS>MOLECULE
tmp/5w7bB16.pdb
 87 85 0 0 0
SMALL
GASTEIGER

@<TRIPOS>ATOM
      1  N        -21.9580   39.2370  -40.8170 N.3   108  HIS108     -0.1241
      2  CA       -21.3580   38.1240  -41.5520 C.3   108  HIS108      0.1621
      3  C        -22.0700   36.8030  -41.2410 C.2   108  HIS108      0.2264
      4  O        -21.4920   35.8530  -40.7060 O.2   108  HIS108     -0.2867
      5  CB       -19.8550   38.0340  -41.2700 C.3   108  HIS108      0.0745
      6  CG       -19.1690   36.9370  -42.0220 C.ar  108  HIS108      0.0817
      7  ND1      -19.7170   36.3510  -43.1430 N.ar  108  HIS108     -0.2268
      8  CD2      -17.9870   36.3110  -41.8090 C.ar  108  HIS108      0.1154
      9  CE1      -18.8990   35.4160  -43.5920 C.ar  108  HIS108      0.1986
     10  NE2      -17.8440   35.3690  -42.7980 N.ar  108  HIS108     -0.2212
     11  N        -23.4120   33.2560  -41.9530 N.3   110  HIS110     -0.1241
     12  CA       -22.7930   32.1850  -42.7300 C.3   110  HIS110      0.1621
     13  C        -23.2090   30.8410  -42.1550 C.2   110  HIS110      0.2264
     14  O        -22.9540   30.5630  -40.9780 O.2   110  HIS110     -0.2867
     15  CB       -21.2670   32.3470  -42.7240 C.3   110  HIS110      0.0745
     16  CG       -20.5120   31.1570  -43.2360 C.ar  110  HIS110      0.0817
     17  ND1      -20.4420   30.8340  -44.5740 N.ar  110  HIS110     -0.2268
     18  CD2      -19.7530   30.2420  -42.5880 C.ar  110  HIS110      0.1154
     19  CE1      -19.6920   29.7590  -44.7260 C.ar  110  HIS110      0.1986
     20  NE2      -19.2630   29.3790  -43.5360 N.ar  110  HIS110     -0.2212
     21  N        -22.1710   27.1070  -42.6270 N.3   112  PRO112     -0.2103
     22  CA       -21.1190   26.3210  -43.2700 C.3   112  PRO112      0.1489
     23  C        -21.7070   25.3310  -44.2590 C.2   112  PRO112      0.2418
     24  O        -22.5490   24.5030  -43.8810 O.2   112  PRO112     -0.2734
     25  CB       -20.4530   25.5980  -42.0900 C.3   112  PRO112      0.0282
     26  CG       -20.7110   26.4880  -40.9180 C.3   112  PRO112      0.0208
     27  CD       -22.0660   27.0700  -41.1580 C.3   112  PRO112      0.0893
     28  N        -21.3060   25.3740  -45.5340 N.am  113  PRO113     -0.2718
     29  CA       -21.7790   24.3300  -46.4590 C.3   113  PRO113      0.1535
     30  C        -21.3370   22.9380  -46.0450 C.2   113  PRO113      0.2598
     31  O        -21.9350   21.9520  -46.4930 O.2   113  PRO113     -0.2715
     32  CB       -21.1870   24.7380  -47.8190 C.3   113  PRO113      0.0310
     33  CG       -20.2330   25.8430  -47.5660 C.3   113  PRO113      0.0237
     34  CD       -20.4870   26.4020  -46.2050 C.3   113  PRO113      0.0939
     35  N        -20.3190   22.8300  -45.1880 N.am  114  GLU114     -0.1978
     36  CA       -19.9030   21.5380  -44.6560 C.3   114  GLU114      0.1602
     37  C        -21.0000   20.8610  -43.8420 C.2   114  GLU114      0.2287
     38  O        -20.9840   19.6320  -43.7070 O.2   114  GLU114     -0.2864
     39  CB       -18.6510   21.7120  -43.7900 C.3   114  GLU114      0.0415
     40  CG       -17.4250   22.2440  -44.5310 C.3   114  GLU114      0.1163
     41  CD       -17.4150   23.7520  -44.6760 C.2   114  GLU114      0.3649
     42  OE1      -18.2920   24.4170  -44.0850 O.co2 114  GLU114     -0.2457
     43  OE2      -16.5280   24.2750  -45.3850 O.co2 114  GLU114     -0.2457
     44  N        -17.9380   23.5590  -35.0190 N.3   128  ASN128     -0.1240
     45  CA       -18.2350   24.9800  -34.9040 C.3   128  ASN128      0.1653
     46  C        -19.7140   25.2670  -34.6830 C.2   128  ASN128      0.2266
     47  O        -20.0950   26.4390  -34.6000 O.2   128  ASN128     -0.2867
     48  CB       -17.7730   25.7050  -36.1680 C.3   128  ASN128      0.1155
     49  CG       -18.3290   25.0730  -37.4320 C.2   128  ASN128      0.2627
     50  OD1      -19.2840   24.2930  -37.3830 O.2   128  ASN128     -0.2716
     51  ND2      -17.7300   25.3940  -38.5690 N.am  128  ASN128     -0.0877
     52  N        -20.8060   35.5760  -37.8630 N.3   139  TRP139     -0.1241
     53  CA       -19.3790   35.4120  -37.5840 C.3   139  TRP139      0.1605
     54  C        -18.7070   36.7810  -37.5640 C.2   139  TRP139      0.2264
     55  O        -17.8080   37.0620  -38.3600 O.2   139  TRP139     -0.2867
     56  CB       -18.7390   34.4940  -38.6230 C.3   139  TRP139      0.0550
     57  CG       -19.4470   33.1720  -38.7580 C.ar  139  TRP139      0.0003
     58  CD1      -20.6600   32.9520  -39.3410 C.ar  139  TRP139      0.0946
     59  CD2      -18.9830   31.8900  -38.3100 C.ar  139  TRP139      0.0152
     60  NE1      -20.9830   31.6170  -39.2850 N.ar  139  TRP139     -0.2442
     61  CE2      -19.9720   30.9440  -38.6520 C.ar  139  TRP139      0.0810
     62  CE3      -17.8310   31.4510  -37.6500 C.ar  139  TRP139      0.0012
     63  CZ2      -19.8420   29.5870  -38.3610 C.ar  139  TRP139      0.0191
     64  CZ3      -17.7070   30.1010  -37.3570 C.ar  139  TRP139      0.0001
     65  CH2      -18.7070   29.1860  -37.7140 C.ar  139  TRP139      0.0015
     66  N        -14.9740   37.3470  -37.8550 N.3   142  LEU142     -0.1245
     67  CA       -14.3470   37.1560  -39.1590 C.3   142  LEU142      0.1561
     68  C        -14.9020   38.1050  -40.2130 C.2   142  LEU142      0.2260
     69  O        -14.7030   37.8790  -41.4100 O.2   142  LEU142     -0.2867
     70  CB       -14.5350   35.7120  -39.6260 C.3   142  LEU142      0.0270
     71  CG       -13.8610   34.6490  -38.7680 C.3   142  LEU142      0.0019
     72  CD1      -14.3390   33.2850  -39.1870 C.3   142  LEU142      0.0001
     73  CD2      -12.3690   34.7400  -38.9220 C.3   142  LEU142      0.0001
     74  N        -10.4180   32.8710  -42.9340 N.3   152  ALA152     -0.1245
     75  CA       -10.5280   31.5360  -43.5140 C.3   152  ALA152      0.1562
     76  C         -9.7520   31.4200  -44.8200 C.2   152  ALA152      0.2260
     77  O        -10.1740   31.9410  -45.8520 O.2   152  ALA152     -0.2867
     78  CB       -11.9940   31.1890  -43.7390 C.3   152  ALA152      0.0290
     79  N        -17.4310   35.7270  -46.9210 N.3   371  GLU371     -0.1245
     80  CA       -16.2900   36.3030  -46.2180 C.3   371  GLU371      0.1567
     81  C        -15.3570   37.0400  -47.1720 C.2   371  GLU371      0.2260
     82  O        -14.8770   38.1370  -46.8590 O.2   371  GLU371     -0.2867
     83  CB       -15.5390   35.2010  -45.4750 C.3   371  GLU371      0.0388
     84  CG       -14.5450   35.7090  -44.4690 C.3   371  GLU371      0.1160
     85  CD       -13.9420   34.5870  -43.6530 C.2   371  GLU371      0.3649
     86  OE1      -14.6950   33.9310  -42.9030 O.co2 371  GLU371     -0.2457
     87  OE2      -12.7230   34.3480  -43.7720 O.co2 371  GLU371     -0.2457
@<TRIPOS>BOND
     1    32    33    1
     2    32    29    1
     3    33    34    1
     4    81    82    2
     5    81    80    1
     6    79    80    1
     7    31    30    2
     8    29    30    1
     9    29    28    1
    10    80    83    1
    11    34    28    1
    12    30    35   am
    13    77    76    2
    14    28    23   am
    15    83    84    1
    16    43    41   ar
    17    35    36    1
    18    76    75    1
    19    19    17   ar
    20    19    20   ar
    21    41    40    1
    22    41    42   ar
    23    36    37    1
    24    36    39    1
    25    17    16   ar
    26    40    39    1
    27    84    85    1
    28    23    24    2
    29    23    22    1
    30    37    38    2
    31    87    85   ar
    32    78    75    1
    33    85    86   ar
    34     9     7   ar
    35     9    10   ar
    36    20    18   ar
    37    75    74    1
    38    22    21    1
    39    22    25    1
    40    16    15    1
    41    16    18   ar
    42     7     6   ar
    43    10     8   ar
    44    12    15    1
    45    12    13    1
    46    12    11    1
    47    21    27    1
    48    13    14    2
    49    25    26    1
    50     6     8   ar
    51     6     5    1
    52     2     5    1
    53     2     3    1
    54     2     1    1
    55    69    68    2
    56     3     4    2
    57    27    26    1
    58    68    67    1
    59    70    67    1
    60    70    71    1
    61    58    60   ar
    62    58    57   ar
    63    60    61   ar
    64    72    71    1
    65    67    66    1
    66    73    71    1
    67    57    56    1
    68    57    59   ar
    69    61    63   ar
    70    61    59   ar
    71    56    53    1
    72    51    49   am
    73    63    65   ar
    74    55    54    2
    75    59    62   ar
    76    52    53    1
    77    65    64   ar
    78    62    64   ar
    79    53    54    1
    80    49    50    2
    81    49    48    1
    82    48    45    1
    83    44    45    1
    84    45    46    1
    85    46    47    2
