@<TRIPOS>MOLECULE
tmp/5w7bB08.pdb
 194 191 0 0 0
SMALL
GASTEIGER

@<TRIPOS>ATOM
      1  N        -26.5410   44.8110  -40.9130 N.3   103  ASP103     -0.1225
      2  CA       -27.5240   43.7470  -41.0030 C.3   103  ASP103      0.1805
      3  C        -26.8120   42.4010  -41.0230 C.2   103  ASP103      0.2598
      4  O        -25.6860   42.2900  -40.5300 O.2   103  ASP103     -0.2718
      5  CB       -28.3830   43.9550  -42.2490 C.3   103  ASP103      0.1424
      6  CG       -27.5450   44.1200  -43.5040 C.2   103  ASP103      0.3668
      7  OD1      -26.3630   43.7130  -43.4970 O.co2 103  ASP103     -0.2456
      8  OD2      -28.0740   44.6600  -44.4980 O.co2 103  ASP103     -0.2456
      9  N        -27.4400   41.3770  -41.6000 N.am  104  ALA104     -0.1966
     10  CA       -26.8200   40.0570  -41.6130 C.3   104  ALA104      0.1728
     11  C        -25.4910   40.0720  -42.3500 C.2   104  ALA104      0.2616
     12  O        -24.5700   39.3370  -41.9770 O.2   104  ALA104     -0.2715
     13  CB       -27.7550   39.0340  -42.2510 C.3   104  ALA104      0.0334
     14  N        -25.3670   40.8840  -43.4000 N.am  105  ALA105     -0.1977
     15  CA       -24.0880   40.9730  -44.0950 C.3   105  ALA105      0.1597
     16  C        -23.0250   41.5920  -43.1960 C.2   105  ALA105      0.2287
     17  O        -21.8790   41.1270  -43.1720 O.2   105  ALA105     -0.2864
     18  CB       -24.2460   41.7710  -45.3920 C.3   105  ALA105      0.0319
     19  N        -29.2920   40.4000  -37.8330 N.3   177  ASN177     -0.1240
     20  CA       -29.6730   39.7840  -39.1010 C.3   177  ASN177      0.1653
     21  C        -30.8100   40.5310  -39.7890 C.2   177  ASN177      0.2266
     22  O        -30.7560   40.7830  -40.9980 O.2   177  ASN177     -0.2867
     23  CB       -30.0600   38.3230  -38.8660 C.3   177  ASN177      0.1155
     24  CG       -28.8690   37.4360  -38.5220 C.2   177  ASN177      0.2627
     25  OD1      -29.0120   36.4720  -37.7640 O.2   177  ASN177     -0.2716
     26  ND2      -27.6970   37.7460  -39.0770 N.am  177  ASN177     -0.0877
     27  N        -27.8710   47.0540  -46.1030 N.3   208  ILE208     -0.1231
     28  CA       -27.6970   46.9330  -47.5440 C.3   208  ILE208      0.1692
     29  C        -28.8370   46.2030  -48.2370 C.2   208  ILE208      0.2593
     30  O        -28.8310   46.1200  -49.4740 O.2   208  ILE208     -0.2718
     31  CB       -26.3610   46.2440  -47.8980 C.3   208  ILE208      0.0266
     32  CG1      -26.2740   44.8150  -47.3520 C.3   208  ILE208      0.0019
     33  CG2      -25.1920   47.0890  -47.3890 C.3   208  ILE208      0.0020
     34  CD1      -25.1970   43.9960  -48.0390 C.3   208  ILE208      0.0001
     35  N        -29.8220   45.6840  -47.5000 N.am  209  GLY209     -0.1942
     36  CA       -30.8910   44.9750  -48.1770 C.3   209  GLY209      0.2014
     37  C        -32.2700   44.9180  -47.5490 C.2   209  GLY209      0.2638
     38  O        -33.2590   44.8120  -48.2780 O.2   209  GLY209     -0.2714
     39  N        -32.3800   44.9750  -46.2230 N.am  210  ASN210     -0.1972
     40  CA       -33.6530   44.6150  -45.6130 C.3   210  ASN210      0.1688
     41  C        -34.7430   45.6510  -45.8520 C.2   210  ASN210      0.2292
     42  O        -35.9250   45.3080  -45.7580 O.2   210  ASN210     -0.2864
     43  CB       -33.4630   44.3590  -44.1210 C.3   210  ASN210      0.1181
     44  CG       -32.8380   43.0050  -43.8570 C.2   210  ASN210      0.2629
     45  OD1      -33.0510   42.0610  -44.6170 O.2   210  ASN210     -0.2716
     46  ND2      -32.0530   42.9030  -42.7950 N.am  210  ASN210     -0.0877
     47  N        -27.4730   47.1830  -51.6710 N.3   257  ALA257     -0.1231
     48  CA       -26.8050   46.2110  -52.5250 C.3   257  ALA257      0.1694
     49  C        -27.3360   46.2150  -53.9590 C.2   257  ALA257      0.2592
     50  O        -28.4670   46.6270  -54.2310 O.2   257  ALA257     -0.2718
     51  CB       -26.9750   44.8180  -51.9370 C.3   257  ALA257      0.0304
     52  N        -26.4860   45.7530  -54.8820 N.am  258  HIS258     -0.1962
     53  CA       -26.9060   45.4200  -56.2450 C.3   258  HIS258      0.1787
     54  C        -27.3950   43.9700  -56.2550 C.2   258  HIS258      0.2620
     55  O        -26.7420   43.0520  -56.7560 O.2   258  HIS258     -0.2715
     56  CB       -25.7610   45.6200  -57.2340 C.3   258  HIS258      0.0785
     57  CG       -25.3470   47.0470  -57.4230 C.ar  258  HIS258      0.0821
     58  ND1      -24.9830   47.5550  -58.6520 N.ar  258  HIS258     -0.2267
     59  CD2      -25.2090   48.0650  -56.5420 C.ar  258  HIS258      0.1154
     60  CE1      -24.6570   48.8280  -58.5230 C.ar  258  HIS258      0.1986
     61  NE2      -24.7890   49.1640  -57.2530 N.ar  258  HIS258     -0.2212
     62  N        -28.5740   43.7760  -55.6630 N.am  259  GLY259     -0.1954
     63  CA       -29.0980   42.4380  -55.4410 C.3   259  GLY259      0.1869
     64  C        -29.4670   41.6610  -56.6920 C.2   259  GLY259      0.2309
     65  O        -29.5970   40.4360  -56.6190 O.2   259  GLY259     -0.2863
     66  N        -27.5800   40.9220  -58.9100 N.3   261  PHE261     -0.1227
     67  CA       -26.4370   40.0310  -59.0590 C.3   261  PHE261      0.1736
     68  C        -26.7630   38.6010  -58.6550 C.2   261  PHE261      0.2595
     69  O        -26.2320   37.6500  -59.2430 O.2   261  PHE261     -0.2718
     70  CB       -25.3070   40.6020  -58.2070 C.3   261  PHE261      0.0547
     71  CG       -24.0320   39.8270  -58.2530 C.ar  261  PHE261     -0.0202
     72  CD1      -23.2320   39.8420  -59.3860 C.ar  261  PHE261     -0.0042
     73  CD2      -23.5980   39.1370  -57.1340 C.ar  261  PHE261     -0.0042
     74  CE1      -22.0360   39.1500  -59.4130 C.ar  261  PHE261     -0.0003
     75  CE2      -22.4070   38.4470  -57.1550 C.ar  261  PHE261     -0.0003
     76  CZ       -21.6240   38.4530  -58.2940 C.ar  261  PHE261     -0.0000
     77  N        -27.6430   38.4210  -57.6700 N.am  262  LEU262     -0.1980
     78  CA       -27.8800   37.0910  -57.1230 C.3   262  LEU262      0.1596
     79  C        -28.4940   36.1780  -58.1710 C.2   262  LEU262      0.2287
     80  O        -27.9270   35.1370  -58.5210 O.2   262  LEU262     -0.2864
     81  CB       -28.7900   37.1780  -55.8960 C.3   262  LEU262      0.0297
     82  CG       -28.2340   37.9380  -54.6940 C.3   262  LEU262      0.0022
     83  CD1      -29.2830   38.0340  -53.5950 C.3   262  LEU262      0.0001
     84  CD2      -26.9690   37.2680  -54.1750 C.3   262  LEU262      0.0001
     85  N        -35.7390   40.1500  -54.8320 N.3   300  TRP300     -0.1241
     86  CA       -34.5600   39.8160  -55.6150 C.3   300  TRP300      0.1605
     87  C        -34.3980   38.3230  -55.8520 C.2   300  TRP300      0.2264
     88  O        -33.7420   37.9350  -56.8250 O.2   300  TRP300     -0.2867
     89  CB       -33.3040   40.3570  -54.9240 C.3   300  TRP300      0.0550
     90  CG       -32.9650   41.7630  -55.2880 C.ar  300  TRP300      0.0003
     91  CD1      -33.1550   42.3750  -56.4990 C.ar  300  TRP300      0.0946
     92  CD2      -32.3580   42.7380  -54.4350 C.ar  300  TRP300      0.0152
     93  NE1      -32.7050   43.6720  -56.4440 N.ar  300  TRP300     -0.2442
     94  CE2      -32.2070   43.9190  -55.1910 C.ar  300  TRP300      0.0810
     95  CE3      -31.9190   42.7250  -53.1080 C.ar  300  TRP300      0.0012
     96  CZ2      -31.6420   45.0770  -54.6580 C.ar  300  TRP300      0.0191
     97  CZ3      -31.3690   43.8740  -52.5750 C.ar  300  TRP300      0.0001
     98  CH2      -31.2280   45.0370  -53.3540 C.ar  300  TRP300      0.0015
     99  N        -22.5260   51.5520  -52.8300 N.3   341  PHE341     -0.1241
    100  CA       -22.2090   50.1390  -52.7360 C.3   341  PHE341      0.1605
    101  C        -21.2590   49.7680  -53.8710 C.2   341  PHE341      0.2264
    102  O        -21.6180   49.8690  -55.0470 O.2   341  PHE341     -0.2867
    103  CB       -23.5130   49.3560  -52.8010 C.3   341  PHE341      0.0534
    104  CG       -23.3610   47.8960  -52.6030 C.ar  341  PHE341     -0.0203
    105  CD1      -23.4600   47.3400  -51.3400 C.ar  341  PHE341     -0.0042
    106  CD2      -23.1430   47.0730  -53.6860 C.ar  341  PHE341     -0.0042
    107  CE1      -23.3310   45.9860  -51.1590 C.ar  341  PHE341     -0.0003
    108  CE2      -23.0150   45.7190  -53.5200 C.ar  341  PHE341     -0.0003
    109  CZ       -23.1100   45.1700  -52.2520 C.ar  341  PHE341     -0.0000
    110  N        -20.0770   47.7140  -55.9290 N.3   343  PHE343     -0.1241
    111  CA       -20.2930   46.4270  -56.5880 C.3   343  PHE343      0.1605
    112  C        -19.2600   46.1800  -57.6840 C.2   343  PHE343      0.2264
    113  O        -18.5440   45.1720  -57.6630 O.2   343  PHE343     -0.2867
    114  CB       -21.7140   46.3630  -57.1570 C.3   343  PHE343      0.0534
    115  CG       -21.9410   45.2210  -58.1190 C.ar  343  PHE343     -0.0203
    116  CD1      -22.0140   43.9160  -57.6630 C.ar  343  PHE343     -0.0042
    117  CD2      -22.1020   45.4560  -59.4750 C.ar  343  PHE343     -0.0042
    118  CE1      -22.2270   42.8610  -58.5370 C.ar  343  PHE343     -0.0003
    119  CE2      -22.3170   44.4040  -60.3570 C.ar  343  PHE343     -0.0003
    120  CZ       -22.3770   43.1090  -59.8830 C.ar  343  PHE343     -0.0000
    121  N        -15.6060   45.7020  -56.4900 N.3   346  VAL346     -0.1231
    122  CA       -15.3610   44.4220  -55.8330 C.3   346  VAL346      0.1692
    123  C        -15.2890   43.2980  -56.8580 C.2   346  VAL346      0.2591
    124  O        -14.3960   42.4450  -56.8000 O.2   346  VAL346     -0.2718
    125  CB       -16.4410   44.1610  -54.7660 C.3   346  VAL346      0.0266
    126  CG1      -16.4280   42.7020  -54.3160 C.3   346  VAL346      0.0020
    127  CG2      -16.2190   45.0850  -53.5800 C.3   346  VAL346      0.0020
    128  N        -16.2190   43.2760  -57.8140 N.am  347  VAL347     -0.1980
    129  CA       -16.2500   42.1770  -58.7740 C.3   347  VAL347      0.1595
    130  C        -15.0110   42.2080  -59.6650 C.2   347  VAL347      0.2287
    131  O        -14.4760   41.1570  -60.0350 O.2   347  VAL347     -0.2864
    132  CB       -17.5530   42.2170  -59.5950 C.3   347  VAL347      0.0276
    133  CG1      -17.4540   41.3080  -60.8110 C.3   347  VAL347      0.0022
    134  CG2      -18.7180   41.7790  -58.7260 C.3   347  VAL347      0.0022
    135  N        -18.5070   34.8610  -54.6300 N.3   360  LEU360     -0.1231
    136  CA       -18.6630   35.9650  -53.6940 C.3   360  LEU360      0.1693
    137  C        -19.9310   35.8800  -52.8560 C.2   360  LEU360      0.2591
    138  O        -20.1230   36.7220  -51.9740 O.2   360  LEU360     -0.2718
    139  CB       -18.6550   37.2930  -54.4600 C.3   360  LEU360      0.0284
    140  CG       -17.3600   37.5530  -55.2200 C.3   360  LEU360      0.0019
    141  CD1      -17.5200   38.7590  -56.1130 C.3   360  LEU360      0.0001
    142  CD2      -16.2100   37.7480  -54.2490 C.3   360  LEU360      0.0001
    143  N        -20.7840   34.8870  -53.0900 N.am  361  ILE361     -0.1980
    144  CA       -22.0730   34.7770  -52.4170 C.3   361  ILE361      0.1595
    145  C        -22.0700   33.5440  -51.5250 C.2   361  ILE361      0.2287
    146  O        -21.6050   32.4740  -51.9300 O.2   361  ILE361     -0.2864
    147  CB       -23.2310   34.6970  -53.4300 C.3   361  ILE361      0.0276
    148  CG1      -23.2430   35.9020  -54.3660 C.3   361  ILE361      0.0022
    149  CG2      -24.5700   34.6040  -52.7050 C.3   361  ILE361      0.0022
    150  CD1      -23.9510   35.6020  -55.6710 C.3   361  ILE361      0.0001
    151  N        -27.7020   34.4340  -50.8280 N.3   367  PHE367     -0.1227
    152  CA       -28.2030   35.7790  -50.5610 C.3   367  PHE367      0.1736
    153  C        -27.1040   36.7320  -50.1180 C.2   367  PHE367      0.2595
    154  O        -26.9300   37.8050  -50.7030 O.2   367  PHE367     -0.2718
    155  CB       -29.2740   35.7040  -49.4760 C.3   367  PHE367      0.0547
    156  CG       -29.9240   37.0280  -49.1490 C.ar  367  PHE367     -0.0202
    157  CD1      -30.2300   37.9500  -50.1390 C.ar  367  PHE367     -0.0042
    158  CD2      -30.2360   37.3380  -47.8330 C.ar  367  PHE367     -0.0042
    159  CE1      -30.8360   39.1550  -49.8210 C.ar  367  PHE367     -0.0003
    160  CE2      -30.8420   38.5330  -47.5090 C.ar  367  PHE367     -0.0003
    161  CZ       -31.1400   39.4470  -48.5020 C.ar  367  PHE367     -0.0000
    162  N        -26.3660   36.3490  -49.0620 N.am  368  HIS368     -0.1962
    163  CA       -25.4360   37.2860  -48.4530 C.3   368  HIS368      0.1772
    164  C        -24.0940   37.2820  -49.1790 C.2   368  HIS368      0.2462
    165  O        -23.6850   36.2550  -49.7330 O.2   368  HIS368     -0.2730
    166  CB       -25.1980   36.9380  -46.9880 C.3   368  HIS368      0.0785
    167  CG       -26.4420   36.8860  -46.1570 C.ar  368  HIS368      0.0821
    168  ND1      -26.9970   35.6990  -45.7330 N.ar  368  HIS368     -0.2267
    169  CD2      -27.2280   37.8690  -45.6590 C.ar  368  HIS368      0.1154
    170  CE1      -28.0740   35.9520  -45.0120 C.ar  368  HIS368      0.1986
    171  NE2      -28.2400   37.2610  -44.9560 N.ar  368  HIS368     -0.2212
    172  N        -23.3870   38.4120  -49.1660 N.am  369  PRO369     -0.2727
    173  CA       -21.9620   38.3760  -49.5090 C.3   369  PRO369      0.1402
    174  C        -21.2270   37.4930  -48.5120 C.2   369  PRO369      0.2269
    175  O        -21.5470   37.4790  -47.3210 O.2   369  PRO369     -0.2865
    176  CB       -21.5270   39.8430  -49.4090 C.3   369  PRO369      0.0296
    177  CG       -22.5430   40.4980  -48.5350 C.3   369  PRO369      0.0237
    178  CD       -23.8210   39.7460  -48.7080 C.3   369  PRO369      0.0939
    179  N        -16.0980   38.3900  -50.1710 N.3   373  ALA373     -0.1245
    180  CA       -16.7470   39.6090  -50.6400 C.3   373  ALA373      0.1562
    181  C        -16.6740   40.7040  -49.5870 C.2   373  ALA373      0.2260
    182  O        -16.3800   41.8640  -49.9030 O.2   373  ALA373     -0.2867
    183  CB       -18.2000   39.3280  -51.0120 C.3   373  ALA373      0.0290
    184  N        -15.1350   44.4570  -49.9680 N.3   377  PHE377     -0.1241
    185  CA       -15.8380   45.7080  -49.6960 C.3   377  PHE377      0.1605
    186  C        -15.0870   46.5490  -48.6760 C.2   377  PHE377      0.2264
    187  O        -15.0320   47.7780  -48.7950 O.2   377  PHE377     -0.2867
    188  CB       -17.2590   45.4360  -49.2110 C.3   377  PHE377      0.0534
    189  CG       -18.2060   45.1070  -50.3150 C.ar  377  PHE377     -0.0203
    190  CD1      -18.6900   46.1040  -51.1460 C.ar  377  PHE377     -0.0042
    191  CD2      -18.6040   43.8020  -50.5350 C.ar  377  PHE377     -0.0042
    192  CE1      -19.5560   45.8070  -52.1780 C.ar  377  PHE377     -0.0003
    193  CE2      -19.4680   43.4970  -51.5630 C.ar  377  PHE377     -0.0003
    194  CZ       -19.9420   44.4990  -52.3840 C.ar  377  PHE377     -0.0000
@<TRIPOS>BOND
     1   133   132    1
     2   119   120   ar
     3   119   117   ar
     4   131   130    2
     5   120   118   ar
     6   130   129    1
     7   132   129    1
     8   132   134    1
     9   117   115   ar
    10    74    72   ar
    11    74    76   ar
    12    72    71   ar
    13    69    68    2
    14    67    66    1
    15    67    68    1
    16    67    70    1
    17   129   128    1
    18    68    77   am
    19    58    60   ar
    20    58    57   ar
    21   118   116   ar
    22    60    61   ar
    23    80    79    2
    24    76    75   ar
    25    71    70    1
    26    71    73   ar
    27    79    78    1
    28   115   116   ar
    29   115   114    1
    30   128   123   am
    31   112   113    2
    32   112   111    1
    33    77    78    1
    34    57    56    1
    35    57    59   ar
    36    61    59   ar
    37    56    53    1
    38   114   111    1
    39    75    73   ar
    40    78    81    1
    41   123   124    2
    42   123   122    1
    43    88    87    2
    44    55    54    2
    45    64    65    2
    46    64    63    1
    47   111   110    1
    48    91    93   ar
    49    91    90   ar
    50   121   122    1
    51    93    94   ar
    52    54    53    1
    53    54    62   am
    54    53    52    1
    55   141   140    1
    56    81    82    1
    57    87    86    1
    58   122   125    1
    59   150   148    1
    60    62    63    1
    61    86    89    1
    62    86    85    1
    63    90    89    1
    64    90    92   ar
    65   140   139    1
    66   140   142    1
    67    94    96   ar
    68    94    92   ar
    69   102   101    2
    70    52    49   am
    71   125   126    1
    72   125   127    1
    73    82    84    1
    74    82    83    1
    75    96    98   ar
    76   135   136    1
    77   139   136    1
    78    92    95   ar
    79   148   147    1
    80    50    49    2
    81    49    48    1
    82   101   100    1
    83   136   137    1
    84   106   108   ar
    85   106   104   ar
    86   108   109   ar
    87   147   149    1
    88   147   144    1
    89    98    97   ar
    90    95    97   ar
    91   143   137   am
    92   143   144    1
    93   137   138    2
    94    99   100    1
    95   103   100    1
    96   103   104    1
    97   104   105   ar
    98    48    51    1
    99    48    47    1
   100   144   145    1
   101   194   192   ar
   102   194   193   ar
   103   109   107   ar
   104   192   190   ar
   105   146   145    2
   106   193   191   ar
   107   105   107   ar
   108   190   189   ar
   109   183   180    1
   110   151   152    1
   111   154   153    2
   112   180   179    1
   113   180   181    1
   114   152   153    1
   115   152   155    1
   116   191   189   ar
   117   189   188    1
   118   157   159   ar
   119   157   156   ar
   120   153   162   am
   121   184   185    1
   122   182   181    2
   123   159   161   ar
   124   165   164    2
   125   185   188    1
   126   185   186    1
   127   173   176    1
   128   173   172    1
   129   173   174    1
   130   155   156    1
   131    30    29    2
   132   176   177    1
   133   164   172   am
   134   164   163    1
   135   172   178    1
   136   156   158   ar
   137   162   163    1
   138   187   186    2
   139   178   177    1
   140   174   175    2
   141   161   160   ar
   142   163   166    1
   143    38    37    2
   144    29    28    1
   145    29    35   am
   146    36    37    1
   147    36    35    1
   148    34    32    1
   149    31    28    1
   150    31    33    1
   151    31    32    1
   152   158   160   ar
   153    37    39   am
   154    28    27    1
   155   166   167    1
   156    39    40    1
   157   167   168   ar
   158   167   169   ar
   159    41    42    2
   160    41    40    1
   161   168   170   ar
   162   169   171   ar
   163    40    43    1
   164    18    15    1
   165   170   171   ar
   166    45    44    2
   167     8     6   ar
   168    43    44    1
   169    15    14    1
   170    15    16    1
   171    44    46   am
   172     6     7   ar
   173     6     5    1
   174    14    11   am
   175    16    17    2
   176    11    12    2
   177    11    10    1
   178    13    10    1
   179     5     2    1
   180    10     9    1
   181     9     3   am
   182     3     2    1
   183     3     4    2
   184     2     1    1
   185    22    21    2
   186    21    20    1
   187    20    23    1
   188    20    19    1
   189    26    24   am
   190    23    24    1
   191    24    25    2
