@<TRIPOS>MOLECULE
tmp/5w7bA02.pdb
 93 86 0 0 0
SMALL
GASTEIGER

@<TRIPOS>ATOM
      1  N        -41.1450   27.2630  -41.0060 N.3     3  TYR3       -0.1227
      2  CA       -39.7850   26.9570  -40.5700 C.3     3  TYR3        0.1736
      3  C        -39.5570   25.4690  -40.3650 C.2     3  TYR3        0.2596
      4  O        -38.4600   24.9710  -40.6400 O.2     3  TYR3       -0.2718
      5  CB       -39.4580   27.6600  -39.2520 C.3     3  TYR3        0.0548
      6  CG       -39.2890   29.1470  -39.3460 C.ar    3  TYR3       -0.0200
      7  CD1      -38.7230   29.7440  -40.4660 C.ar    3  TYR3       -0.0009
      8  CD2      -39.6920   29.9560  -38.2990 C.ar    3  TYR3       -0.0009
      9  CE1      -38.5730   31.1110  -40.5390 C.ar    3  TYR3        0.0417
     10  CE2      -39.5470   31.3150  -38.3560 C.ar    3  TYR3        0.0417
     11  CZ       -38.9900   31.8940  -39.4750 C.ar    3  TYR3        0.1957
     12  OH       -38.8530   33.2600  -39.5160 O.3     3  TYR3       -0.2866
     13  N        -40.5530   24.7530  -39.8430 N.am    4  THR4       -0.1953
     14  CA       -40.3740   23.3230  -39.6390 C.3     4  THR4        0.1897
     15  C        -40.2910   22.5950  -40.9680 C.2     4  THR4        0.2313
     16  O        -39.5440   21.6180  -41.0920 O.2     4  THR4       -0.2863
     17  CB       -41.5090   22.7520  -38.7910 C.3     4  THR4        0.1794
     18  OG1      -42.7530   22.8930  -39.4880 O.3     4  THR4       -0.2208
     19  CG2      -41.5830   23.4780  -37.4640 C.3     4  THR4        0.0378
     20  N        -36.6860   23.1280  -42.0550 N.3     7  GLY7       -0.1210
     21  CA       -35.7630   22.3710  -41.2330 C.3     7  GLY7        0.1956
     22  C        -35.8570   20.8850  -41.5010 C.2     7  GLY7        0.2612
     23  O        -34.8440   20.1830  -41.5330 O.2     7  GLY7       -0.2717
     24  N        -37.0740   20.3900  -41.7150 N.am    8  CYS8       -0.1970
     25  CA       -37.2630   18.9750  -42.0100 C.3     8  CYS8        0.1712
     26  C        -36.6080   18.5970  -43.3320 C.2     8  CYS8        0.2296
     27  O        -35.9190   17.5750  -43.4280 O.2     8  CYS8       -0.2864
     28  CB       -38.7560   18.6530  -42.0320 C.3     8  CYS8        0.0983
     29  SG       -39.1130   16.9220  -42.3640 S.3     8  CYS8       -0.0798
     30  N        -32.7820   18.5030  -42.8920 N.3    11  VAL11      -0.1231
     31  CA       -32.2980   17.3590  -42.1230 C.3    11  VAL11       0.1692
     32  C        -32.4980   16.0640  -42.9040 C.2    11  VAL11       0.2591
     33  O        -31.5970   15.2200  -42.9800 O.2    11  VAL11      -0.2718
     34  CB       -32.9970   17.3120  -40.7530 C.3    11  VAL11       0.0266
     35  CG1      -32.6750   16.0190  -40.0270 C.3    11  VAL11       0.0020
     36  CG2      -32.5800   18.5150  -39.9140 C.3    11  VAL11       0.0020
     37  N        -33.6860   15.8770  -43.4820 N.am   12  VAL12      -0.1980
     38  CA       -33.9510   14.6520  -44.2310 C.3    12  VAL12       0.1595
     39  C        -33.0560   14.5760  -45.4590 C.2    12  VAL12       0.2287
     40  O        -32.6060   13.4950  -45.8490 O.2    12  VAL12      -0.2864
     41  CB       -35.4400   14.5620  -44.6120 C.3    12  VAL12       0.0276
     42  CG1      -35.6850   13.3750  -45.5440 C.3    12  VAL12       0.0022
     43  CG2      -36.2850   14.4310  -43.3630 C.3    12  VAL12       0.0022
     44  N        -29.7260   13.2570  -44.2860 N.3    15  ILE15      -0.1245
     45  CA       -29.8410   11.8390  -43.9550 C.3    15  ILE15       0.1561
     46  C        -29.8830   11.0010  -45.2250 C.2    15  ILE15       0.2260
     47  O        -29.1710    9.9980  -45.3530 O.2    15  ILE15      -0.2867
     48  CB       -31.0810   11.5940  -43.0770 C.3    15  ILE15       0.0252
     49  CG1      -30.8550   12.1700  -41.6800 C.3    15  ILE15       0.0019
     50  CG2      -31.4010   10.0970  -42.9970 C.3    15  ILE15       0.0019
     51  CD1      -32.1220   12.3100  -40.8850 C.3    15  ILE15       0.0001
     52  N        -28.5730    7.9260  -40.1720 N.3    30  MET30      -0.1245
     53  CA       -28.9660    8.6900  -38.9920 C.3    30  MET30       0.1570
     54  C        -27.9490    8.5130  -37.8760 C.2    30  MET30       0.2261
     55  O        -27.4830    9.4910  -37.2810 O.2    30  MET30      -0.2867
     56  CB       -30.3550    8.2660  -38.5140 C.3    30  MET30       0.0387
     57  CG       -31.4800    8.8690  -39.3290 C.3    30  MET30       0.0595
     58  SD       -33.1230    8.5440  -38.6560 S.3    30  MET30      -0.1393
     59  CE       -33.2050    6.7610  -38.7680 C.3    30  MET30       0.0692
     60  N        -40.6040    5.9250  -37.5430 N.3    58  ILE58      -0.1245
     61  CA       -40.7090    6.8450  -38.6690 C.3    58  ILE58       0.1561
     62  C        -40.4390    6.1270  -39.9830 C.2    58  ILE58       0.2260
     63  O        -41.1450    6.3420  -40.9740 O.2    58  ILE58      -0.2867
     64  CB       -39.7510    8.0360  -38.4790 C.3    58  ILE58       0.0252
     65  CG1      -40.0340    8.7790  -37.1640 C.3    58  ILE58       0.0019
     66  CG2      -39.8360    8.9740  -39.6780 C.3    58  ILE58       0.0019
     67  CD1      -41.5030    9.0160  -36.8530 C.3    58  ILE58       0.0001
     68  N        -41.1650   12.7930  -47.5380 N.3    71  VAL71      -0.1245
     69  CA       -41.0040   12.4270  -46.1320 C.3    71  VAL71       0.1561
     70  C        -41.5680   13.5190  -45.2370 C.2    71  VAL71       0.2260
     71  O        -42.3380   13.2550  -44.3080 O.2    71  VAL71      -0.2867
     72  CB       -39.5210   12.1610  -45.8180 C.3    71  VAL71       0.0252
     73  CG1      -39.3100   12.0080  -44.3200 C.3    71  VAL71       0.0019
     74  CG2      -39.0510   10.9240  -46.5470 C.3    71  VAL71       0.0019
     75  N        -44.7220   13.2690  -42.6090 N.3    75  LEU75      -0.1245
     76  CA       -44.5970   13.5160  -41.1750 C.3    75  LEU75       0.1561
     77  C        -45.2850   14.7880  -40.7320 C.2    75  LEU75       0.2260
     78  O        -45.1680   15.1540  -39.5570 O.2    75  LEU75      -0.2867
     79  CB       -43.1180   13.5600  -40.7890 C.3    75  LEU75       0.0270
     80  CG       -42.3200   12.3150  -41.1770 C.3    75  LEU75       0.0019
     81  CD1      -40.8890   12.4310  -40.6970 C.3    75  LEU75       0.0001
     82  CD2      -42.9600   11.0670  -40.6110 C.3    75  LEU75       0.0001
     83  N        -44.5130   17.7470  -41.2390 N.3    77  PHE77      -0.1241
     84  CA       -43.6290   18.8920  -41.0390 C.3    77  PHE77       0.1605
     85  C        -43.8140   19.9300  -42.1300 C.2    77  PHE77       0.2264
     86  O        -43.5880   21.1220  -41.8950 O.2    77  PHE77      -0.2867
     87  CB       -42.1650   18.4570  -41.0060 C.3    77  PHE77       0.0534
     88  CG       -41.7430   17.8820  -39.6960 C.ar   77  PHE77      -0.0203
     89  CD1      -41.1700   18.6880  -38.7270 C.ar   77  PHE77      -0.0042
     90  CD2      -41.9220   16.5380  -39.4300 C.ar   77  PHE77      -0.0042
     91  CE1      -40.7820   18.1610  -37.5130 C.ar   77  PHE77      -0.0003
     92  CE2      -41.5370   16.0010  -38.2190 C.ar   77  PHE77      -0.0003
     93  CZ       -40.9650   16.8140  -37.2580 C.ar   77  PHE77      -0.0000
@<TRIPOS>BOND
     1    68    69    1
     2    74    72    1
     3    69    72    1
     4    69    70    1
     5    40    39    2
     6    72    73    1
     7    42    41    1
     8    39    38    1
     9    47    46    2
    10    70    71    2
    11    46    45    1
    12    41    38    1
    13    41    43    1
    14    44    45    1
    15    38    37    1
    16    45    48    1
    17    37    32   am
    18    27    26    2
    19    26    25    1
    20    48    50    1
    21    48    49    1
    22    33    32    2
    23    32    31    1
    24    30    31    1
    25    75    76    1
    26    29    28    1
    27    85    86    2
    28    85    84    1
    29    31    34    1
    30    20    21    1
    31    28    25    1
    32    25    24    1
    33    24    22   am
    34    49    51    1
    35    23    22    2
    36    22    21    1
    37    83    84    1
    38    80    79    1
    39    80    81    1
    40    80    82    1
    41    76    79    1
    42    76    77    1
    43    16    15    2
    44    84    87    1
    45    87    88    1
    46     1     2    1
    47    63    62    2
    48    15    14    1
    49    34    35    1
    50    34    36    1
    51    77    78    2
    52     4     3    2
    53     2     3    1
    54     2     5    1
    55     9     7   ar
    56     9    11   ar
    57     7     6   ar
    58     3    13   am
    59    52    53    1
    60    62    61    1
    61    13    14    1
    62    88    90   ar
    63    88    89   ar
    64    66    64    1
    65    14    17    1
    66    12    11    1
    67    18    17    1
    68    11    10   ar
    69    90    92   ar
    70     6     5    1
    71     6     8   ar
    72    57    58    1
    73    57    56    1
    74    53    56    1
    75    53    54    1
    76    17    19    1
    77    59    58    1
    78    89    91   ar
    79    61    64    1
    80    61    60    1
    81    64    65    1
    82    10     8   ar
    83    92    93   ar
    84    54    55    2
    85    91    93   ar
    86    65    67    1
