@<TRIPOS>MOLECULE
tmp/5w7bB03.pdb
 127 117 0 0 0
SMALL
GASTEIGER

@<TRIPOS>ATOM
      1  N        -20.1400   49.3810  -36.3650 N.3   100  LEU100     -0.1245
      2  CA       -20.9580   48.9920  -37.5060 C.3   100  LEU100      0.1561
      3  C        -22.4120   48.8730  -37.0730 C.2   100  LEU100      0.2260
      4  O        -22.7450   48.0560  -36.2080 O.2   100  LEU100     -0.2867
      5  CB       -20.4800   47.6740  -38.1150 C.3   100  LEU100      0.0270
      6  CG       -21.2890   47.2000  -39.3290 C.3   100  LEU100      0.0019
      7  CD1      -21.1860   48.1860  -40.4880 C.3   100  LEU100      0.0001
      8  CD2      -20.8300   45.8220  -39.7590 C.3   100  LEU100      0.0001
      9  N        -26.5410   44.8110  -40.9130 N.3   103  ASP103     -0.1239
     10  CA       -27.5240   43.7470  -41.0030 C.3   103  ASP103      0.1674
     11  C        -26.8120   42.4010  -41.0230 C.2   103  ASP103      0.2266
     12  O        -25.6860   42.2900  -40.5300 O.2   103  ASP103     -0.2867
     13  CB       -28.3830   43.9550  -42.2490 C.3   103  ASP103      0.1410
     14  CG       -27.5450   44.1200  -43.5040 C.2   103  ASP103      0.3668
     15  OD1      -26.3630   43.7130  -43.4970 O.co2 103  ASP103     -0.2456
     16  OD2      -28.0740   44.6600  -44.4980 O.co2 103  ASP103     -0.2456
     17  N        -25.3670   40.8840  -43.4000 N.3   105  ALA105     -0.1231
     18  CA       -24.0880   40.9730  -44.0950 C.3   105  ALA105      0.1694
     19  C        -23.0250   41.5920  -43.1960 C.2   105  ALA105      0.2592
     20  O        -21.8790   41.1270  -43.1720 O.2   105  ALA105     -0.2718
     21  CB       -24.2460   41.7710  -45.3920 C.3   105  ALA105      0.0304
     22  N        -23.3930   42.6210  -42.4280 N.am  106  GLY106     -0.1957
     23  CA       -22.4410   43.2480  -41.5290 C.3   106  GLY106      0.1869
     24  C        -22.0400   42.3610  -40.3680 C.2   106  GLY106      0.2309
     25  O        -20.8930   42.4120  -39.9140 O.2   106  GLY106     -0.2863
     26  N        -15.8750   41.7890  -42.3240 N.3   144  GLY144     -0.1210
     27  CA       -15.0640   42.7530  -43.0410 C.3   144  GLY144      0.1956
     28  C        -14.8390   44.0490  -42.2990 C.2   144  GLY144      0.2612
     29  O        -13.8300   44.7220  -42.5260 O.2   144  GLY144     -0.2717
     30  N        -15.7610   44.4290  -41.4140 N.am  145  THR145     -0.1952
     31  CA       -15.6000   45.6740  -40.6670 C.3   145  THR145      0.1897
     32  C        -14.9610   45.4630  -39.2970 C.2   145  THR145      0.2313
     33  O        -14.0940   46.2460  -38.9000 O.2   145  THR145     -0.2863
     34  CB       -16.9520   46.3710  -40.5010 C.3   145  THR145      0.1794
     35  OG1      -17.5580   46.5670  -41.7850 O.3   145  THR145     -0.2208
     36  CG2      -16.7750   47.7190  -39.8400 C.3   145  THR145      0.0378
     37  N        -11.6650   46.4760  -41.4420 N.3   156  ILE156     -0.1245
     38  CA       -11.5720   47.8890  -41.0890 C.3   156  ILE156      0.1561
     39  C        -10.9460   48.0440  -39.7110 C.2   156  ILE156      0.2260
     40  O        -10.0800   48.9030  -39.4940 O.2   156  ILE156     -0.2867
     41  CB       -12.9560   48.5680  -41.1450 C.3   156  ILE156      0.0252
     42  CG1      -13.5650   48.4560  -42.5500 C.3   156  ILE156      0.0019
     43  CG2      -12.8370   50.0290  -40.7010 C.3   156  ILE156      0.0019
     44  CD1      -12.7230   49.0610  -43.6310 C.3   156  ILE156      0.0001
     45  N        -20.2740   53.1840  -39.3530 N.3   204  ILE204     -0.1245
     46  CA       -20.7280   52.8110  -40.6840 C.3   204  ILE204      0.1561
     47  C        -22.1520   52.3040  -40.5530 C.2   204  ILE204      0.2260
     48  O        -22.4110   51.3290  -39.8390 O.2   204  ILE204     -0.2867
     49  CB       -19.8070   51.7590  -41.3200 C.3   204  ILE204      0.0252
     50  CG1      -18.3870   52.3250  -41.4060 C.3   204  ILE204      0.0019
     51  CG2      -20.3270   51.3530  -42.7020 C.3   204  ILE204      0.0019
     52  CD1      -17.3550   51.3610  -41.9370 C.3   204  ILE204      0.0001
     53  N        -24.7820   50.5380  -42.6200 N.3   206  ALA206     -0.1245
     54  CA       -24.7420   49.7110  -43.8240 C.3   206  ALA206      0.1562
     55  C        -25.9050   48.7210  -43.7480 C.2   206  ALA206      0.2260
     56  O        -25.7300   47.5320  -43.4720 O.2   206  ALA206     -0.2867
     57  CB       -23.4020   49.0000  -43.9710 C.3   206  ALA206      0.0290
     58  N        -27.8710   47.0540  -46.1030 N.3   208  ILE208     -0.1245
     59  CA       -27.6970   46.9330  -47.5440 C.3   208  ILE208      0.1561
     60  C        -28.8370   46.2030  -48.2370 C.2   208  ILE208      0.2260
     61  O        -28.8310   46.1200  -49.4740 O.2   208  ILE208     -0.2867
     62  CB       -26.3610   46.2440  -47.8980 C.3   208  ILE208      0.0252
     63  CG1      -26.2740   44.8150  -47.3520 C.3   208  ILE208      0.0019
     64  CG2      -25.1920   47.0890  -47.3890 C.3   208  ILE208      0.0019
     65  CD1      -25.1970   43.9960  -48.0390 C.3   208  ILE208      0.0001
     66  N        -23.8210   53.9000  -46.1030 N.3   254  TYR254     -0.1241
     67  CA       -23.4410   53.0210  -47.1960 C.3   254  TYR254      0.1605
     68  C        -24.6770   52.6590  -48.0070 C.2   254  TYR254      0.2264
     69  O        -25.7320   52.3550  -47.4450 O.2   254  TYR254     -0.2867
     70  CB       -22.7600   51.7640  -46.6590 C.3   254  TYR254      0.0534
     71  CG       -21.8490   51.1070  -47.6600 C.ar  254  TYR254     -0.0201
     72  CD1      -22.2740   50.0100  -48.3930 C.ar  254  TYR254     -0.0009
     73  CD2      -20.5600   51.5850  -47.8700 C.ar  254  TYR254     -0.0009
     74  CE1      -21.4420   49.4020  -49.3060 C.ar  254  TYR254      0.0417
     75  CE2      -19.7210   50.9910  -48.7850 C.ar  254  TYR254      0.0417
     76  CZ       -20.1640   49.8990  -49.4990 C.ar  254  TYR254      0.1957
     77  OH       -19.3260   49.3100  -50.4170 O.3   254  TYR254     -0.2866
     78  N        -22.5260   51.5520  -52.8300 N.3   341  PHE341     -0.1241
     79  CA       -22.2090   50.1390  -52.7360 C.3   341  PHE341      0.1605
     80  C        -21.2590   49.7680  -53.8710 C.2   341  PHE341      0.2264
     81  O        -21.6180   49.8690  -55.0470 O.2   341  PHE341     -0.2867
     82  CB       -23.5130   49.3560  -52.8010 C.3   341  PHE341      0.0534
     83  CG       -23.3610   47.8960  -52.6030 C.ar  341  PHE341     -0.0203
     84  CD1      -23.4600   47.3400  -51.3400 C.ar  341  PHE341     -0.0042
     85  CD2      -23.1430   47.0730  -53.6860 C.ar  341  PHE341     -0.0042
     86  CE1      -23.3310   45.9860  -51.1590 C.ar  341  PHE341     -0.0003
     87  CE2      -23.0150   45.7190  -53.5200 C.ar  341  PHE341     -0.0003
     88  CZ       -23.1100   45.1700  -52.2520 C.ar  341  PHE341     -0.0000
     89  N        -23.3870   38.4120  -49.1660 N.3   369  PRO369     -0.2116
     90  CA       -21.9620   38.3760  -49.5090 C.3   369  PRO369      0.1372
     91  C        -21.2270   37.4930  -48.5120 C.2   369  PRO369      0.2244
     92  O        -21.5470   37.4790  -47.3210 O.2   369  PRO369     -0.2868
     93  CB       -21.5270   39.8430  -49.4090 C.3   369  PRO369      0.0268
     94  CG       -22.5430   40.4980  -48.5350 C.3   369  PRO369      0.0207
     95  CD       -23.8210   39.7460  -48.7080 C.3   369  PRO369      0.0892
     96  N        -16.9180   40.3520  -48.3230 N.3   374  LEU374     -0.1245
     97  CA       -16.9810   41.3630  -47.2750 C.3   374  LEU374      0.1561
     98  C        -15.6290   42.0220  -47.0630 C.2   374  LEU374      0.2260
     99  O        -15.5540   43.2250  -46.7810 O.2   374  LEU374     -0.2867
    100  CB       -17.4760   40.7380  -45.9740 C.3   374  LEU374      0.0270
    101  CG       -18.9560   40.3650  -45.9430 C.3   374  LEU374      0.0019
    102  CD1      -19.2610   39.6220  -44.6620 C.3   374  LEU374      0.0001
    103  CD2      -19.8390   41.5980  -46.0670 C.3   374  LEU374      0.0001
    104  N        -15.1350   44.4570  -49.9680 N.3   377  PHE377     -0.1227
    105  CA       -15.8380   45.7080  -49.6960 C.3   377  PHE377      0.1736
    106  C        -15.0870   46.5490  -48.6760 C.2   377  PHE377      0.2595
    107  O        -15.0320   47.7780  -48.7950 O.2   377  PHE377     -0.2718
    108  CB       -17.2590   45.4360  -49.2110 C.3   377  PHE377      0.0547
    109  CG       -18.2060   45.1070  -50.3150 C.ar  377  PHE377     -0.0202
    110  CD1      -18.6900   46.1040  -51.1460 C.ar  377  PHE377     -0.0042
    111  CD2      -18.6040   43.8020  -50.5350 C.ar  377  PHE377     -0.0042
    112  CE1      -19.5560   45.8070  -52.1780 C.ar  377  PHE377     -0.0003
    113  CE2      -19.4680   43.4970  -51.5630 C.ar  377  PHE377     -0.0003
    114  CZ       -19.9420   44.4990  -52.3840 C.ar  377  PHE377     -0.0000
    115  N        -14.4860   45.9090  -47.6730 N.am  378  ALA378     -0.1980
    116  CA       -13.7420   46.6680  -46.6780 C.3   378  ALA378      0.1597
    117  C        -12.5170   47.3190  -47.3050 C.2   378  ALA378      0.2287
    118  O        -12.2220   48.4910  -47.0410 O.2   378  ALA378     -0.2864
    119  CB       -13.3390   45.7590  -45.5160 C.3   378  ALA378      0.0319
    120  N        -13.6410   50.3280  -49.3210 N.3   381  LEU381     -0.1245
    121  CA       -14.0100   51.4460  -48.4660 C.3   381  LEU381      0.1561
    122  C        -12.7670   52.1170  -47.9040 C.2   381  LEU381      0.2260
    123  O        -12.6500   53.3470  -47.9200 O.2   381  LEU381     -0.2867
    124  CB       -14.9250   50.9690  -47.3400 C.3   381  LEU381      0.0270
    125  CG       -15.5040   52.0980  -46.4850 C.3   381  LEU381      0.0019
    126  CD1      -16.8840   51.7330  -45.9930 C.3   381  LEU381      0.0001
    127  CD2      -14.6070   52.3870  -45.2990 C.3   381  LEU381      0.0001
@<TRIPOS>BOND
     1    81    80    2
     2    80    79    1
     3    85    87   ar
     4    85    83   ar
     5    87    88   ar
     6    78    79    1
     7    82    79    1
     8    82    83    1
     9    83    84   ar
    10   114   112   ar
    11   114   113   ar
    12    88    86   ar
    13   112   110   ar
    14   113   111   ar
    15    84    86   ar
    16   110   109   ar
    17   111   109   ar
    18    77    76    1
    19   109   108    1
    20   104   105    1
    21   105   108    1
    22   105   106    1
    23    90    93    1
    24    90    89    1
    25    90    91    1
    26    76    74   ar
    27    76    75   ar
    28    61    60    2
    29    93    94    1
    30   120   121    1
    31    74    72   ar
    32    89    95    1
    33   107   106    2
    34    75    73   ar
    35    95    94    1
    36   106   115   am
    37    91    92    2
    38   121   122    1
    39   121   124    1
    40    72    71   ar
    41    96    97    1
    42    60    59    1
    43    65    63    1
    44    68    69    2
    45    68    67    1
    46   123   122    2
    47    62    59    1
    48    62    64    1
    49    62    63    1
    50    73    71   ar
    51   115   116    1
    52    71    70    1
    53    59    58    1
    54   124   125    1
    55   117   118    2
    56   117   116    1
    57    97    98    1
    58    97   100    1
    59    67    70    1
    60    67    66    1
    61    98    99    2
    62   116   119    1
    63   125   126    1
    64   125   127    1
    65   103   101    1
    66   100   101    1
    67   101   102    1
    68    21    18    1
    69    16    14   ar
    70    18    17    1
    71    18    19    1
    72    57    54    1
    73    54    55    1
    74    54    53    1
    75    55    56    2
    76    44    42    1
    77    14    15   ar
    78    14    13    1
    79    19    20    2
    80    19    22   am
    81    27    26    1
    82    27    28    1
    83    51    49    1
    84    42    41    1
    85    29    28    2
    86    22    23    1
    87    28    30   am
    88    13    10    1
    89    52    50    1
    90    35    34    1
    91    23    24    1
    92    37    38    1
    93    30    31    1
    94    50    49    1
    95    49    46    1
    96    41    38    1
    97    41    43    1
    98    38    39    1
    99    11    10    1
   100    11    12    2
   101    10     9    1
   102    46    47    1
   103    46    45    1
   104    31    34    1
   105    31    32    1
   106    47    48    2
   107    34    36    1
   108     7     6    1
   109    24    25    2
   110     8     6    1
   111    39    40    2
   112     6     5    1
   113    32    33    2
   114     5     2    1
   115     2     3    1
   116     2     1    1
   117     3     4    2
