@<TRIPOS>MOLECULE
tmp/5w7bC00.pdb
 88 83 0 0 0
SMALL
GASTEIGER

@<TRIPOS>ATOM
      1  N        -30.8040   28.2110    1.5320 N.3    16  GLU16      -0.1245
      2  CA       -30.9330   29.0370    2.7290 C.3    16  GLU16       0.1567
      3  C        -29.6430   29.0570    3.5380 C.2    16  GLU16       0.2260
      4  O        -29.2280   30.1130    4.0280 O.2    16  GLU16      -0.2867
      5  CB       -32.0860   28.5380    3.5990 C.3    16  GLU16       0.0388
      6  CG       -33.4660   28.7830    3.0190 C.3    16  GLU16       0.1160
      7  CD       -34.5700   28.5830    4.0460 C.2    16  GLU16       0.3649
      8  OE1      -34.2550   28.2280    5.2020 O.co2  16  GLU16      -0.2457
      9  OE2      -35.7520   28.7820    3.6950 O.co2  16  GLU16      -0.2457
     10  N        -26.3170   36.6520    2.8740 N.3    24  SER24      -0.1202
     11  CA       -26.7970   37.0500    1.5640 C.3    24  SER24       0.2020
     12  C        -28.3040   36.8840    1.4720 C.2    24  SER24       0.2619
     13  O        -28.9360   36.2090    2.2880 O.2    24  SER24      -0.2717
     14  CB       -26.1200   36.2270    0.4630 C.3    24  SER24       0.2103
     15  OG       -26.8870   35.0790    0.1280 O.3    24  SER24      -0.2182
     16  N        -28.8700   37.5130    0.4520 N.am   25  THR25      -0.1938
     17  CA       -30.2370   37.2270    0.0730 C.3    25  THR25       0.2028
     18  C        -30.3200   35.8500   -0.5720 C.2    25  THR25       0.2642
     19  O        -29.3100   35.2310   -0.9250 O.2    25  THR25      -0.2714
     20  CB       -30.7550   38.2700   -0.9100 C.3    25  THR25       0.1808
     21  OG1      -29.9610   38.2180   -2.1030 O.3    25  THR25      -0.2208
     22  CG2      -30.6740   39.6610   -0.3070 C.3    25  THR25       0.0379
     23  N        -31.5510   35.3750   -0.7430 N.am   26  VAL26      -0.1963
     24  CA       -31.7420   34.0860   -1.3940 C.3    26  VAL26       0.1727
     25  C        -31.5070   34.2030   -2.8920 C.2    26  VAL26       0.2616
     26  O        -31.0210   33.2560   -3.5210 O.2    26  VAL26      -0.2715
     27  CB       -33.1390   33.5430   -1.0530 C.3    26  VAL26       0.0290
     28  CG1      -33.5600   32.4550   -2.0190 C.3    26  VAL26       0.0023
     29  CG2      -33.1200   32.9990    0.3600 C.3    26  VAL26       0.0023
     30  N        -31.8260   35.3520   -3.4950 N.am   27  GLN27      -0.1977
     31  CA       -31.4760   35.5410   -4.8990 C.3    27  GLN27       0.1601
     32  C        -29.9760   35.3720   -5.1010 C.2    27  GLN27       0.2287
     33  O        -29.5400   34.7130   -6.0510 O.2    27  GLN27      -0.2864
     34  CB       -31.9340   36.9160   -5.3960 C.3    27  GLN27       0.0394
     35  CG       -31.6850   37.1430   -6.8910 C.3    27  GLN27       0.0908
     36  CD       -32.9200   36.9000   -7.7420 C.2    27  GLN27       0.2608
     37  OE1      -33.9220   37.6030   -7.6160 O.2    27  GLN27      -0.2717
     38  NE2      -32.8500   35.9020   -8.6190 N.am   27  GLN27      -0.0878
     39  N        -39.8290   34.1620   -4.8780 N.3    59  ILE59      -0.1245
     40  CA       -39.5070   34.8370   -3.6270 C.3    59  ILE59       0.1561
     41  C        -40.5840   35.8470   -3.2360 C.2    59  ILE59       0.2260
     42  O        -40.6900   36.2100   -2.0590 O.2    59  ILE59      -0.2867
     43  CB       -38.1290   35.5230   -3.7280 C.3    59  ILE59       0.0252
     44  CG1      -37.0300   34.4970   -4.0320 C.3    59  ILE59       0.0019
     45  CG2      -37.7940   36.2520   -2.4310 C.3    59  ILE59       0.0019
     46  CD1      -35.6830   35.1290   -4.3410 C.3    59  ILE59       0.0001
     47  N        -43.2790   35.2020   -0.1960 N.3    62  PHE62      -0.1241
     48  CA       -42.9220   35.1430    1.2180 C.3    62  PHE62       0.1605
     49  C        -42.6580   36.5430    1.7540 C.2    62  PHE62       0.2264
     50  O        -41.8160   37.2710    1.2170 O.2    62  PHE62      -0.2867
     51  CB       -41.7040   34.2440    1.4200 C.3    62  PHE62       0.0534
     52  CG       -41.9140   32.8490    0.9230 C.ar   62  PHE62      -0.0203
     53  CD1      -42.4150   31.8710    1.7610 C.ar   62  PHE62      -0.0042
     54  CD2      -41.6430   32.5250   -0.3930 C.ar   62  PHE62      -0.0042
     55  CE1      -42.6250   30.5890    1.3000 C.ar   62  PHE62      -0.0003
     56  CE2      -41.8500   31.2460   -0.8610 C.ar   62  PHE62      -0.0003
     57  CZ       -42.3410   30.2750   -0.0130 C.ar   62  PHE62      -0.0000
     58  N        -42.1190   36.8150    5.2330 N.3    64  LYS64      -0.1231
     59  CA       -41.2950   36.6210    6.4180 C.3    64  LYS64       0.1693
     60  C        -40.3210   35.4820    6.1560 C.2    64  LYS64       0.2592
     61  O        -40.5250   34.6590    5.2600 O.2    64  LYS64      -0.2718
     62  CB       -42.1360   36.3430    7.6780 C.3    64  LYS64       0.0285
     63  CG       -43.0560   35.1200    7.6300 C.3    64  LYS64       0.0035
     64  CD       -43.5570   34.7750    9.0390 C.3    64  LYS64       0.0206
     65  CE       -44.7890   33.8710    9.0350 C.3    64  LYS64       0.1093
     66  NZ       -45.1810   33.4620   10.4190 N.3    64  LYS64      -0.1314
     67  N        -39.2440   35.4560    6.9400 N.am   65  ASP65      -0.1960
     68  CA       -38.2250   34.4230    6.8040 C.3    65  ASP65       0.1840
     69  C        -38.7170   33.1180    7.4210 C.2    65  ASP65       0.2621
     70  O        -39.1510   33.0910    8.5770 O.2    65  ASP65      -0.2715
     71  CB       -36.9210   34.8700    7.4670 C.3    65  ASP65       0.1450
     72  CG       -36.2990   36.0710    6.7800 C.2    65  ASP65       0.3671
     73  OD1      -36.4280   36.1820    5.5420 O.co2  65  ASP65      -0.2456
     74  OD2      -35.6810   36.9060    7.4750 O.co2  65  ASP65      -0.2456
     75  N        -38.6470   32.0350    6.6450 N.am   66  VAL66      -0.1977
     76  CA       -39.1950   30.7420    7.0340 C.3    66  VAL66       0.1596
     77  C        -38.3000   29.6370    6.4820 C.2    66  VAL66       0.2287
     78  O        -37.6700   29.7910    5.4320 O.2    66  VAL66      -0.2864
     79  CB       -40.6470   30.5890    6.5330 C.3    66  VAL66       0.0276
     80  CG1      -41.5660   31.5460    7.2780 C.3    66  VAL66       0.0022
     81  CG2      -40.7250   30.8510    5.0350 C.3    66  VAL66       0.0022
     82  N        -41.2750   26.7380    3.2200 N.3    71  VAL71      -0.1245
     83  CA       -41.2100   27.0850    1.8010 C.3    71  VAL71       0.1561
     84  C        -41.8080   25.9690    0.9620 C.2    71  VAL71       0.2260
     85  O        -42.7020   26.1910    0.1370 O.2    71  VAL71      -0.2867
     86  CB       -39.7570   27.3710    1.3790 C.3    71  VAL71       0.0252
     87  CG1      -39.6840   27.6520   -0.1240 C.3    71  VAL71       0.0019
     88  CG2      -39.1900   28.5310    2.1760 C.3    71  VAL71       0.0019
@<TRIPOS>BOND
     1    38    36   am
     2    36    37    2
     3    36    35    1
     4    35    34    1
     5    33    32    2
     6    34    31    1
     7    32    31    1
     8    31    30    1
     9    39    40    1
    10    46    44    1
    11    44    43    1
    12    43    40    1
    13    43    45    1
    14    40    41    1
    15    26    25    2
    16    30    25   am
    17    41    42    2
    18    25    24    1
    19    21    20    1
    20    28    27    1
    21    24    27    1
    22    24    23    1
    23    27    29    1
    24    19    18    2
    25    20    22    1
    26    20    17    1
    27    56    54   ar
    28    56    57   ar
    29    23    18   am
    30    18    17    1
    31    54    52   ar
    32    47    48    1
    33    87    86    1
    34    57    55   ar
    35    17    16    1
    36    15    14    1
    37    85    84    2
    38    16    12   am
    39    14    11    1
    40    52    51    1
    41    52    53   ar
    42    84    83    1
    43    50    49    2
    44    48    51    1
    45    48    49    1
    46    55    53   ar
    47    86    83    1
    48    86    88    1
    49    12    11    1
    50    12    13    2
    51     1     2    1
    52    11    10    1
    53    83    82    1
    54     2     3    1
    55     2     5    1
    56     6     5    1
    57     6     7    1
    58     3     4    2
    59     9     7   ar
    60     7     8   ar
    61    81    79    1
    62    58    59    1
    63    61    60    2
    64    78    77    2
    65    73    72   ar
    66    60    59    1
    67    60    67   am
    68    59    62    1
    69    77    76    1
    70    79    76    1
    71    79    80    1
    72    75    76    1
    73    75    69   am
    74    72    71    1
    75    72    74   ar
    76    68    67    1
    77    68    69    1
    78    68    71    1
    79    69    70    2
    80    63    62    1
    81    63    64    1
    82    65    64    1
    83    65    66    1
