@<TRIPOS>MOLECULE
tmp/5w7cD05.pdb
 92 87 0 0 0
SMALL
GASTEIGER

@<TRIPOS>ATOM
      1  N        -42.1660  -13.2740   38.7030 N.3   112  PHE112     -0.1241
      2  CA       -41.3990  -12.5090   39.6770 C.3   112  PHE112      0.1605
      3  C        -40.8910  -13.4440   40.7680 C.2   112  PHE112      0.2264
      4  O        -41.6560  -14.2340   41.3290 O.2   112  PHE112     -0.2867
      5  CB       -42.2690  -11.4020   40.2770 C.3   112  PHE112      0.0534
      6  CG       -41.5670  -10.5650   41.3130 C.ar  112  PHE112     -0.0203
      7  CD1      -40.9440   -9.3810   40.9600 C.ar  112  PHE112     -0.0042
      8  CD2      -41.5410  -10.9580   42.6410 C.ar  112  PHE112     -0.0042
      9  CE1      -40.3030   -8.6070   41.9100 C.ar  112  PHE112     -0.0003
     10  CE2      -40.9010  -10.1880   43.5960 C.ar  112  PHE112     -0.0003
     11  CZ       -40.2820   -9.0120   43.2300 C.ar  112  PHE112     -0.0000
     12  N        -37.6900  -13.4790   43.8390 N.3   114  ILE114     -0.1245
     13  CA       -36.4760  -13.1370   44.5700 C.3   114  ILE114      0.1561
     14  C        -35.8850  -14.4380   45.0950 C.2   114  ILE114      0.2260
     15  O        -36.5160  -15.1360   45.8950 O.2   114  ILE114     -0.2867
     16  CB       -36.7680  -12.1570   45.7180 C.3   114  ILE114      0.0252
     17  CG1      -37.3850  -10.8660   45.1730 C.3   114  ILE114      0.0019
     18  CG2      -35.4880  -11.8400   46.4850 C.3   114  ILE114      0.0019
     19  CD1      -38.0080   -9.9850   46.2350 C.3   114  ILE114      0.0001
     20  N        -30.2930  -15.4140   47.9550 N.3   118  TRP118     -0.1227
     21  CA       -29.7580  -14.0650   48.0870 C.3   118  TRP118      0.1737
     22  C        -29.8480  -13.5300   49.5090 C.2   118  TRP118      0.2595
     23  O        -29.1490  -12.5630   49.8340 O.2   118  TRP118     -0.2718
     24  CB       -30.5000  -13.1030   47.1540 C.3   118  TRP118      0.0564
     25  CG       -30.3680  -13.4220   45.6990 C.ar  118  TRP118      0.0003
     26  CD1      -29.4470  -14.2420   45.1160 C.ar  118  TRP118      0.0946
     27  CD2      -31.1940  -12.9280   44.6370 C.ar  118  TRP118      0.0152
     28  NE1      -29.6450  -14.2870   43.7580 N.ar  118  TRP118     -0.2442
     29  CE2      -30.7110  -13.4870   43.4380 C.ar  118  TRP118      0.0810
     30  CE3      -32.2930  -12.0650   44.5850 C.ar  118  TRP118      0.0012
     31  CZ2      -31.2930  -13.2160   42.2010 C.ar  118  TRP118      0.0191
     32  CZ3      -32.8670  -11.7950   43.3580 C.ar  118  TRP118      0.0001
     33  CH2      -32.3660  -12.3690   42.1820 C.ar  118  TRP118      0.0015
     34  N        -30.6860  -14.1230   50.3590 N.am  119  ILE119     -0.1980
     35  CA       -30.9570  -13.5540   51.6750 C.3   119  ILE119      0.1595
     36  C        -30.8950  -14.6220   52.7600 C.2   119  ILE119      0.2287
     37  O        -31.2870  -14.3720   53.9040 O.2   119  ILE119     -0.2864
     38  CB       -32.3270  -12.8480   51.6900 C.3   119  ILE119      0.0276
     39  CG1      -33.4640  -13.8570   51.4900 C.3   119  ILE119      0.0022
     40  CG2      -32.3800  -11.7800   50.6070 C.3   119  ILE119      0.0022
     41  CD1      -34.8290  -13.3020   51.8290 C.3   119  ILE119      0.0001
     42  N        -25.4420  -19.2290   51.8490 N.3   124  MET124     -0.1245
     43  CA       -24.8310  -18.2140   51.0040 C.3   124  MET124      0.1570
     44  C        -23.3860  -18.5800   50.6840 C.2   124  MET124      0.2261
     45  O        -22.6700  -19.1590   51.5040 O.2   124  MET124     -0.2867
     46  CB       -24.8950  -16.8560   51.6970 C.3   124  MET124      0.0387
     47  CG       -24.8240  -15.6760   50.7570 C.3   124  MET124      0.0595
     48  SD       -25.4230  -14.1620   51.5250 S.3   124  MET124     -0.1393
     49  CE       -27.1790  -14.5080   51.6310 C.3   124  MET124      0.0692
     50  N        -25.0320  -15.0770   44.2380 N.3   129  PHE129     -0.1241
     51  CA       -25.5380  -13.9130   43.5210 C.3   129  PHE129      0.1605
     52  C        -25.1010  -13.8840   42.0600 C.2   129  PHE129      0.2264
     53  O        -25.1470  -12.8230   41.4270 O.2   129  PHE129     -0.2867
     54  CB       -25.0930  -12.6350   44.2310 C.3   129  PHE129      0.0534
     55  CG       -25.4800  -12.5850   45.6830 C.ar  129  PHE129     -0.0203
     56  CD1      -26.6490  -11.9610   46.0830 C.ar  129  PHE129     -0.0042
     57  CD2      -24.6760  -13.1700   46.6480 C.ar  129  PHE129     -0.0042
     58  CE1      -27.0080  -11.9170   47.4160 C.ar  129  PHE129     -0.0003
     59  CE2      -25.0310  -13.1300   47.9830 C.ar  129  PHE129     -0.0003
     60  CZ       -26.1970  -12.5030   48.3680 C.ar  129  PHE129     -0.0000
     61  N        -27.9150  -12.5690   40.0520 N.3   132  LEU132     -0.1245
     62  CA       -28.5720  -11.3630   40.5380 C.3   132  LEU132      0.1561
     63  C        -28.5760  -10.2710   39.4720 C.2   132  LEU132      0.2260
     64  O        -29.6070   -9.6160   39.2700 O.2   132  LEU132     -0.2867
     65  CB       -27.9020  -10.8590   41.8200 C.3   132  LEU132      0.0270
     66  CG       -28.4450   -9.5410   42.3830 C.3   132  LEU132      0.0019
     67  CD1      -29.9420   -9.6310   42.6380 C.3   132  LEU132      0.0001
     68  CD2      -27.7100   -9.1640   43.6590 C.3   132  LEU132      0.0001
     69  N        -32.0210   -8.4800   38.0040 N.3   136  LEU136     -0.1245
     70  CA       -32.2890   -7.0570   38.1780 C.3   136  LEU136      0.1561
     71  C        -32.5510   -6.3800   36.8410 C.2   136  LEU136      0.2260
     72  O        -33.4080   -5.4930   36.7470 O.2   136  LEU136     -0.2867
     73  CB       -31.1230   -6.3860   38.9050 C.3   136  LEU136      0.0270
     74  CG       -30.9930   -6.6950   40.3990 C.3   136  LEU136      0.0019
     75  CD1      -29.6860   -6.1350   40.9430 C.3   136  LEU136      0.0001
     76  CD2      -32.1770   -6.1370   41.1820 C.3   136  LEU136      0.0001
     77  N        -36.4770   -8.2080   38.1310 N.3   140  LEU140     -0.1245
     78  CA       -36.7140   -9.2940   39.0800 C.3   140  LEU140      0.1561
     79  C        -37.7150  -10.3170   38.5540 C.2   140  LEU140      0.2260
     80  O        -38.2690  -11.1070   39.3280 O.2   140  LEU140     -0.2867
     81  CB       -37.1740   -8.7520   40.4380 C.3   140  LEU140      0.0270
     82  CG       -36.0910   -8.0400   41.2540 C.3   140  LEU140      0.0019
     83  CD1      -36.6860   -7.4390   42.5180 C.3   140  LEU140      0.0001
     84  CD2      -34.9510   -8.9920   41.6060 C.3   140  LEU140      0.0001
     85  N        -44.6770   -6.1910   36.4790 N.3   184  ASN184     -0.1240
     86  CA       -44.9300   -6.5820   37.8630 C.3   184  ASN184      0.1653
     87  C        -46.2050   -5.9490   38.4050 C.2   184  ASN184      0.2266
     88  O        -46.9920   -6.6100   39.0930 O.2   184  ASN184     -0.2867
     89  CB       -43.7400   -6.1990   38.7470 C.3   184  ASN184      0.1155
     90  CG       -42.5210   -7.0640   38.5000 C.2   184  ASN184      0.2627
     91  OD1      -41.4030   -6.5610   38.3870 O.2   184  ASN184     -0.2716
     92  ND2      -42.7280   -8.3720   38.4240 N.am  184  ASN184     -0.0877
@<TRIPOS>BOND
     1    85    86    1
     2    72    71    2
     3    71    70    1
     4    86    87    1
     5    86    89    1
     6    69    70    1
     7    77    78    1
     8    70    73    1
     9    91    90    2
    10    87    88    2
    11    92    90   am
    12    90    89    1
    13    79    78    1
    14    79    80    2
    15     1     2    1
    16    73    74    1
    17    78    81    1
    18    64    63    2
    19    63    62    1
    20     2     5    1
    21     2     3    1
    22    61    62    1
    23     5     6    1
    24    74    75    1
    25    74    76    1
    26    81    82    1
    27    62    65    1
    28     3     4    2
    29     7     6   ar
    30     7     9   ar
    31    82    84    1
    32    82    83    1
    33     6     8   ar
    34    53    52    2
    35    65    66    1
    36     9    11   ar
    37    52    51    1
    38    33    31   ar
    39    33    32   ar
    40    31    29   ar
    41    66    67    1
    42    66    68    1
    43     8    10   ar
    44    11    10   ar
    45    32    30   ar
    46    29    28   ar
    47    29    27   ar
    48    51    54    1
    49    51    50    1
    50    28    26   ar
    51    12    13    1
    52    54    55    1
    53    13    14    1
    54    13    16    1
    55    30    27   ar
    56    27    25   ar
    57    14    15    2
    58    26    25   ar
    59    17    16    1
    60    17    19    1
    61    55    56   ar
    62    55    57   ar
    63    25    24    1
    64    16    18    1
    65    56    58   ar
    66    57    59   ar
    67    24    21    1
    68    58    60   ar
    69    20    21    1
    70    59    60   ar
    71    21    22    1
    72    22    23    2
    73    22    34   am
    74    34    35    1
    75    40    38    1
    76    44    43    1
    77    44    45    2
    78    47    48    1
    79    47    46    1
    80    43    46    1
    81    43    42    1
    82    39    38    1
    83    39    41    1
    84    48    49    1
    85    35    38    1
    86    35    36    1
    87    36    37    2
