@<TRIPOS>MOLECULE
tmp/5w7dA03.pdb
 141 127 0 0 0
SMALL
GASTEIGER

@<TRIPOS>ATOM
      1  N         -5.8920  -28.3560  124.2090 N.3    12  LEU12      -0.1245
      2  CA        -6.1160  -29.7680  124.5180 C.3    12  LEU12       0.1561
      3  C         -5.9950  -30.0320  126.0130 C.2    12  LEU12       0.2260
      4  O         -6.8460  -30.6920  126.6190 O.2    12  LEU12      -0.2867
      5  CB        -5.1240  -30.6300  123.7460 C.3    12  LEU12       0.0270
      6  CG        -5.1450  -32.1380  124.0710 C.3    12  LEU12       0.0019
      7  CD1       -6.4130  -32.7460  123.5650 C.3    12  LEU12       0.0001
      8  CD2       -3.9480  -32.8600  123.4510 C.3    12  LEU12       0.0001
      9  N        -12.1910  -38.1220  126.3620 N.3    34  LEU34      -0.1245
     10  CA       -12.0360  -37.2720  125.1830 C.3    34  LEU34       0.1561
     11  C        -11.8210  -38.0880  123.9090 C.2    34  LEU34       0.2260
     12  O        -12.4660  -37.8330  122.8820 O.2    34  LEU34      -0.2867
     13  CB       -10.8820  -36.3040  125.3710 C.3    34  LEU34       0.0270
     14  CG       -10.6160  -35.3370  124.2120 C.3    34  LEU34       0.0019
     15  CD1      -11.8320  -34.5350  123.8160 C.3    34  LEU34       0.0001
     16  CD2       -9.4490  -34.3890  124.6750 C.3    34  LEU34       0.0001
     17  N        -14.2340  -38.9300  119.8810 N.3    38  LEU38      -0.1245
     18  CA       -13.8760  -38.3890  118.5780 C.3    38  LEU38       0.1561
     19  C        -14.2890  -39.3230  117.4460 C.2    38  LEU38       0.2260
     20  O        -14.3680  -40.5420  117.6320 O.2    38  LEU38      -0.2867
     21  CB       -12.3710  -38.1420  118.4970 C.3    38  LEU38       0.0270
     22  CG       -11.8650  -37.0430  119.4350 C.3    38  LEU38       0.0019
     23  CD1      -10.3470  -37.0180  119.4200 C.3    38  LEU38       0.0001
     24  CD2      -12.3890  -35.6750  119.0400 C.3    38  LEU38       0.0001
     25  N         -8.8350  -39.2240  113.4340 N.3    44  LEU44      -0.1245
     26  CA        -8.9200  -38.3090  114.5730 C.3    44  LEU44       0.1561
     27  C         -8.8470  -39.0490  115.9060 C.2    44  LEU44       0.2260
     28  O         -8.0420  -38.6960  116.7800 O.2    44  LEU44      -0.2867
     29  CB       -10.1900  -37.4880  114.4650 C.3    44  LEU44       0.0270
     30  CG       -10.0840  -36.4580  113.3340 C.3    44  LEU44       0.0019
     31  CD1      -11.4900  -35.9350  112.9750 C.3    44  LEU44       0.0001
     32  CD2       -9.1310  -35.2950  113.7310 C.3    44  LEU44       0.0001
     33  N         -5.3730  -40.6170  116.3850 N.3    47  ALA47      -0.1231
     34  CA        -4.3780  -39.5960  116.7210 C.3    47  ALA47       0.1694
     35  C         -4.4560  -39.2100  118.1840 C.2    47  ALA47       0.2592
     36  O         -3.4270  -39.0750  118.8610 O.2    47  ALA47      -0.2718
     37  CB        -4.5830  -38.3590  115.8560 C.3    47  ALA47       0.0304
     38  N         -5.6770  -39.0450  118.6930 N.am   48  CYS48      -0.1970
     39  CA        -5.8810  -38.7170  120.0960 C.3    48  CYS48       0.1712
     40  C         -5.3080  -39.8010  121.0100 C.2    48  CYS48       0.2296
     41  O         -4.6100  -39.5050  121.9840 O.2    48  CYS48      -0.2864
     42  CB        -7.3720  -38.5070  120.3410 C.3    48  CYS48       0.0983
     43  SG        -7.8220  -38.0080  122.0280 S.3    48  CYS48      -0.0798
     44  N         -1.5600  -39.5200  121.0390 N.3    51  LEU51      -0.1245
     45  CA        -1.1360  -38.4240  121.9100 C.3    51  LEU51       0.1561
     46  C         -1.2110  -38.8100  123.3830 C.2    51  LEU51       0.2260
     47  O         -0.3100  -38.4740  124.1640 O.2    51  LEU51      -0.2867
     48  CB        -2.0000  -37.1970  121.6280 C.3    51  LEU51       0.0270
     49  CG        -1.7940  -36.5810  120.2450 C.3    51  LEU51       0.0019
     50  CD1       -2.8200  -35.4920  119.9760 C.3    51  LEU51       0.0001
     51  CD2       -0.3880  -36.0140  120.1430 C.3    51  LEU51       0.0001
     52  N         -1.0100  -38.1200  113.2530 N.3   118  LEU118     -0.1245
     53  CA        -1.0610  -36.6630  113.1910 C.3   118  LEU118      0.1561
     54  C         -0.4090  -36.1450  111.9180 C.2   118  LEU118      0.2260
     55  O         -0.8400  -35.1230  111.3710 O.2   118  LEU118     -0.2867
     56  CB        -0.3800  -36.0350  114.4100 C.3   118  LEU118      0.0270
     57  CG        -1.2330  -35.5080  115.5810 C.3   118  LEU118      0.0019
     58  CD1       -0.4070  -34.5300  116.4070 C.3   118  LEU118      0.0001
     59  CD2       -2.5350  -34.8280  115.1660 C.3   118  LEU118      0.0001
     60  N         -2.9890  -36.2320  109.2470 N.3   121  ILE121     -0.1245
     61  CA        -3.9270  -35.1290  109.4160 C.3   121  ILE121      0.1561
     62  C         -3.2960  -33.8300  108.9380 C.2   121  ILE121      0.2260
     63  O         -3.9420  -33.0320  108.2520 O.2   121  ILE121     -0.2867
     64  CB        -4.3850  -35.0210  110.8830 C.3   121  ILE121      0.0252
     65  CG1       -5.1160  -36.3080  111.3040 C.3   121  ILE121      0.0019
     66  CG2       -5.2790  -33.7880  111.0770 C.3   121  ILE121      0.0019
     67  CD1       -5.4750  -36.3630  112.7930 C.3   121  ILE121      0.0001
     68  N         -4.6200  -31.3260  105.8630 N.3   125  ILE125     -0.1245
     69  CA        -4.9880  -29.9440  106.1540 C.3   125  ILE125      0.1561
     70  C         -4.1850  -28.9890  105.2690 C.2   125  ILE125      0.2260
     71  O         -4.7430  -28.0900  104.6200 O.2   125  ILE125     -0.2867
     72  CB        -4.7830  -29.6710  107.6530 C.3   125  ILE125      0.0252
     73  CG1       -5.8520  -30.4210  108.4750 C.3   125  ILE125      0.0019
     74  CG2       -4.7900  -28.1730  107.9480 C.3   125  ILE125      0.0019
     75  CD1       -5.6090  -30.4060  109.9620 C.3   125  ILE125      0.0001
     76  N         -5.5410  -28.9180  101.8690 N.3   128  SER128     -0.1202
     77  CA        -6.8060  -28.2010  101.7890 C.3   128  SER128      0.2020
     78  C         -6.5590  -26.6960  101.7550 C.2   128  SER128      0.2618
     79  O         -7.2270  -25.9650  101.0190 O.2   128  SER128     -0.2717
     80  CB        -7.7090  -28.5870  102.9550 C.3   128  SER128      0.2103
     81  OG        -7.2040  -28.1300  104.1870 O.3   128  SER128     -0.2182
     82  N         -5.5690  -26.2180  102.5100 N.am  129  ILE129     -0.1979
     83  CA        -5.2870  -24.7820  102.4980 C.3   129  ILE129      0.1595
     84  C         -4.7490  -24.3640  101.1450 C.2   129  ILE129      0.2287
     85  O         -5.1670  -23.3490  100.5690 O.2   129  ILE129     -0.2864
     86  CB        -4.3150  -24.4380  103.6350 C.3   129  ILE129      0.0276
     87  CG1       -5.0130  -24.6620  104.9610 C.3   129  ILE129      0.0022
     88  CG2       -3.7840  -22.9980  103.4990 C.3   129  ILE129      0.0022
     89  CD1       -4.0500  -24.7570  106.1210 C.3   129  ILE129      0.0001
     90  N        -16.0750  -18.8430  108.3450 N.3   221  PHE221     -0.1241
     91  CA       -15.2050  -19.4820  109.3300 C.3   221  PHE221      0.1605
     92  C        -15.9240  -19.6350  110.6640 C.2   221  PHE221      0.2264
     93  O        -16.4760  -18.6660  111.2010 O.2   221  PHE221     -0.2867
     94  CB       -13.9370  -18.6540  109.5080 C.3   221  PHE221      0.0534
     95  CG       -12.8980  -19.3190  110.3640 C.ar  221  PHE221     -0.0203
     96  CD1      -11.8640  -20.0460  109.7850 C.ar  221  PHE221     -0.0042
     97  CD2      -12.9420  -19.2160  111.7410 C.ar  221  PHE221     -0.0042
     98  CE1      -10.8980  -20.6900  110.5740 C.ar  221  PHE221     -0.0003
     99  CE2      -11.9880  -19.8620  112.5300 C.ar  221  PHE221     -0.0003
    100  CZ       -10.9760  -20.5910  111.9510 C.ar  221  PHE221     -0.0000
    101  N        -16.7460  -32.6420  112.9400 N.3   241  LEU241     -0.1245
    102  CA       -15.3290  -32.2950  112.9170 C.3   241  LEU241      0.1561
    103  C        -14.6600  -32.7250  111.6120 C.2   241  LEU241      0.2260
    104  O        -13.9480  -31.9020  111.0100 O.2   241  LEU241     -0.2867
    105  CB       -14.6470  -32.8700  114.1590 C.3   241  LEU241      0.0270
    106  CG       -13.1440  -32.6600  114.2830 C.3   241  LEU241      0.0019
    107  CD1      -12.7750  -31.1520  114.2620 C.3   241  LEU241      0.0001
    108  CD2      -12.6740  -33.3190  115.5810 C.3   241  LEU241      0.0001
    109  N        -13.0610  -29.8810  109.1430 N.3   245  LEU245     -0.1245
    110  CA       -11.6340  -29.8410  108.8510 C.3   245  LEU245      0.1561
    111  C        -11.3750  -29.8470  107.3480 C.2   245  LEU245      0.2260
    112  O        -10.5400  -29.0690  106.8530 O.2   245  LEU245     -0.2867
    113  CB       -10.9050  -31.0060  109.5310 C.3   245  LEU245      0.0270
    114  CG       -10.6750  -30.8210  111.0260 C.3   245  LEU245      0.0019
    115  CD1      -10.1260  -32.0850  111.6100 C.3   245  LEU245      0.0001
    116  CD2       -9.7020  -29.6670  111.3100 C.3   245  LEU245      0.0001
    117  N        -11.6330  -26.5120  105.7170 N.3   248  GLU248     -0.1231
    118  CA       -10.7400  -25.4370  106.1970 C.3   248  GLU248      0.1699
    119  C        -11.3820  -24.6130  107.3190 C.2   248  GLU248      0.2592
    120  O        -11.0740  -23.4240  107.4800 O.2   248  GLU248     -0.2718
    121  CB       -10.3150  -24.5070  105.0430 C.3   248  GLU248      0.0402
    122  CG        -9.6380  -25.2470  103.8640 C.3   248  GLU248      0.1161
    123  CD        -9.8150  -24.4860  102.5370 C.2   248  GLU248      0.3649
    124  OE1       -9.2850  -23.3770  102.4390 O.co2 248  GLU248     -0.2457
    125  OE2      -10.4800  -24.9880  101.5890 O.co2 248  GLU248     -0.2457
    126  N        -12.2910  -25.2540  108.0660 N.am  249  LEU249     -0.1980
    127  CA       -13.0810  -24.6800  109.1580 C.3   249  LEU249      0.1596
    128  C        -14.0460  -23.6000  108.6480 C.2   249  LEU249      0.2287
    129  O        -14.5960  -22.8210  109.4250 O.2   249  LEU249     -0.2864
    130  CB       -12.1830  -24.1340  110.2740 C.3   249  LEU249      0.0297
    131  CG       -11.2940  -25.1270  111.0170 C.3   249  LEU249      0.0022
    132  CD1      -10.4730  -24.4660  112.0960 C.3   249  LEU249      0.0001
    133  CD2      -12.1490  -26.2240  111.6010 C.3   249  LEU249      0.0001
    134  N         -9.4510  -18.2320  103.7160 N.3   293  ASN293     -0.1240
    135  CA        -8.9160  -17.7090  104.9620 C.3   293  ASN293      0.1653
    136  C         -7.6680  -16.8790  104.6830 C.2   293  ASN293      0.2266
    137  O         -6.7990  -17.2930  103.9190 O.2   293  ASN293     -0.2867
    138  CB        -8.5770  -18.8600  105.8990 C.3   293  ASN293      0.1155
    139  CG        -9.7990  -19.6220  106.3490 C.2   293  ASN293      0.2627
    140  OD1      -10.8940  -19.0780  106.4350 O.2   293  ASN293     -0.2716
    141  ND2       -9.6230  -20.8960  106.6020 N.am  293  ASN293     -0.0877
@<TRIPOS>BOND
     1    85    84    2
     2    79    78    2
     3    84    83    1
     4   125   123   ar
     5    78    77    1
     6    78    82   am
     7    77    76    1
     8    77    80    1
     9   124   123   ar
    10    83    82    1
    11    83    86    1
    12   123   122    1
    13    80    81    1
    14    88    86    1
    15    86    87    1
    16   134   135    1
    17   122   121    1
    18   137   136    2
    19    71    70    2
    20   136   135    1
    21    87    89    1
    22   135   138    1
    23   121   118    1
    24    70    69    1
    25   117   118    1
    26    68    69    1
    27   138   139    1
    28    69    72    1
    29   118   119    1
    30   139   140    2
    31   139   141   am
    32   112   111    2
    33   119   120    2
    34   119   126   am
    35   111   110    1
    36    72    74    1
    37    72    73    1
    38   126   127    1
    39    63    62    2
    40    90    91    1
    41    73    75    1
    42   128   127    1
    43   128   129    2
    44   110   109    1
    45   110   113    1
    46    62    61    1
    47   127   130    1
    48    60    61    1
    49    91    94    1
    50    91    92    1
    51    61    64    1
    52    94    95    1
    53   113   114    1
    54    96    95   ar
    55    96    98   ar
    56   130   131    1
    57    95    97   ar
    58    98   100   ar
    59    92    93    2
    60    64    66    1
    61    64    65    1
    62   104   103    2
    63   131   133    1
    64   131   132    1
    65   114   116    1
    66   114   115    1
    67    65    67    1
    68    55    54    2
    69   103   102    1
    70    97    99   ar
    71    54    53    1
    72   100    99   ar
    73   102   101    1
    74   102   105    1
    75    31    30    1
    76    53    52    1
    77    53    56    1
    78    30    32    1
    79    30    29    1
    80    25    26    1
    81   105   106    1
    82   107   106    1
    83   106   108    1
    84    56    57    1
    85    29    26    1
    86    26    27    1
    87    59    57    1
    88    57    58    1
    89    37    34    1
    90    27    28    2
    91    33    34    1
    92    34    35    1
    93    19    20    2
    94    19    18    1
    95    35    38   am
    96    35    36    2
    97    21    18    1
    98    21    22    1
    99    18    17    1
   100    38    39    1
   101    24    22    1
   102    23    22    1
   103    50    49    1
   104    39    42    1
   105    39    40    1
   106    51    49    1
   107    49    48    1
   108    42    43    1
   109    40    41    2
   110    44    45    1
   111    48    45    1
   112    45    46    1
   113    12    11    2
   114    46    47    2
   115     8     6    1
   116     7     6    1
   117     5     6    1
   118     5     2    1
   119    15    14    1
   120    11    10    1
   121     1     2    1
   122    14    16    1
   123    14    13    1
   124     2     3    1
   125    10    13    1
   126    10     9    1
   127     3     4    2
