@<TRIPOS>MOLECULE
tmp/5w7fB02.pdb
 156 155 0 0 0
SMALL
GASTEIGER

@<TRIPOS>ATOM
      1  N        -46.1300    1.1360  -73.6360 N.3   215  ASP215     -0.1225
      2  CA       -46.3010    2.1140  -72.5770 C.3   215  ASP215      0.1805
      3  C        -46.2230    1.4120  -71.2180 C.2   215  ASP215      0.2598
      4  O        -45.7450    0.2710  -71.1240 O.2   215  ASP215     -0.2718
      5  CB       -47.6230    2.8570  -72.8090 C.3   215  ASP215      0.1424
      6  CG       -48.7720    1.9210  -73.1400 C.2   215  ASP215      0.3668
      7  OD1      -48.7050    0.7330  -72.7580 O.co2 215  ASP215     -0.2456
      8  OD2      -49.7340    2.3730  -73.7980 O.co2 215  ASP215     -0.2456
      9  N        -46.6860    2.0960  -70.1690 N.am  216  ALA216     -0.1966
     10  CA       -46.5840    1.5570  -68.8150 C.3   216  ALA216      0.1728
     11  C        -47.1730    0.1540  -68.7290 C.2   216  ALA216      0.2616
     12  O        -46.5780   -0.7470  -68.1260 O.2   216  ALA216     -0.2715
     13  CB       -47.2770    2.4950  -67.8250 C.3   216  ALA216      0.0334
     14  N        -48.3500   -0.0500  -69.3230 N.am  217  ALA217     -0.1977
     15  CA       -48.9430   -1.3830  -69.3300 C.3   217  ALA217      0.1597
     16  C        -48.0110   -2.3900  -69.9900 C.2   217  ALA217      0.2287
     17  O        -47.8600   -3.5180  -69.5070 O.2   217  ALA217     -0.2864
     18  CB       -50.2950   -1.3530  -70.0410 C.3   217  ALA217      0.0319
     19  N        -43.4350    4.9940  -69.3230 N.3   293  ASN293     -0.1225
     20  CA       -44.7190    5.4420  -68.8050 C.3   293  ASN293      0.1785
     21  C        -45.1840    6.6800  -69.5610 C.2   293  ASN293      0.2597
     22  O        -44.4220    7.6340  -69.7460 O.2   293  ASN293     -0.2718
     23  CB       -44.6120    5.7410  -67.3090 C.3   293  ASN293      0.1169
     24  CG       -44.2710    4.5110  -66.4910 C.2   293  ASN293      0.2627
     25  OD1      -44.6520    3.3940  -66.8400 O.2   293  ASN293     -0.2716
     26  ND2      -43.5530    4.7110  -65.3910 N.am  293  ASN293     -0.0877
     27  N        -46.4390    6.6590  -70.0020 N.am  294  GLY294     -0.1957
     28  CA       -46.9880    7.7420  -70.7890 C.3   294  GLY294      0.1869
     29  C        -46.7010    7.6570  -72.2700 C.2   294  GLY294      0.2309
     30  O        -47.0690    8.5810  -73.0070 O.2   294  GLY294     -0.2863
     31  N        -51.4500    1.3350  -76.2650 N.3   324  ILE324     -0.1231
     32  CA       -52.7800    0.7590  -76.0930 C.3   324  ILE324      0.1696
     33  C        -53.7590    1.6870  -75.3840 C.2   324  ILE324      0.2632
     34  O        -54.8220    1.2410  -74.9390 O.2   324  ILE324     -0.2714
     35  CB       -52.6880   -0.5740  -75.3250 C.3   324  ILE324      0.0266
     36  CG1      -52.1630   -0.3480  -73.9020 C.3   324  ILE324      0.0019
     37  CG2      -51.7840   -1.5520  -76.0610 C.3   324  ILE324      0.0020
     38  CD1      -52.4440   -1.5040  -72.9680 C.3   324  ILE324      0.0001
     39  N        -53.4360    2.9740  -75.2740 N.am  325  GLY325     -0.1718
     40  CA       -54.3810    3.8640  -74.6280 C.2   325  GLY325      0.1480
     41  C        -53.9990    5.3240  -74.5270 C.2   325  GLY325      0.2820
     42  O        -54.8740    6.1900  -74.6180 O.2   325  GLY325     -0.2669
     43  N        -52.7160    5.6260  -74.3240 N.am  326  ASN326     -0.1937
     44  CA       -52.3230    7.0100  -74.0830 C.3   326  ASN326      0.1691
     45  C        -52.7090    7.9420  -75.2240 C.2   326  ASN326      0.2292
     46  O        -52.6640    9.1640  -75.0420 O.2   326  ASN326     -0.2864
     47  CB       -50.8170    7.0950  -73.8360 C.3   326  ASN326      0.1181
     48  CG       -50.4240    6.5720  -72.4730 C.2   326  ASN326      0.2629
     49  OD1      -51.1940    6.6640  -71.5160 O.2   326  ASN326     -0.2716
     50  ND2      -49.2230    6.0210  -72.3730 N.am  326  ASN326     -0.0877
     51  N        -57.8280   -1.4590  -76.6140 N.3   372  PRO372     -0.2102
     52  CA       -58.9940   -2.1300  -76.0340 C.3   372  PRO372      0.1504
     53  C        -60.1330   -1.1540  -75.7680 C.2   372  PRO372      0.2576
     54  O        -59.9780    0.0660  -75.8090 O.2   372  PRO372     -0.2718
     55  CB       -58.4470   -2.7060  -74.7280 C.3   372  PRO372      0.0282
     56  CG       -57.3930   -1.7350  -74.3250 C.3   372  PRO372      0.0208
     57  CD       -56.7790   -1.2230  -75.6050 C.3   372  PRO372      0.0893
     58  N        -61.3010   -1.7270  -75.4940 N.am  373  ASP373     -0.1960
     59  CA       -62.4770   -0.9480  -75.1200 C.3   373  ASP373      0.1840
     60  C        -62.3960   -0.7100  -73.6180 C.2   373  ASP373      0.2622
     61  O        -62.7800   -1.5670  -72.8180 O.2   373  ASP373     -0.2715
     62  CB       -63.7570   -1.6750  -75.5150 C.3   373  ASP373      0.1450
     63  CG       -65.0040   -0.9230  -75.0990 C.2   373  ASP373      0.3671
     64  OD1      -64.9140    0.3010  -74.8610 O.co2 373  ASP373     -0.2456
     65  OD2      -66.0780   -1.5560  -75.0180 O.co2 373  ASP373     -0.2456
     66  N        -61.9000    0.4660  -73.2330 N.am  374  GLY374     -0.1954
     67  CA       -61.6060    0.7480  -71.8450 C.3   374  GLY374      0.1869
     68  C        -62.7900    1.0430  -70.9540 C.2   374  GLY374      0.2309
     69  O        -62.5920    1.3490  -69.7740 O.2   374  GLY374     -0.2863
     70  N        -64.3550   -1.1940  -69.8880 N.3   376  PHE376     -0.1227
     71  CA       -64.1960   -2.3100  -68.9680 C.3   376  PHE376      0.1736
     72  C        -63.7510   -1.8420  -67.5890 C.2   376  PHE376      0.2595
     73  O        -64.1080   -2.4590  -66.5790 O.2   376  PHE376     -0.2718
     74  CB       -63.1830   -3.2960  -69.5470 C.3   376  PHE376      0.0547
     75  CG       -62.8210   -4.4080  -68.6180 C.ar  376  PHE376     -0.0202
     76  CD1      -63.6460   -5.5080  -68.4870 C.ar  376  PHE376     -0.0042
     77  CD2      -61.6570   -4.3530  -67.8720 C.ar  376  PHE376     -0.0042
     78  CE1      -63.3150   -6.5350  -67.6360 C.ar  376  PHE376     -0.0003
     79  CE2      -61.3220   -5.3790  -67.0140 C.ar  376  PHE376     -0.0003
     80  CZ       -62.1530   -6.4720  -66.8930 C.ar  376  PHE376     -0.0000
     81  N        -62.9760   -0.7570  -67.5230 N.am  377  LEU377     -0.1980
     82  CA       -62.4820   -0.2700  -66.2390 C.3   377  LEU377      0.1596
     83  C        -63.6340    0.1500  -65.3330 C.2   377  LEU377      0.2287
     84  O        -63.7940   -0.3730  -64.2240 O.2   377  LEU377     -0.2864
     85  CB       -61.5150    0.8970  -66.4570 C.3   377  LEU377      0.0297
     86  CG       -60.2410    0.6090  -67.2600 C.3   377  LEU377      0.0022
     87  CD1      -59.3970    1.8690  -67.3890 C.3   377  LEU377      0.0001
     88  CD2      -59.4250   -0.5120  -66.6320 C.3   377  LEU377      0.0001
     89  N        -54.9960    9.2800  -64.9450 N.3   411  PRO411     -0.2116
     90  CA       -54.2790    8.9550  -66.1860 C.3   411  PRO411      0.1372
     91  C        -55.1810    8.8380  -67.4020 C.2   411  PRO411      0.2244
     92  O        -54.6820    8.9370  -68.5310 O.2   411  PRO411     -0.2868
     93  CB       -53.6150    7.6120  -65.8590 C.3   411  PRO411      0.0268
     94  CG       -54.5270    6.9960  -64.8510 C.3   411  PRO411      0.0207
     95  CD       -55.0180    8.1410  -64.0120 C.3   411  PRO411      0.0892
     96  N        -61.8850    7.2850  -69.8670 N.3   415  TRP415     -0.1241
     97  CA       -62.4880    6.0250  -69.4460 C.3   415  TRP415      0.1605
     98  C        -62.7180    5.9460  -67.9430 C.2   415  TRP415      0.2264
     99  O        -63.7080    5.3550  -67.5050 O.2   415  TRP415     -0.2867
    100  CB       -61.6050    4.8480  -69.8760 C.3   415  TRP415      0.0550
    101  CG       -61.7360    4.4630  -71.3210 C.ar  415  TRP415      0.0003
    102  CD1      -62.8710    4.4820  -72.0810 C.ar  415  TRP415      0.0946
    103  CD2      -60.6880    3.9980  -72.1790 C.ar  415  TRP415      0.0152
    104  NE1      -62.5940    4.0540  -73.3560 N.ar  415  TRP415     -0.2442
    105  CE2      -61.2620    3.7470  -73.4420 C.ar  415  TRP415      0.0810
    106  CE3      -59.3220    3.7590  -72.0000 C.ar  415  TRP415      0.0012
    107  CZ2      -60.5160    3.2810  -74.5210 C.ar  415  TRP415      0.0191
    108  CZ3      -58.5840    3.2930  -73.0710 C.ar  415  TRP415      0.0001
    109  CH2      -59.1820    3.0590  -74.3160 C.ar  415  TRP415      0.0015
    110  N        -60.3410   -7.4680  -75.6890 N.3   458  PHE458     -0.1241
    111  CA       -60.3350   -7.7640  -74.2610 C.3   458  PHE458      0.1605
    112  C        -61.4780   -8.6940  -73.8710 C.2   458  PHE458      0.2264
    113  O        -61.3220   -9.5080  -72.9540 O.2   458  PHE458     -0.2867
    114  CB       -60.4010   -6.4690  -73.4500 C.3   458  PHE458      0.0534
    115  CG       -59.6370   -6.5260  -72.1510 C.ar  458  PHE458     -0.0203
    116  CD1      -58.2590   -6.6620  -72.1490 C.ar  458  PHE458     -0.0042
    117  CD2      -60.2950   -6.4400  -70.9350 C.ar  458  PHE458     -0.0042
    118  CE1      -57.5510   -6.7160  -70.9610 C.ar  458  PHE458     -0.0003
    119  CE2      -59.5890   -6.4950  -69.7440 C.ar  458  PHE458     -0.0003
    120  CZ       -58.2160   -6.6320  -69.7590 C.ar  458  PHE458     -0.0000
    121  N        -57.3690   -6.1680  -63.3480 N.3   476  ILE476     -0.1245
    122  CA       -56.8940   -4.7910  -63.3130 C.3   476  ILE476      0.1561
    123  C        -56.0160   -4.6040  -62.0850 C.2   476  ILE476      0.2260
    124  O        -56.2580   -5.1890  -61.0240 O.2   476  ILE476     -0.2867
    125  CB       -58.0640   -3.7820  -63.3010 C.3   476  ILE476      0.0252
    126  CG1      -58.9680   -3.9900  -64.5150 C.3   476  ILE476      0.0019
    127  CG2      -57.5390   -2.3490  -63.2940 C.3   476  ILE476      0.0019
    128  CD1      -60.3120   -3.3120  -64.3790 C.3   476  ILE476      0.0001
    129  N        -56.4200    0.7160  -63.4310 N.3   482  PHE482     -0.1227
    130  CA       -56.2380    1.2520  -64.7740 C.3   482  PHE482      0.1736
    131  C        -55.5600    0.2320  -65.6800 C.2   482  PHE482      0.2595
    132  O        -56.1420   -0.1980  -66.6800 O.2   482  PHE482     -0.2718
    133  CB       -55.4140    2.5410  -64.6980 C.3   482  PHE482      0.0547
    134  CG       -55.1340    3.1740  -66.0300 C.ar  482  PHE482     -0.0202
    135  CD1      -56.0380    3.0730  -67.0740 C.ar  482  PHE482     -0.0042
    136  CD2      -53.9580    3.8810  -66.2330 C.ar  482  PHE482     -0.0042
    137  CE1      -55.7720    3.6630  -68.2950 C.ar  482  PHE482     -0.0003
    138  CE2      -53.6880    4.4710  -67.4500 C.ar  482  PHE482     -0.0003
    139  CZ       -54.5960    4.3640  -68.4820 C.ar  482  PHE482     -0.0000
    140  N        -54.3300   -0.1590  -65.3410 N.am  483  HIS483     -0.1962
    141  CA       -53.5810   -1.0850  -66.1770 C.3   483  HIS483      0.1772
    142  C        -54.0790   -2.5160  -66.0040 C.2   483  HIS483      0.2462
    143  O        -54.6180   -2.8740  -64.9530 O.2   483  HIS483     -0.2730
    144  CB       -52.1000   -1.0540  -65.8320 C.3   483  HIS483      0.0785
    145  CG       -51.5150    0.3170  -65.7950 C.ar  483  HIS483      0.0821
    146  ND1      -51.1240    0.9240  -64.6220 N.ar  483  HIS483     -0.2267
    147  CD2      -51.2400    1.1950  -66.7870 C.ar  483  HIS483      0.1154
    148  CE1      -50.6380    2.1210  -64.8940 C.ar  483  HIS483      0.1986
    149  NE2      -50.6980    2.3100  -66.2000 N.ar  483  HIS483     -0.2212
    150  N        -53.8960   -3.3590  -67.0160 N.am  484  PRO484     -0.2727
    151  CA       -54.0440   -4.7980  -66.7940 C.3   484  PRO484      0.1402
    152  C        -52.9120   -5.3150  -65.9230 C.2   484  PRO484      0.2269
    153  O        -51.7810   -4.8240  -65.9770 O.2   484  PRO484     -0.2865
    154  CB       -53.9880   -5.3890  -68.2080 C.3   484  PRO484      0.0296
    155  CG       -54.2500   -4.2360  -69.1260 C.3   484  PRO484      0.0237
    156  CD       -53.6890   -3.0420  -68.4370 C.3   484  PRO484      0.0939
@<TRIPOS>BOND
     1    51    52    1
     2    51    57    1
     3    31    32    1
     4    32    33    1
     5    32    35    1
     6    37    35    1
     7    52    53    1
     8    52    55    1
     9    54    53    2
    10    53    58   am
    11   110   111    1
    12    57    56    1
    13    62    59    1
    14    62    63    1
    15    58    59    1
    16    33    39    1
    17    33    34    2
    18    35    36    1
    19    39    40    2
    20    45    46    2
    21    45    44    1
    22    59    60    1
    23    63    65   ar
    24    63    64   ar
    25    55    56    1
    26    40    41    1
    27    42    41    2
    28    41    43   am
    29   107   109   ar
    30   107   105   ar
    31    43    44    1
    32   109   108   ar
    33   111   112    1
    34   111   114    1
    35    44    47    1
    36    36    38    1
    37   112   113    2
    38    47    48    1
    39     8     6   ar
    40     1     2    1
    41    60    66   am
    42    60    61    2
    43   114   115    1
    44   105   104   ar
    45   105   103   ar
    46   104   102   ar
    47    66    67    1
    48     6     5    1
    49     6     7   ar
    50   108   106   ar
    51    30    29    2
    52     5     2    1
    53     2     3    1
    54    48    50   am
    55    48    49    2
    56    29    28    1
    57   103   106   ar
    58   103   101   ar
    59   115   116   ar
    60   115   117   ar
    61   116   118   ar
    62   102   101   ar
    63    67    68    1
    64   101   100    1
    65     3     4    2
    66     3     9   am
    67   118   120   ar
    68    68    69    2
    69   117   119   ar
    70    28    27    1
    71     9    10    1
    72    18    15    1
    73    27    21   am
    74    16    17    2
    75    16    15    1
    76    70    71    1
    77   100    97    1
    78    96    97    1
    79   120   119   ar
    80    22    21    2
    81    21    20    1
    82    74    71    1
    83    74    75    1
    84    97    98    1
    85    15    14    1
    86    19    20    1
    87    14    11   am
    88   155   156    1
    89   155   154    1
    90    71    72    1
    91    10    11    1
    92    10    13    1
    93    20    23    1
    94    11    12    2
    95    75    76   ar
    96    75    77   ar
    97    92    91    2
    98    76    78   ar
    99   139   137   ar
   100   139   138   ar
   101   156   150    1
   102   137   135   ar
   103   154   151    1
   104    98    99    2
   105    77    79   ar
   106    78    80   ar
   107    72    81   am
   108    72    73    2
   109    81    82    1
   110   138   136   ar
   111    91    90    1
   112    87    86    1
   113    23    24    1
   114    86    88    1
   115    86    85    1
   116   135   134   ar
   117   150   151    1
   118   150   142   am
   119    79    80   ar
   120    25    24    2
   121   151   152    1
   122   147   149   ar
   123   147   145   ar
   124   132   131    2
   125    24    26   am
   126    85    82    1
   127    82    83    1
   128   136   134   ar
   129   149   148   ar
   130    90    93    1
   131    90    89    1
   132   141   142    1
   133   141   144    1
   134   141   140    1
   135   134   133    1
   136   142   143    2
   137   153   152    2
   138    93    94    1
   139   144   145    1
   140   145   146   ar
   141   131   140   am
   142   131   130    1
   143    83    84    2
   144    89    95    1
   145   148   146   ar
   146    94    95    1
   147   130   133    1
   148   130   129    1
   149   126   128    1
   150   126   125    1
   151   121   122    1
   152   122   125    1
   153   122   123    1
   154   125   127    1
   155   123   124    2
