@<TRIPOS>MOLECULE
tmp/5w7fB01.pdb
 155 145 0 0 0
SMALL
GASTEIGER

@<TRIPOS>ATOM
      1  N        -51.5950   13.9380  -53.1410 N.3     7  LEU7       -0.1245
      2  CA       -51.8680   12.5080  -53.2170 C.3     7  LEU7        0.1561
      3  C        -50.9940   11.7400  -52.2340 C.2     7  LEU7        0.2260
      4  O        -51.4940   10.9450  -51.4290 O.2     7  LEU7       -0.2867
      5  CB       -51.6510   12.0100  -54.6480 C.3     7  LEU7        0.0270
      6  CG       -51.8640   10.5150  -54.8980 C.3     7  LEU7        0.0019
      7  CD1      -53.2550   10.0710  -54.4720 C.3     7  LEU7        0.0001
      8  CD2      -51.6420   10.1940  -56.3590 C.3     7  LEU7        0.0001
      9  N        -52.2300    9.4930  -49.0190 N.3    11  VAL11      -0.1245
     10  CA       -51.9330    8.0650  -48.9710 C.3    11  VAL11       0.1561
     11  C        -51.2500    7.7020  -47.6570 C.2    11  VAL11       0.2260
     12  O        -51.6210    6.7250  -46.9960 O.2    11  VAL11      -0.2867
     13  CB       -51.0790    7.6570  -50.1810 C.3    11  VAL11       0.0252
     14  CG1      -50.5900    6.2190  -50.0320 C.3    11  VAL11       0.0019
     15  CG2      -51.8800    7.8140  -51.4530 C.3    11  VAL11       0.0019
     16  N        -46.6860    2.0960  -70.1690 N.3   216  ALA216     -0.1245
     17  CA       -46.5840    1.5570  -68.8150 C.3   216  ALA216      0.1562
     18  C        -47.1730    0.1540  -68.7290 C.2   216  ALA216      0.2260
     19  O        -46.5780   -0.7470  -68.1260 O.2   216  ALA216     -0.2867
     20  CB       -47.2770    2.4950  -67.8250 C.3   216  ALA216      0.0290
     21  N        -46.5710   -1.8950  -65.4070 N.3   221  PHE221     -0.1241
     22  CA       -46.6530   -0.9930  -64.2660 C.3   221  PHE221      0.1605
     23  C        -47.5090   -1.6270  -63.1770 C.2   221  PHE221      0.2264
     24  O        -48.6170   -2.1040  -63.4420 O.2   221  PHE221     -0.2867
     25  CB       -47.2400    0.3510  -64.6990 C.3   221  PHE221      0.0534
     26  CG       -47.2740    1.3840  -63.6080 C.ar  221  PHE221     -0.0203
     27  CD1      -46.2950    2.3590  -63.5340 C.ar  221  PHE221     -0.0042
     28  CD2      -48.2890    1.3910  -62.6650 C.ar  221  PHE221     -0.0042
     29  CE1      -46.3210    3.3160  -62.5360 C.ar  221  PHE221     -0.0003
     30  CE2      -48.3190    2.3460  -61.6640 C.ar  221  PHE221     -0.0003
     31  CZ       -47.3340    3.3090  -61.6010 C.ar  221  PHE221     -0.0000
     32  N        -48.1490   -1.2190  -58.7910 N.3   223  ILE223     -0.1245
     33  CA       -47.9450   -0.8530  -57.3940 C.3   223  ILE223      0.1561
     34  C        -48.5700   -1.9630  -56.5440 C.2   223  ILE223      0.2260
     35  O        -49.8030   -2.1040  -56.5530 O.2   223  ILE223     -0.2867
     36  CB       -48.5670    0.5090  -57.0610 C.3   223  ILE223      0.0252
     37  CG1      -47.8470    1.6190  -57.8280 C.3   223  ILE223      0.0019
     38  CG2      -48.4980    0.7740  -55.5560 C.3   223  ILE223      0.0019
     39  CD1      -48.5490    2.9620  -57.7680 C.3   223  ILE223      0.0001
     40  N        -50.3560   -0.4490  -49.4960 N.3   228  LEU228     -0.1245
     41  CA       -51.4380    0.4460  -49.1110 C.3   228  LEU228      0.1561
     42  C        -52.4910   -0.1870  -48.2160 C.2   228  LEU228      0.2260
     43  O        -53.2470    0.5520  -47.5760 O.2   228  LEU228     -0.2867
     44  CB       -52.1380    1.0030  -50.3620 C.3   228  LEU228      0.0270
     45  CG       -51.2220    1.6150  -51.4220 C.3   228  LEU228      0.0019
     46  CD1      -52.0390    2.0980  -52.6000 C.3   228  LEU228      0.0001
     47  CD2      -50.4060    2.7570  -50.8460 C.3   228  LEU228      0.0001
     48  N        -43.4350    4.9940  -69.3230 N.3   293  ASN293     -0.1225
     49  CA       -44.7190    5.4420  -68.8050 C.3   293  ASN293      0.1785
     50  C        -45.1840    6.6800  -69.5610 C.2   293  ASN293      0.2597
     51  O        -44.4220    7.6340  -69.7460 O.2   293  ASN293     -0.2718
     52  CB       -44.6120    5.7410  -67.3090 C.3   293  ASN293      0.1169
     53  CG       -44.2710    4.5110  -66.4910 C.2   293  ASN293      0.2627
     54  OD1      -44.6520    3.3940  -66.8400 O.2   293  ASN293     -0.2716
     55  ND2      -43.5530    4.7110  -65.3910 N.am  293  ASN293     -0.0877
     56  N        -46.4390    6.6590  -70.0020 N.am  294  GLY294     -0.1957
     57  CA       -46.9880    7.7420  -70.7890 C.3   294  GLY294      0.1869
     58  C        -46.7010    7.6570  -72.2700 C.2   294  GLY294      0.2309
     59  O        -47.0690    8.5810  -73.0070 O.2   294  GLY294     -0.2863
     60  N        -52.7160    5.6260  -74.3240 N.3   326  ASN326     -0.1240
     61  CA       -52.3230    7.0100  -74.0830 C.3   326  ASN326      0.1653
     62  C        -52.7090    7.9420  -75.2240 C.2   326  ASN326      0.2266
     63  O        -52.6640    9.1640  -75.0420 O.2   326  ASN326     -0.2867
     64  CB       -50.8170    7.0950  -73.8360 C.3   326  ASN326      0.1155
     65  CG       -50.4240    6.5720  -72.4730 C.2   326  ASN326      0.2627
     66  OD1      -51.1940    6.6640  -71.5160 O.2   326  ASN326     -0.2716
     67  ND2      -49.2230    6.0210  -72.3730 N.am  326  ASN326     -0.0877
     68  N        -61.5970    0.4020  -53.3110 N.3   386  HIS386     -0.1241
     69  CA       -60.1690    0.5970  -53.4980 C.3   386  HIS386      0.1621
     70  C        -59.4220    0.0320  -52.2900 C.2   386  HIS386      0.2264
     71  O        -59.9630   -0.0000  -51.1800 O.2   386  HIS386     -0.2867
     72  CB       -59.8600    2.0850  -53.6650 C.3   386  HIS386      0.0745
     73  CG       -58.4670    2.3720  -54.1320 C.ar  386  HIS386      0.0817
     74  ND1      -57.4060    2.5180  -53.2660 N.ar  386  HIS386     -0.2268
     75  CD2      -57.9630    2.5470  -55.3770 C.ar  386  HIS386      0.1154
     76  CE1      -56.3070    2.7690  -53.9560 C.ar  386  HIS386      0.1986
     77  NE2      -56.6180    2.7910  -55.2390 N.ar  386  HIS386     -0.2212
     78  N        -57.3240    1.2870  -50.3300 N.3   388  LEU388     -0.1245
     79  CA       -57.3550    2.2460  -49.2310 C.3   388  LEU388      0.1561
     80  C        -58.7250    2.3580  -48.5740 C.2   388  LEU388      0.2260
     81  O        -58.8270    2.9550  -47.4970 O.2   388  LEU388     -0.2867
     82  CB       -56.9120    3.6220  -49.7310 C.3   388  LEU388      0.0270
     83  CG       -55.4340    3.7630  -50.0980 C.3   388  LEU388      0.0019
     84  CD1      -55.1880    5.0940  -50.7730 C.3   388  LEU388      0.0001
     85  CD2      -54.5580    3.6290  -48.8620 C.3   388  LEU388      0.0001
     86  N        -62.3580    7.1420  -56.0530 N.3   400  PHE400     -0.1241
     87  CA       -60.9200    7.2170  -56.2890 C.3   400  PHE400      0.1605
     88  C        -60.6090    7.9120  -57.6080 C.2   400  PHE400      0.2264
     89  O        -59.6910    8.7400  -57.6790 O.2   400  PHE400     -0.2867
     90  CB       -60.3240    5.8110  -56.2750 C.3   400  PHE400      0.0534
     91  CG       -58.8800    5.7610  -56.6690 C.ar  400  PHE400     -0.0203
     92  CD1      -57.9040    6.3250  -55.8670 C.ar  400  PHE400     -0.0042
     93  CD2      -58.4980    5.1440  -57.8440 C.ar  400  PHE400     -0.0042
     94  CE1      -56.5770    6.2770  -56.2350 C.ar  400  PHE400     -0.0003
     95  CE2      -57.1720    5.0920  -58.2150 C.ar  400  PHE400     -0.0003
     96  CZ       -56.2100    5.6590  -57.4080 C.ar  400  PHE400     -0.0000
     97  N        -58.5580   11.5860  -58.1010 N.3   404  LEU404     -0.1245
     98  CA       -57.4610   11.8280  -59.0350 C.3   404  LEU404      0.1561
     99  C        -57.8350   12.8990  -60.0510 C.2   404  LEU404      0.2260
    100  O        -57.0560   13.8220  -60.3140 O.2   404  LEU404     -0.2867
    101  CB       -57.0750   10.5300  -59.7450 C.3   404  LEU404      0.0270
    102  CG       -56.4190    9.4310  -58.9080 C.3   404  LEU404      0.0019
    103  CD1      -56.0440    8.2630  -59.7990 C.3   404  LEU404      0.0001
    104  CD2      -55.1910    9.9450  -58.1640 C.3   404  LEU404      0.0001
    105  N        -54.6060   14.3170  -61.8060 N.3   409  LEU409     -0.1245
    106  CA       -53.6800   13.1980  -61.9110 C.3   409  LEU409      0.1561
    107  C        -54.3200   11.9500  -62.4990 C.2   409  LEU409      0.2260
    108  O        -53.6650   10.9020  -62.5460 O.2   409  LEU409     -0.2867
    109  CB       -53.0910   12.8500  -60.5390 C.3   409  LEU409      0.0270
    110  CG       -52.2250   13.9000  -59.8420 C.3   409  LEU409      0.0019
    111  CD1      -51.7270   13.3430  -58.5240 C.3   409  LEU409      0.0001
    112  CD2      -51.0570   14.3370  -60.7130 C.3   409  LEU409      0.0001
    113  N        -54.9960    9.2800  -64.9450 N.3   411  PRO411     -0.2116
    114  CA       -54.2790    8.9550  -66.1860 C.3   411  PRO411      0.1372
    115  C        -55.1810    8.8380  -67.4020 C.2   411  PRO411      0.2244
    116  O        -54.6820    8.9370  -68.5310 O.2   411  PRO411     -0.2868
    117  CB       -53.6150    7.6120  -65.8590 C.3   411  PRO411      0.0268
    118  CG       -54.5270    6.9960  -64.8510 C.3   411  PRO411      0.0207
    119  CD       -55.0180    8.1410  -64.0120 C.3   411  PRO411      0.0892
    120  N        -54.3370   -1.0300  -57.3290 N.3   479  VAL479     -0.1231
    121  CA       -54.0240    0.2820  -56.7680 C.3   479  VAL479      0.1692
    122  C        -54.4370    1.3920  -57.7270 C.2   479  VAL479      0.2592
    123  O        -55.0670    2.3760  -57.3220 O.2   479  VAL479     -0.2718
    124  CB       -52.5310    0.3720  -56.4090 C.3   479  VAL479      0.0266
    125  CG1      -52.1590    1.7930  -55.9980 C.3   479  VAL479      0.0020
    126  CG2      -52.2050   -0.6010  -55.2870 C.3   479  VAL479      0.0020
    127  N        -54.0900    1.2590  -59.0070 N.am  480  ASP480     -0.1974
    128  CA       -54.4390    2.2940  -59.9720 C.3   480  ASP480      0.1709
    129  C        -55.7590    2.0240  -60.6750 C.2   480  ASP480      0.2293
    130  O        -56.3380    2.9550  -61.2460 O.2   480  ASP480     -0.2864
    131  CB       -53.3290    2.4660  -61.0210 C.3   480  ASP480      0.1436
    132  CG       -52.9340    1.1620  -61.6880 C.2   480  ASP480      0.3671
    133  OD1      -53.7040    0.6740  -62.5410 O.co2 480  ASP480     -0.2456
    134  OD2      -51.8390    0.6410  -61.3790 O.co2 480  ASP480     -0.2456
    135  N        -56.4200    0.7160  -63.4310 N.3   482  PHE482     -0.1227
    136  CA       -56.2380    1.2520  -64.7740 C.3   482  PHE482      0.1736
    137  C        -55.5600    0.2320  -65.6800 C.2   482  PHE482      0.2595
    138  O        -56.1420   -0.1980  -66.6800 O.2   482  PHE482     -0.2718
    139  CB       -55.4140    2.5410  -64.6980 C.3   482  PHE482      0.0547
    140  CG       -55.1340    3.1740  -66.0300 C.ar  482  PHE482     -0.0202
    141  CD1      -56.0380    3.0730  -67.0740 C.ar  482  PHE482     -0.0042
    142  CD2      -53.9580    3.8810  -66.2330 C.ar  482  PHE482     -0.0042
    143  CE1      -55.7720    3.6630  -68.2950 C.ar  482  PHE482     -0.0003
    144  CE2      -53.6880    4.4710  -67.4500 C.ar  482  PHE482     -0.0003
    145  CZ       -54.5960    4.3640  -68.4820 C.ar  482  PHE482     -0.0000
    146  N        -54.3300   -0.1590  -65.3410 N.am  483  HIS483     -0.1975
    147  CA       -53.5810   -1.0850  -66.1770 C.3   483  HIS483      0.1656
    148  C        -54.0790   -2.5160  -66.0040 C.2   483  HIS483      0.2291
    149  O        -54.6180   -2.8740  -64.9530 O.2   483  HIS483     -0.2864
    150  CB       -52.1000   -1.0540  -65.8320 C.3   483  HIS483      0.0771
    151  CG       -51.5150    0.3170  -65.7950 C.ar  483  HIS483      0.0820
    152  ND1      -51.1240    0.9240  -64.6220 N.ar  483  HIS483     -0.2267
    153  CD2      -51.2400    1.1950  -66.7870 C.ar  483  HIS483      0.1154
    154  CE1      -50.6380    2.1210  -64.8940 C.ar  483  HIS483      0.1986
    155  NE2      -50.6980    2.3100  -66.2000 N.ar  483  HIS483     -0.2212
@<TRIPOS>BOND
     1    62    63    2
     2    62    61    1
     3    60    61    1
     4    61    64    1
     5    64    65    1
     6    59    58    2
     7    65    67   am
     8    65    66    2
     9    58    57    1
    10    57    56    1
    11    16    17    1
    12    56    50   am
    13    51    50    2
    14    50    49    1
    15    48    49    1
    16    17    18    1
    17    17    20    1
    18    49    52    1
    19    18    19    2
    20   116   115    2
    21   145   143   ar
    22   145   144   ar
    23   143   141   ar
    24   144   142   ar
    25   115   114    1
    26    52    53    1
    27   141   140   ar
    28    54    53    2
    29   153   155   ar
    30   153   151   ar
    31   138   137    2
    32    53    55   am
    33   142   140   ar
    34   155   154   ar
    35   114   117    1
    36   114   113    1
    37   147   148    1
    38   147   150    1
    39   147   146    1
    40   140   139    1
    41   148   149    2
    42   117   118    1
    43   150   151    1
    44   151   152   ar
    45   137   146   am
    46   137   136    1
    47    21    22    1
    48   113   119    1
    49   154   152   ar
    50   118   119    1
    51   136   139    1
    52   136   135    1
    53    25    22    1
    54    25    26    1
    55    22    23    1
    56    26    27   ar
    57    26    28   ar
    58    27    29   ar
    59    24    23    2
    60    28    30   ar
    61   108   107    2
    62   133   132   ar
    63    29    31   ar
    64   107   106    1
    65   106   105    1
    66   106   109    1
    67   132   134   ar
    68   132   131    1
    69    30    31   ar
    70   130   129    2
    71   131   128    1
    72   112   110    1
    73   129   128    1
    74   109   110    1
    75   100    99    2
    76    99    98    1
    77   128   127    1
    78   110   111    1
    79   103   102    1
    80   101    98    1
    81   101   102    1
    82    98    97    1
    83   127   122   am
    84   102   104    1
    85    32    33    1
    86    95    93   ar
    87    95    96   ar
    88    93    91   ar
    89    37    39    1
    90    37    36    1
    91   122   123    2
    92   122   121    1
    93    89    88    2
    94    88    87    1
    95    96    94   ar
    96    33    36    1
    97    33    34    1
    98   120   121    1
    99    36    38    1
   100   121   124    1
   101    91    90    1
   102    91    92   ar
   103    35    34    2
   104   124   125    1
   105   124   126    1
   106     8     6    1
   107    87    90    1
   108    87    86    1
   109    94    92   ar
   110    75    77   ar
   111    75    73   ar
   112    77    76   ar
   113     6     5    1
   114     6     7    1
   115     5     2    1
   116    73    72    1
   117    73    74   ar
   118    76    74   ar
   119    72    69    1
   120    69    68    1
   121    69    70    1
   122     2     1    1
   123     2     3    1
   124    46    45    1
   125    70    71    2
   126     3     4    2
   127    15    13    1
   128    45    47    1
   129    45    44    1
   130    84    83    1
   131    44    41    1
   132    78    79    1
   133    13    14    1
   134    13    10    1
   135    83    82    1
   136    83    85    1
   137    82    79    1
   138    40    41    1
   139    79    80    1
   140    41    42    1
   141     9    10    1
   142    10    11    1
   143    80    81    2
   144    42    43    2
   145    11    12    2
