@<TRIPOS>MOLECULE
tmp/5w7kA00.pdb
 187 180 0 0 0
SMALL
GASTEIGER

@<TRIPOS>ATOM
      1  N          7.2600    8.9040   54.7480 N.3     6  TYR6       -0.1241
      2  CA         6.1490    8.6880   53.8180 C.3     6  TYR6        0.1605
      3  C          5.5760   10.0020   53.2980 C.2     6  TYR6        0.2264
      4  O          4.9910   10.0310   52.2120 O.2     6  TYR6       -0.2867
      5  CB         5.0480    7.8530   54.4710 C.3     6  TYR6        0.0534
      6  CG         5.4030    6.3930   54.5610 C.ar    6  TYR6       -0.0201
      7  CD1        5.4570    5.5990   53.4220 C.ar    6  TYR6       -0.0009
      8  CD2        5.7260    5.8150   55.7800 C.ar    6  TYR6       -0.0009
      9  CE1        5.8000    4.2510   53.5020 C.ar    6  TYR6        0.0417
     10  CE2        6.0800    4.4730   55.8730 C.ar    6  TYR6        0.0417
     11  CZ         6.1120    3.6970   54.7310 C.ar    6  TYR6        0.1957
     12  OH         6.4460    2.3670   54.8380 O.3     6  TYR6       -0.2866
     13  N          7.4230   10.5010   50.2110 N.3     9  ALA9       -0.1231
     14  CA         7.1080    9.4630   49.2400 C.3     9  ALA9        0.1694
     15  C          5.7580    9.7210   48.5830 C.2     9  ALA9        0.2591
     16  O          5.5770    9.4650   47.3820 O.2     9  ALA9       -0.2718
     17  CB         7.1130    8.0960   49.9320 C.3     9  ALA9        0.0304
     18  N          4.7980   10.2470   49.3520 N.am   10  GLU10      -0.1979
     19  CA         3.4400   10.3860   48.8230 C.3    10  GLU10       0.1602
     20  C          3.3630   11.4260   47.7110 C.2    10  GLU10       0.2287
     21  O          2.4420   11.3660   46.9080 O.2    10  GLU10      -0.2864
     22  CB         2.4410   10.7160   49.9590 C.3    10  GLU10       0.0415
     23  CG         2.5850   12.1350   50.5050 C.3    10  GLU10       0.1163
     24  CD         1.4950   12.5570   51.4960 C.2    10  GLU10       0.3649
     25  OE1        0.5250   11.8050   51.7220 O.co2  10  GLU10      -0.2457
     26  OE2        1.6220   13.6650   52.0480 O.co2  10  GLU10      -0.2457
     27  N          3.8660    8.9520   44.8640 N.3    13  THR13      -0.1218
     28  CA         2.8730    7.9140   44.6180 C.3    13  THR13       0.1862
     29  C          1.5430    8.4970   44.1710 C.2    13  THR13       0.2287
     30  O          0.7450    7.7670   43.5740 O.2    13  THR13      -0.2866
     31  CB         2.7140    7.0110   45.8500 C.3    13  THR13       0.1770
     32  OG1        2.2070    7.7540   46.9710 O.3    13  THR13      -0.2211
     33  CG2        4.0530    6.4120   46.2240 C.3    13  THR13       0.0375
     34  N         -8.9970    0.3570   50.5830 N.3    38  ASP38      -0.1225
     35  CA        -7.6710    0.9180   50.2630 C.3    38  ASP38       0.1805
     36  C         -6.6950    0.1380   51.1420 C.2    38  ASP38       0.2598
     37  O         -6.4130    0.5010   52.2810 O.2    38  ASP38      -0.2718
     38  CB        -7.6250    2.4280   50.5140 C.3    38  ASP38       0.1424
     39  CG        -6.2370    3.0740   50.2210 C.2    38  ASP38       0.3668
     40  OD1       -5.3140    2.3920   49.6760 O.co2  38  ASP38      -0.2456
     41  OD2       -6.0730    4.3020   50.5310 O.co2  38  ASP38      -0.2456
     42  N         -6.2570   -0.9980   50.6360 N.am   39  LEU39      -0.1966
     43  CA        -5.4240   -1.9050   51.4050 C.3    39  LEU39       0.1728
     44  C         -3.9800   -1.4410   51.3540 C.2    39  LEU39       0.2616
     45  O         -3.4850   -1.0600   50.2880 O.2    39  LEU39      -0.2715
     46  CB        -5.5370   -3.3060   50.8270 C.3    39  LEU39       0.0311
     47  CG        -4.7180   -4.4230   51.4260 C.3    39  LEU39       0.0022
     48  CD1       -5.0450   -4.5320   52.9090 C.3    39  LEU39       0.0001
     49  CD2       -5.0040   -5.7190   50.6830 C.3    39  LEU39       0.0001
     50  N         -3.3030   -1.5100   52.5030 N.am   40  ALA40      -0.1963
     51  CA        -1.9510   -0.9730   52.6760 C.3    40  ALA40       0.1728
     52  C         -1.8970    0.4950   52.2390 C.2    40  ALA40       0.2616
     53  O         -1.1090    0.9010   51.3770 O.2    40  ALA40      -0.2715
     54  CB        -0.9210   -1.8320   51.9230 C.3    40  ALA40       0.0334
     55  N         -2.7570    1.3030   52.8700 N.am   41  CYS41      -0.1954
     56  CA        -3.0790    2.6130   52.3340 C.3    41  CYS41       0.1843
     57  C         -1.9800    3.6410   52.5250 C.2    41  CYS41       0.2626
     58  O         -2.0670    4.7090   51.9110 O.2    41  CYS41      -0.2714
     59  CB        -4.3520    3.1590   52.9710 C.3    41  CYS41       0.0997
     60  SG        -4.2760    3.1110   54.7290 S.3    41  CYS41      -0.0797
     61  N         -0.9740    3.3630   53.3530 N.am   42  GLY42      -0.1940
     62  CA         0.0240    4.3660   53.6760 C.3    42  GLY42       0.2014
     63  C         -0.6050    5.6370   54.2260 C.2    42  GLY42       0.2639
     64  O         -1.4090    5.5930   55.1750 O.2    42  GLY42      -0.2714
     65  N         -0.2960    6.7760   53.6020 N.am   43  THR43      -0.1950
     66  CA        -0.9180    8.0410   53.9840 C.3    43  THR43       0.1897
     67  C         -2.2530    8.2840   53.2770 C.2    43  THR43       0.2313
     68  O         -2.8040    9.3930   53.3600 O.2    43  THR43      -0.2863
     69  CB         0.0390    9.1770   53.6910 C.3    43  THR43       0.1794
     70  OG1        0.2090    9.2500   52.2720 O.3    43  THR43      -0.2208
     71  CG2        1.3640    8.8920   54.3550 C.3    43  THR43       0.0378
     72  N         -3.1600    7.9180   49.8610 N.3    45  VAL45      -0.1231
     73  CA        -3.2040    8.6210   48.5790 C.3    45  VAL45       0.1692
     74  C         -4.3120    8.0740   47.6870 C.2    45  VAL45       0.2591
     75  O         -4.9420    8.8390   46.9510 O.2    45  VAL45      -0.2718
     76  CB        -1.8390    8.5820   47.8710 C.3    45  VAL45       0.0266
     77  CG1       -0.8110    9.2710   48.7300 C.3    45  VAL45       0.0020
     78  CG2       -1.4230    7.1480   47.5430 C.3    45  VAL45       0.0020
     79  N         -4.5300    6.7460   47.6910 N.am   46  VAL46      -0.1980
     80  CA        -5.6210    6.1700   46.8980 C.3    46  VAL46       0.1595
     81  C         -6.9640    6.7350   47.3820 C.2    46  VAL46       0.2287
     82  O         -7.8000    7.1680   46.5890 O.2    46  VAL46      -0.2864
     83  CB        -5.5800    4.6290   46.9610 C.3    46  VAL46       0.0276
     84  CG1       -6.8540    3.9920   46.3830 C.3    46  VAL46       0.0022
     85  CG2       -4.3260    4.0130   46.2140 C.3    46  VAL46       0.0022
     86  N         -3.9690   -0.3830   57.0830 N.3    68  ASP68      -0.1225
     87  CA        -2.5110   -0.4760   56.9880 C.3    68  ASP68       0.1805
     88  C         -1.9780   -1.2330   58.1960 C.2    68  ASP68       0.2598
     89  O         -2.6050   -1.2480   59.2590 O.2    68  ASP68      -0.2718
     90  CB        -1.8510    0.9080   56.8800 C.3    68  ASP68       0.1424
     91  CG        -0.4030    0.8270   56.3190 C.2    68  ASP68       0.3668
     92  OD1        0.5100    0.3590   57.0530 O.co2  68  ASP68      -0.2456
     93  OD2       -0.1880    1.2250   55.1500 O.co2  68  ASP68      -0.2456
     94  N         -0.8270   -1.8970   58.0150 N.am   69  ILE69      -0.1966
     95  CA        -0.2280   -2.6460   59.1220 C.3    69  ILE69       0.1727
     96  C          0.3090   -1.6920   60.1790 C.2    69  ILE69       0.2616
     97  O          0.3760   -2.0470   61.3620 O.2    69  ILE69      -0.2715
     98  CB         0.8840   -3.6100   58.6140 C.3    69  ILE69       0.0290
     99  CG1        1.1560   -4.7470   59.6080 C.3    69  ILE69       0.0022
    100  CG2        2.1850   -2.8630   58.3810 C.3    69  ILE69       0.0023
    101  CD1       -0.0680   -5.4650   60.0840 C.3    69  ILE69       0.0001
    102  N          0.6960   -0.4760   59.7890 N.am   70  SER70      -0.1950
    103  CA         1.2580    0.4850   60.7280 C.3    70  SER70       0.1924
    104  C          0.1700    1.3100   61.4040 C.2    70  SER70       0.2314
    105  O         -0.7510    1.7980   60.7470 O.2    70  SER70      -0.2863
    106  CB         2.2290    1.4170   60.0050 C.3    70  SER70       0.2116
    107  OG         2.2340    2.6990   60.5920 O.3    70  SER70      -0.2180
    108  N          0.5740    5.2450   60.4250 N.3    73  LEU73      -0.1245
    109  CA        -0.0200    5.5870   59.1360 C.3    73  LEU73       0.1561
    110  C         -1.5460    5.5470   59.2060 C.2    73  LEU73       0.2260
    111  O         -2.2220    6.4730   58.7440 O.2    73  LEU73      -0.2867
    112  CB         0.5000    4.6260   58.0550 C.3    73  LEU73       0.0270
    113  CG         1.9780    4.8250   57.6870 C.3    73  LEU73       0.0019
    114  CD1        2.4470    3.6900   56.8040 C.3    73  LEU73       0.0001
    115  CD2        2.1810    6.1550   56.9900 C.3    73  LEU73       0.0001
    116  N         -4.6810   -3.2650   59.8250 N.3    94  MET94      -0.1230
    117  CA        -4.9670   -4.6030   59.3340 C.3    94  MET94       0.1702
    118  C         -3.7510   -5.1630   58.6170 C.2    94  MET94       0.2592
    119  O         -2.9240   -4.4200   58.0740 O.2    94  MET94      -0.2718
    120  CB        -6.1740   -4.6590   58.3840 C.3    94  MET94       0.0401
    121  CG        -6.0720   -3.8300   57.1280 C.3    94  MET94       0.0596
    122  SD        -7.6100   -3.7110   56.1570 S.3    94  MET94      -0.1393
    123  CE        -7.6590   -5.0680   55.1350 C.3    94  MET94       0.0692
    124  N         -3.6860   -6.4960   58.5960 N.am   95  ASP95      -0.1960
    125  CA        -2.6790   -7.2500   57.8590 C.3    95  ASP95       0.1840
    126  C         -3.2960   -7.7020   56.5430 C.2    95  ASP95       0.2622
    127  O         -4.2880   -8.4420   56.5340 O.2    95  ASP95      -0.2715
    128  CB        -2.1960   -8.4520   58.6730 C.3    95  ASP95       0.1450
    129  CG        -0.9290   -9.0950   58.1020 C.2    95  ASP95       0.3671
    130  OD1       -0.5780   -8.8460   56.9300 O.co2  95  ASP95      -0.2456
    131  OD2       -0.2780   -9.8580   58.8440 O.co2  95  ASP95      -0.2456
    132  N         -2.7180   -7.2410   55.4320 N.am   96  ALA96      -0.1963
    133  CA        -3.1730   -7.6640   54.1130 C.3    96  ALA96       0.1728
    134  C         -3.1270   -9.1760   53.9150 C.2    96  ALA96       0.2616
    135  O         -3.8570   -9.7040   53.0690 O.2    96  ALA96      -0.2715
    136  CB        -2.3180   -6.9790   53.0500 C.3    96  ALA96       0.0334
    137  N         -2.2690   -9.8910   54.6420 N.am   97  GLN97      -0.1977
    138  CA        -2.2500  -11.3390   54.4960 C.3    97  GLN97       0.1601
    139  C         -3.4060  -12.0270   55.2160 C.2    97  GLN97       0.2287
    140  O         -3.5720  -13.2380   55.0620 O.2    97  GLN97      -0.2864
    141  CB        -0.9370  -11.9050   55.0140 C.3    97  GLN97       0.0394
    142  CG         0.2640  -11.4160   54.2340 C.3    97  GLN97       0.0908
    143  CD         1.4890  -11.3610   55.0980 C.2    97  GLN97       0.2608
    144  OE1        2.5400  -11.9120   54.7440 O.2    97  GLN97      -0.2717
    145  NE2        1.3640  -10.7230   56.2570 N.am   97  GLN97      -0.0878
    146  N         -2.0170   -0.0480   46.3450 N.3   112  ALA112     -0.1231
    147  CA        -1.0340    0.6680   45.5340 C.3   112  ALA112      0.1694
    148  C          0.3620    0.4940   46.1240 C.2   112  ALA112      0.2592
    149  O          0.5790    0.7770   47.3070 O.2   112  ALA112     -0.2718
    150  CB        -1.4020    2.1490   45.4140 C.3   112  ALA112      0.0304
    151  N          1.2920   -0.0040   45.2980 N.am  113  LEU113     -0.1966
    152  CA         2.7300   -0.0700   45.5950 C.3   113  LEU113      0.1728
    153  C          3.0260   -0.7400   46.9350 C.2   113  LEU113      0.2616
    154  O          3.8430   -0.2690   47.7150 O.2   113  LEU113     -0.2715
    155  CB         3.3560    1.3280   45.5300 C.3   113  LEU113      0.0311
    156  CG         2.9810    1.9030   44.1650 C.3   113  LEU113      0.0022
    157  CD1        2.8120    3.4220   44.1480 C.3   113  LEU113      0.0001
    158  CD2        3.9680    1.3990   43.1060 C.3   113  LEU113      0.0001
    159  N          2.3990   -1.8900   47.1720 N.am  114  ALA114     -0.1977
    160  CA         2.5060   -2.5400   48.4700 C.3   114  ALA114      0.1597
    161  C          2.8040   -4.0290   48.3810 C.2   114  ALA114      0.2287
    162  O          3.4250   -4.5690   49.2940 O.2   114  ALA114     -0.2864
    163  CB         1.2070   -2.3620   49.2650 C.3   114  ALA114      0.0319
    164  N          5.8330   -5.8340   49.5440 N.3   117  SER117     -0.1202
    165  CA         6.1970   -5.8080   50.9580 C.3   117  SER117      0.2020
    166  C          5.6240   -6.9740   51.7360 C.2   117  SER117      0.2619
    167  O          6.0380   -7.1960   52.8780 O.2   117  SER117     -0.2717
    168  CB         5.7210   -4.5020   51.6160 C.3   117  SER117      0.2103
    169  OG         6.4080   -3.3730   51.0890 O.3   117  SER117     -0.2182
    170  N          4.6680   -7.6930   51.1660 N.am  118  PHE118     -0.1962
    171  CA         3.9810   -8.7520   51.8850 C.3   118  PHE118      0.1756
    172  C          4.8760   -9.9880   51.9590 C.2   118  PHE118      0.2461
    173  O          5.2880  -10.5000   50.9140 O.2   118  PHE118     -0.2730
    174  CB         2.6830   -9.1030   51.1780 C.3   118  PHE118      0.0574
    175  CG         1.6870   -7.9500   51.0750 C.ar  118  PHE118     -0.0200
    176  CD1        1.8850   -6.7520   51.7560 C.ar  118  PHE118     -0.0042
    177  CD2        0.5390   -8.0940   50.2890 C.ar  118  PHE118     -0.0042
    178  CE1        0.9780   -5.6930   51.6360 C.ar  118  PHE118     -0.0003
    179  CE2       -0.4030   -7.0520   50.1950 C.ar  118  PHE118     -0.0003
    180  CZ        -0.1760   -5.8490   50.8560 C.ar  118  PHE118     -0.0000
    181  N          5.1760  -10.5130   53.1500 N.am  119  PRO119     -0.2727
    182  CA         6.0000  -11.7390   53.2250 C.3   119  PRO119      0.1402
    183  C          5.3620  -12.9600   52.5750 C.2   119  PRO119      0.2269
    184  O          6.0890  -13.7890   52.0070 O.2   119  PRO119     -0.2865
    185  CB         6.1860  -11.9500   54.7350 C.3   119  PRO119      0.0296
    186  CG         5.8250  -10.6350   55.3710 C.3   119  PRO119      0.0237
    187  CD         4.8400   -9.9780   54.4790 C.3   119  PRO119      0.0939
@<TRIPOS>BOND
     1   158   156    1
     2    30    29    2
     3   157   156    1
     4   156   155    1
     5    29    28    1
     6    28    27    1
     7    28    31    1
     8   151   152    1
     9   151   148   am
    10   150   147    1
    11   155   152    1
    12   147   148    1
    13   147   146    1
    14   152   153    1
    15    31    33    1
    16    31    32    1
    17   148   149    2
    18    85    83    1
    19    84    83    1
    20    82    81    2
    21    80    83    1
    22    80    81    1
    23    80    79    1
    24    21    20    2
    25   153   159   am
    26   153   154    2
    27    75    74    2
    28   159   160    1
    29    16    15    2
    30    78    76    1
    31    74    79   am
    32    74    73    1
    33    20    19    1
    34    76    73    1
    35    76    77    1
    36   161   160    1
    37   161   162    2
    38   160   163    1
    39    73    72    1
    40    15    14    1
    41    15    18   am
    42    19    18    1
    43    19    22    1
    44    14    17    1
    45    14    13    1
    46   164   165    1
    47    40    39   ar
    48    22    23    1
    49   179   177   ar
    50   179   180   ar
    51    39    38    1
    52    39    41   ar
    53    35    38    1
    54    35    34    1
    55    35    36    1
    56    45    44    2
    57   177   175   ar
    58    23    24    1
    59    42    36   am
    60    42    43    1
    61    49    47    1
    62    46    43    1
    63    46    47    1
    64   180   178   ar
    65   173   172    2
    66   165   168    1
    67   165   166    1
    68   175   174    1
    69   175   176   ar
    70   169   168    1
    71    36    37    2
    72   170   166   am
    73   170   171    1
    74   174   171    1
    75    44    43    1
    76    44    50   am
    77    53    52    2
    78    47    48    1
    79    24    25   ar
    80    24    26   ar
    81   178   176   ar
    82   166   167    2
    83   171   172    1
    84    58    57    2
    85    54    51    1
    86   172   181   am
    87   184   183    2
    88     4     3    2
    89    52    51    1
    90    52    55   am
    91    70    69    1
    92    56    57    1
    93    56    55    1
    94    56    59    1
    95    50    51    1
    96    57    61   am
    97   183   182    1
    98    59    60    1
    99   136   133    1
   100   135   134    2
   101   181   182    1
   102   181   187    1
   103   182   185    1
   104    67    68    2
   105    67    66    1
   106     3     2    1
   107    61    62    1
   108     7     9   ar
   109     7     6   ar
   110     9    11   ar
   111    65    66    1
   112    65    63   am
   113    62    63    1
   114    69    66    1
   115    69    71    1
   116     2     5    1
   117     2     1    1
   118   134   133    1
   119   134   137   am
   120   133   132    1
   121    63    64    2
   122   142   141    1
   123   142   143    1
   124     5     6    1
   125   187   186    1
   126   138   137    1
   127   138   141    1
   128   138   139    1
   129     6     8   ar
   130    11    12    1
   131    11    10   ar
   132   185   186    1
   133   144   143    2
   134   140   139    2
   135   143   145   am
   136   123   122    1
   137    93    91   ar
   138   132   126   am
   139     8    10   ar
   140   122   121    1
   141    91    90    1
   142    91    92   ar
   143   127   126    2
   144   126   125    1
   145   114   113    1
   146    90    87    1
   147   130   129   ar
   148    87    86    1
   149    87    88    1
   150   115   113    1
   151   121   120    1
   152   113   112    1
   153   125   124    1
   154   125   128    1
   155    94    88   am
   156    94    95    1
   157   112   109    1
   158   119   118    2
   159   129   128    1
   160   129   131   ar
   161    88    89    2
   162   100    98    1
   163   120   117    1
   164   124   118   am
   165    98    95    1
   166    98    99    1
   167   118   117    1
   168   111   110    2
   169    95    96    1
   170   109   110    1
   171   109   108    1
   172   117   116    1
   173    99   101    1
   174   102    96   am
   175   102   103    1
   176   106   107    1
   177   106   103    1
   178    96    97    2
   179   103   104    1
   180   105   104    2
