@<TRIPOS>MOLECULE
tmp/5w7lB01.pdb
 99 97 0 0 0
SMALL
GASTEIGER

@<TRIPOS>ATOM
      1  N         29.3940  -12.6170  -48.3000 N.3   117  LEU117     -0.1245
      2  CA        30.4330  -11.6090  -48.1660 C.3   117  LEU117      0.1561
      3  C         30.8180  -11.0320  -49.5260 C.2   117  LEU117      0.2260
      4  O         30.6320  -11.6530  -50.5770 O.2   117  LEU117     -0.2867
      5  CB        31.6680  -12.1990  -47.4820 C.3   117  LEU117      0.0270
      6  CG        31.4540  -12.7890  -46.0880 C.3   117  LEU117      0.0019
      7  CD1       32.7310  -13.4440  -45.5790 C.3   117  LEU117      0.0001
      8  CD2       30.9670  -11.7210  -45.1170 C.3   117  LEU117      0.0001
      9  N         33.5810  -12.7160  -52.0170 N.3   120  TYR120     -0.1241
     10  CA        33.2770  -13.7390  -53.0050 C.3   120  TYR120      0.1605
     11  C         33.1890  -13.1840  -54.4200 C.2   120  TYR120      0.2264
     12  O         33.2170  -13.9700  -55.3750 O.2   120  TYR120     -0.2867
     13  CB        31.9690  -14.4440  -52.6460 C.3   120  TYR120      0.0534
     14  CG        32.0170  -15.2040  -51.3390 C.ar  120  TYR120     -0.0201
     15  CD1       33.2270  -15.5850  -50.7760 C.ar  120  TYR120     -0.0009
     16  CD2       30.8490  -15.5380  -50.6700 C.ar  120  TYR120     -0.0009
     17  CE1       33.2710  -16.2760  -49.5800 C.ar  120  TYR120      0.0417
     18  CE2       30.8830  -16.2290  -49.4760 C.ar  120  TYR120      0.0417
     19  CZ        32.0960  -16.5960  -48.9350 C.ar  120  TYR120      0.1957
     20  OH        32.1310  -17.2860  -47.7440 O.3   120  TYR120     -0.2866
     21  N         35.8370  -14.3120  -56.4930 N.3   123  ILE123     -0.1231
     22  CA        35.9260  -15.7670  -56.4540 C.3   123  ILE123      0.1692
     23  C         34.8840  -16.4130  -57.3660 C.2   123  ILE123      0.2592
     24  O         35.1340  -17.4860  -57.9310 O.2   123  ILE123     -0.2718
     25  CB        35.7940  -16.2620  -55.0030 C.3   123  ILE123      0.0266
     26  CG1       36.8760  -15.6260  -54.1270 C.3   123  ILE123      0.0019
     27  CG2       35.9010  -17.7750  -54.9330 C.3   123  ILE123      0.0020
     28  CD1       36.7110  -15.9110  -52.6500 C.3   123  ILE123      0.0001
     29  N         33.7160  -15.7900  -57.5250 N.am  124  TYR124     -0.1962
     30  CA        32.6850  -16.3550  -58.3890 C.3   124  TYR124      0.1771
     31  C         33.1930  -16.5110  -59.8170 C.2   124  TYR124      0.2619
     32  O         33.9140  -15.6560  -60.3350 O.2   124  TYR124     -0.2715
     33  CB        31.4300  -15.4760  -58.4030 C.3   124  TYR124      0.0574
     34  CG        30.6820  -15.3590  -57.0950 C.ar  124  TYR124     -0.0198
     35  CD1       30.1750  -16.4850  -56.4590 C.ar  124  TYR124     -0.0009
     36  CD2       30.4280  -14.1170  -56.5300 C.ar  124  TYR124     -0.0009
     37  CE1       29.4740  -16.3790  -55.2720 C.ar  124  TYR124      0.0417
     38  CE2       29.7260  -14.0010  -55.3450 C.ar  124  TYR124      0.0417
     39  CZ        29.2500  -15.1350  -54.7210 C.ar  124  TYR124      0.1957
     40  OH        28.5500  -15.0260  -53.5410 O.3   124  TYR124     -0.2866
     41  N         32.8130  -17.6140  -60.4490 N.am  125  ASN125     -0.1972
     42  CA        33.0030  -17.7630  -61.8810 C.3   125  ASN125      0.1688
     43  C         31.7920  -17.1900  -62.6170 C.2   125  ASN125      0.2292
     44  O         30.7740  -16.8410  -62.0130 O.2   125  ASN125     -0.2864
     45  CB        33.2500  -19.2310  -62.2420 C.3   125  ASN125      0.1181
     46  CG        32.1030  -20.1480  -61.8460 C.2   125  ASN125      0.2629
     47  OD1       30.9830  -19.7070  -61.5990 O.2   125  ASN125     -0.2716
     48  ND2       32.3890  -21.4440  -61.7810 N.am  125  ASN125     -0.0877
     49  N         28.4110  -18.7340  -61.6660 N.3   128  GLN128     -0.1245
     50  CA        27.8450  -18.4400  -60.3550 C.3   128  GLN128      0.1566
     51  C         27.4860  -16.9690  -60.1760 C.2   128  GLN128      0.2260
     52  O         26.6640  -16.6530  -59.3100 O.2   128  GLN128     -0.2867
     53  CB        28.8160  -18.8810  -59.2560 C.3   128  GLN128      0.0367
     54  CG        28.9960  -20.3920  -59.1730 C.3   128  GLN128      0.0905
     55  CD        30.2320  -20.7940  -58.3920 C.2   128  GLN128      0.2608
     56  OE1       31.1940  -20.0310  -58.2930 O.2   128  GLN128     -0.2717
     57  NE2       30.2190  -22.0050  -57.8460 N.am  128  GLN128     -0.0878
     58  N         28.8830  -29.5010  -46.5580 N.3   150  ILE150     -0.1245
     59  CA        29.5200  -28.2580  -46.9800 C.3   150  ILE150      0.1561
     60  C         29.7970  -28.2630  -48.4800 C.2   150  ILE150      0.2260
     61  O         30.8670  -28.6800  -48.9220 O.2   150  ILE150     -0.2867
     62  CB        30.8400  -28.0160  -46.2250 C.3   150  ILE150      0.0252
     63  CG1       30.5730  -27.8350  -44.7290 C.3   150  ILE150      0.0019
     64  CG2       31.5640  -26.8050  -46.7910 C.3   150  ILE150      0.0019
     65  CD1       31.3610  -28.7810  -43.8490 C.3   150  ILE150      0.0001
     66  N         29.5360  -25.4500  -51.2440 N.3   152  TRP152     -0.1227
     67  CA        29.3010  -24.0990  -51.7360 C.3   152  TRP152      0.1737
     68  C         28.8050  -24.1160  -53.1780 C.2   152  TRP152      0.2595
     69  O         27.9860  -23.2870  -53.5730 O.2   152  TRP152     -0.2718
     70  CB        30.5760  -23.2600  -51.6280 C.3   152  TRP152      0.0564
     71  CG        30.8780  -22.8060  -50.2330 C.ar  152  TRP152      0.0003
     72  CD1       31.8040  -23.3360  -49.3810 C.ar  152  TRP152      0.0946
     73  CD2       30.2550  -21.7270  -49.5270 C.ar  152  TRP152      0.0152
     74  NE1       31.7930  -22.6540  -48.1890 N.ar  152  TRP152     -0.2442
     75  CE2       30.8520  -21.6610  -48.2520 C.ar  152  TRP152      0.0810
     76  CE3       29.2490  -20.8100  -49.8480 C.ar  152  TRP152      0.0012
     77  CZ2       30.4760  -20.7160  -47.3000 C.ar  152  TRP152      0.0191
     78  CZ3       28.8770  -19.8730  -48.9010 C.ar  152  TRP152      0.0001
     79  CH2       29.4900  -19.8330  -47.6430 C.ar  152  TRP152      0.0015
     80  N         29.3090  -25.0650  -53.9600 N.am  153  GLU153     -0.1979
     81  CA        28.9190  -25.1920  -55.3590 C.3   153  GLU153      0.1602
     82  C         27.4810  -25.6740  -55.5030 C.2   153  GLU153      0.2287
     83  O         26.8150  -25.3340  -56.4850 O.2   153  GLU153     -0.2864
     84  CB        29.8770  -26.1360  -56.0900 C.3   153  GLU153      0.0415
     85  CG        29.8850  -27.5610  -55.5660 C.3   153  GLU153      0.1163
     86  CD        30.8570  -28.4490  -56.3190 C.2   153  GLU153      0.3649
     87  OE1       31.2970  -28.0480  -57.4170 O.co2 153  GLU153     -0.2457
     88  OE2       31.1800  -29.5440  -55.8140 O.co2 153  GLU153     -0.2457
     89  N         25.2450  -22.7260  -54.7260 N.3   156  PHE156     -0.1241
     90  CA        25.2690  -21.8410  -55.8860 C.3   156  PHE156      0.1605
     91  C         24.5040  -22.4390  -57.0590 C.2   156  PHE156      0.2264
     92  O         23.9360  -21.6960  -57.8690 O.2   156  PHE156     -0.2867
     93  CB        26.7140  -21.5320  -56.2770 C.3   156  PHE156      0.0534
     94  CG        27.4780  -20.7690  -55.2250 C.ar  156  PHE156     -0.0203
     95  CD1       26.8090  -20.0470  -54.2480 C.ar  156  PHE156     -0.0042
     96  CD2       28.8620  -20.7860  -55.2050 C.ar  156  PHE156     -0.0042
     97  CE1       27.5080  -19.3510  -53.2790 C.ar  156  PHE156     -0.0003
     98  CE2       29.5650  -20.0910  -54.2380 C.ar  156  PHE156     -0.0003
     99  CZ        28.8880  -19.3730  -53.2730 C.ar  156  PHE156     -0.0000
@<TRIPOS>BOND
     1    43    44    2
     2    43    42    1
     3    45    42    1
     4    45    46    1
     5    42    41    1
     6    46    48   am
     7    46    47    2
     8    49    50    1
     9    41    31   am
    10    50    51    1
    11    50    53    1
    12    32    31    2
    13    51    52    2
    14    31    30    1
    15    53    54    1
    16    54    55    1
    17    33    30    1
    18    33    34    1
    19    55    56    2
    20    55    57   am
    21    30    29    1
    22    24    23    2
    23    92    91    2
    24    29    23   am
    25    87    86   ar
    26    23    22    1
    27    34    36   ar
    28    34    35   ar
    29    91    90    1
    30    36    38   ar
    31    21    22    1
    32    83    82    2
    33    35    37   ar
    34    22    25    1
    35    86    88   ar
    36    86    85    1
    37    93    90    1
    38    93    94    1
    39    84    85    1
    40    84    81    1
    41    90    89    1
    42    82    81    1
    43    12    11    2
    44    81    80    1
    45    38    39   ar
    46    37    39   ar
    47    94    96   ar
    48    94    95   ar
    49    96    98   ar
    50    25    27    1
    51    25    26    1
    52    39    40    1
    53    11    10    1
    54    95    97   ar
    55    98    99   ar
    56    26    28    1
    57    80    68   am
    58    69    68    2
    59    97    99   ar
    60    68    67    1
    61    10    13    1
    62    10     9    1
    63    13    14    1
    64    67    70    1
    65    67    66    1
    66    70    71    1
    67    14    15   ar
    68    14    16   ar
    69    15    17   ar
    70    16    18   ar
    71     4     3    2
    72    71    73   ar
    73    71    72   ar
    74    76    73   ar
    75    76    78   ar
    76    17    19   ar
    77    73    75   ar
    78     3     2    1
    79    18    19   ar
    80    72    74   ar
    81    19    20    1
    82    61    60    2
    83    78    79   ar
    84    60    59    1
    85     1     2    1
    86    75    74   ar
    87    75    77   ar
    88     2     5    1
    89    79    77   ar
    90     5     6    1
    91    59    58    1
    92    59    62    1
    93    64    62    1
    94    62    63    1
    95     6     7    1
    96     6     8    1
    97    63    65    1
