@<TRIPOS>MOLECULE
tmp/5w7mA00.pdb
 188 180 0 0 0
SMALL
GASTEIGER

@<TRIPOS>ATOM
      1  N          6.0480   23.1860   22.3020 N.3     5  TYR5       -0.1241
      2  CA         6.1460   21.7320   22.2880 C.3     5  TYR5        0.1605
      3  C          4.8960   21.0600   22.8420 C.2     5  TYR5        0.2264
      4  O          4.6220   19.9100   22.4860 O.2     5  TYR5       -0.2867
      5  CB         7.3960   21.2880   23.0530 C.3     5  TYR5        0.0534
      6  CG         8.6590   21.4240   22.2330 C.ar    5  TYR5       -0.0201
      7  CD1        9.0300   20.4410   21.3160 C.ar    5  TYR5       -0.0009
      8  CD2        9.4670   22.5510   22.3500 C.ar    5  TYR5       -0.0009
      9  CE1       10.1850   20.5770   20.5520 C.ar    5  TYR5        0.0417
     10  CE2       10.6160   22.6990   21.5920 C.ar    5  TYR5        0.0417
     11  CZ        10.9720   21.7100   20.6940 C.ar    5  TYR5        0.1957
     12  OH        12.1190   21.8540   19.9410 O.3     5  TYR5       -0.2866
     13  N          3.2430   18.1190   20.6050 N.3     9  GLU9       -0.1245
     14  CA         3.1340   16.7310   21.0560 C.3     9  GLU9        0.1567
     15  C          1.7470   16.1560   20.8040 C.2     9  GLU9        0.2260
     16  O          1.6070   14.9330   20.7180 O.2     9  GLU9       -0.2867
     17  CB         3.5160   16.5820   22.5460 C.3     9  GLU9        0.0388
     18  CG         2.6230   17.3450   23.5210 C.3     9  GLU9        0.1160
     19  CD         2.6100   16.7400   24.9210 C.2     9  GLU9        0.3649
     20  OE1        3.5680   16.0160   25.2820 O.co2   9  GLU9       -0.2457
     21  OE2        1.6350   16.9900   25.6660 O.co2   9  GLU9       -0.2457
     22  N          2.7610   14.5840   17.4440 N.3    12  THR12      -0.1218
     23  CA         3.7960   13.5470   17.3680 C.3    12  THR12       0.1862
     24  C          3.3880   12.2820   18.1150 C.2    12  THR12       0.2287
     25  O          3.8470   11.1900   17.7670 O.2    12  THR12      -0.2866
     26  CB         5.1420   14.0490   17.9020 C.3    12  THR12       0.1770
     27  OG1        5.0330   14.3770   19.2990 O.3    12  THR12      -0.2211
     28  CG2        5.6150   15.2870   17.0950 C.3    12  THR12       0.0375
     29  N          3.9290    7.3230   17.6270 N.3    16  THR16      -0.1218
     30  CA         4.7680    6.5350   18.5150 C.3    16  THR16       0.1862
     31  C          4.4590    5.0410   18.4580 C.2    16  THR16       0.2287
     32  O          5.3840    4.2260   18.5640 O.2    16  THR16      -0.2866
     33  CB         4.6180    7.0310   19.9510 C.3    16  THR16       0.1770
     34  OG1        3.2330    6.9860   20.3030 O.3    16  THR16      -0.2211
     35  CG2        5.1510    8.4790   20.0810 C.3    16  THR16       0.0375
     36  N         15.0040    6.9310   25.2120 N.3    37  ASP37      -0.1225
     37  CA        14.1440    7.8190   24.4340 C.3    37  ASP37       0.1805
     38  C         15.0330    9.0250   24.1480 C.2    37  ASP37       0.2598
     39  O         15.2150    9.8880   25.0120 O.2    37  ASP37      -0.2718
     40  CB        12.8740    8.1610   25.2200 C.3    37  ASP37       0.1424
     41  CG        11.8600    9.0040   24.4440 C.2    37  ASP37       0.3668
     42  OD1       12.0820    9.3460   23.2620 O.co2  37  ASP37      -0.2456
     43  OD2       10.8170    9.3570   25.0480 O.co2  37  ASP37      -0.2456
     44  N         15.6420    9.0480   22.9480 N.am   38  LEU38      -0.1966
     45  CA        16.6750   10.0190   22.6100 C.3    38  LEU38       0.1728
     46  C         16.0240   11.1770   21.8740 C.2    38  LEU38       0.2616
     47  O         15.1700   10.9610   21.0070 O.2    38  LEU38      -0.2715
     48  CB        17.7790    9.4030   21.7360 C.3    38  LEU38       0.0311
     49  CG        18.9340   10.3060   21.2850 C.3    38  LEU38       0.0022
     50  CD1       19.7280   10.8250   22.4710 C.3    38  LEU38       0.0001
     51  CD2       19.8560    9.5590   20.2980 C.3    38  LEU38       0.0001
     52  N         16.4270   12.4000   22.2350 N.am   39  ALA39      -0.1963
     53  CA        15.7550   13.6170   21.7780 C.3    39  ALA39       0.1728
     54  C         14.2590   13.4950   22.0640 C.2    39  ALA39       0.2616
     55  O         13.4000   13.6070   21.1870 O.2    39  ALA39      -0.2715
     56  CB        16.0460   13.8830   20.2980 C.3    39  ALA39       0.0334
     57  N         13.9630   13.2420   23.3460 N.am   40  CYS40      -0.1954
     58  CA        12.6360   12.7940   23.7460 C.3    40  CYS40       0.1843
     59  C         11.5910   13.9050   23.7190 C.2    40  CYS40       0.2626
     60  O         10.3980   13.5980   23.7690 O.2    40  CYS40      -0.2714
     61  CB        12.6950   12.1850   25.1640 C.3    40  CYS40       0.0997
     62  SG        13.2300   13.3690   26.4600 S.3    40  CYS40      -0.0797
     63  N         12.0040   15.1760   23.6630 N.am   41  GLY41      -0.1940
     64  CA        11.0320   16.2540   23.6790 C.3    41  GLY41       0.2014
     65  C         10.2600   16.2130   24.9840 C.2    41  GLY41       0.2639
     66  O         10.8450   16.0980   26.0690 O.2    41  GLY41      -0.2714
     67  N          8.9300   16.2770   24.8780 N.am   42  THR42      -0.1950
     68  CA         8.0590   16.1270   26.0410 C.3    42  THR42       0.1897
     69  C          7.8990   14.6750   26.4600 C.2    42  THR42       0.2313
     70  O          7.2370   14.3980   27.4650 O.2    42  THR42      -0.2863
     71  CB         6.6880   16.7370   25.7620 C.3    42  THR42       0.1794
     72  OG1        6.1100   16.0910   24.6220 O.3    42  THR42      -0.2208
     73  CG2        6.8120   18.2420   25.4850 C.3    42  THR42       0.0378
     74  N          6.8730   11.7660   24.3620 N.3    44  VAL44      -0.1231
     75  CA         5.7580   10.9640   23.8400 C.3    44  VAL44       0.1692
     76  C          6.1330    9.4970   23.6160 C.2    44  VAL44       0.2591
     77  O          5.2720    8.6140   23.7300 O.2    44  VAL44      -0.2718
     78  CB         5.1990   11.5770   22.5390 C.3    44  VAL44       0.0266
     79  CG1        4.4950   12.8870   22.8390 C.3    44  VAL44       0.0020
     80  CG2        6.3030   11.7590   21.4920 C.3    44  VAL44       0.0020
     81  N          7.3840    9.1960   23.2520 N.am   45  VAL45      -0.1980
     82  CA         7.7590    7.7910   23.1210 C.3    45  VAL45       0.1595
     83  C          7.7400    7.1380   24.4910 C.2    45  VAL45       0.2287
     84  O          7.2920    5.9960   24.6580 O.2    45  VAL45      -0.2864
     85  CB         9.1400    7.6450   22.4660 C.3    45  VAL45       0.0276
     86  CG1        9.5770    6.1870   22.4620 C.3    45  VAL45       0.0022
     87  CG2        9.0950    8.1700   21.0210 C.3    45  VAL45       0.0022
     88  N         17.3000   14.6620   26.2400 N.3    67  ASP67      -0.1225
     89  CA        17.0530   15.7270   25.2790 C.3    67  ASP67       0.1805
     90  C         18.0870   16.8170   25.4990 C.2    67  ASP67       0.2598
     91  O         18.6220   16.9610   26.5970 O.2    67  ASP67      -0.2718
     92  CB        15.6280   16.2930   25.4110 C.3    67  ASP67       0.1424
     93  CG        15.1990   17.0970   24.1920 C.2    67  ASP67       0.3668
     94  OD1       15.5900   18.2910   24.0670 O.co2  67  ASP67      -0.2456
     95  OD2       14.4710   16.5260   23.3500 O.co2  67  ASP67      -0.2456
     96  N         18.3620   17.5980   24.4490 N.am   68  ILE68      -0.1966
     97  CA        19.3690   18.6430   24.5980 C.3    68  ILE68       0.1727
     98  C         18.8080   19.8240   25.3890 C.2    68  ILE68       0.2616
     99  O         19.5770   20.6020   25.9730 O.2    68  ILE68      -0.2715
    100  CB        19.9020   19.0730   23.2190 C.3    68  ILE68       0.0290
    101  CG1       21.2580   19.7640   23.3640 C.3    68  ILE68       0.0022
    102  CG2       18.8880   19.9130   22.5070 C.3    68  ILE68       0.0023
    103  CD1       22.1400   19.6350   22.1580 C.3    68  ILE68       0.0001
    104  N         17.4850   19.9530   25.4580 N.am   69  SER69      -0.1950
    105  CA        16.8480   21.1200   26.0580 C.3    69  SER69       0.1924
    106  C         16.6880   20.9040   27.5570 C.2    69  SER69       0.2314
    107  O         16.0970   19.9060   27.9860 O.2    69  SER69      -0.2863
    108  CB        15.4920   21.3690   25.3990 C.3    69  SER69       0.2116
    109  OG        14.6530   22.1650   26.2150 O.3    69  SER69      -0.2180
    110  N         12.8150   21.1260   28.2790 N.3    72  LEU72      -0.1245
    111  CA        12.0480   19.9180   27.9850 C.3    72  LEU72       0.1561
    112  C         12.4260   18.7860   28.9310 C.2    72  LEU72       0.2260
    113  O         11.5600   18.0090   29.3530 O.2    72  LEU72      -0.2867
    114  CB        12.2600   19.4970   26.5270 C.3    72  LEU72       0.0270
    115  CG        11.6470   20.4650   25.5130 C.3    72  LEU72       0.0019
    116  CD1       12.1410   20.1470   24.1110 C.3    72  LEU72       0.0001
    117  CD2       10.1360   20.3580   25.5680 C.3    72  LEU72       0.0001
    118  N         20.8020   15.2970   27.3910 N.3    93  VAL93      -0.1231
    119  CA        21.6420   14.4220   26.5770 C.3    93  VAL93       0.1692
    120  C         21.7710   15.0580   25.2020 C.2    93  VAL93       0.2592
    121  O         20.7580   15.3670   24.5740 O.2    93  VAL93      -0.2718
    122  CB        21.0610   13.0000   26.4300 C.3    93  VAL93       0.0266
    123  CG1       21.9310   12.1670   25.4520 C.3    93  VAL93       0.0020
    124  CG2       20.9320   12.2920   27.7920 C.3    93  VAL93       0.0020
    125  N         23.0060   15.2590   24.7470 N.am   94  ASP94      -0.1960
    126  CA        23.2880   15.6630   23.3680 C.3    94  ASP94       0.1840
    127  C         23.5070   14.4010   22.5360 C.2    94  ASP94       0.2622
    128  O         24.4320   13.6340   22.8060 O.2    94  ASP94      -0.2715
    129  CB        24.5230   16.5640   23.3370 C.3    94  ASP94       0.1450
    130  CG        24.9340   17.0000   21.9290 C.2    94  ASP94       0.3671
    131  OD1       24.3250   16.5780   20.9150 O.co2  94  ASP94      -0.2456
    132  OD2       25.8870   17.8100   21.8480 O.co2  94  ASP94      -0.2456
    133  N         22.6750   14.2030   21.5090 N.am   95  ALA95      -0.1963
    134  CA        22.7540   12.9790   20.7080 C.3    95  ALA95       0.1728
    135  C         24.1300   12.7990   20.0750 C.2    95  ALA95       0.2616
    136  O         24.5710   11.6640   19.8450 O.2    95  ALA95      -0.2715
    137  CB        21.6640   13.0010   19.6340 C.3    95  ALA95       0.0334
    138  N         24.8370   13.8990   19.8210 N.am   96  GLN96      -0.1977
    139  CA        26.1570   13.8560   19.2080 C.3    96  GLN96       0.1601
    140  C         27.2690   13.5710   20.2010 C.2    96  GLN96       0.2287
    141  O         28.4050   13.3300   19.7800 O.2    96  GLN96      -0.2864
    142  CB        26.4300   15.1890   18.5010 C.3    96  GLN96       0.0394
    143  CG        25.3160   15.5900   17.5560 C.3    96  GLN96       0.0908
    144  CD        25.3190   17.0840   17.2780 C.2    96  GLN96       0.2608
    145  OE1       25.5440   17.4990   16.1470 O.2    96  GLN96      -0.2717
    146  NE2       25.0740   17.9020   18.3160 N.am   96  GLN96      -0.0878
    147  N         12.4820    9.6020   17.8920 N.3   111  ALA111     -0.1231
    148  CA        11.2950    9.9650   17.1230 C.3   111  ALA111      0.1694
    149  C         11.3900   11.4130   16.6470 C.2   111  ALA111      0.2592
    150  O         11.5630   12.3290   17.4600 O.2   111  ALA111     -0.2718
    151  CB        10.0320    9.7620   17.9610 C.3   111  ALA111      0.0304
    152  N         11.2720   11.6050   15.3270 N.am  112  LEU112     -0.1966
    153  CA        11.1990   12.9330   14.6990 C.3   112  LEU112      0.1728
    154  C         12.3140   13.8550   15.1870 C.2   112  LEU112      0.2616
    155  O         12.0930   15.0280   15.5250 O.2   112  LEU112     -0.2715
    156  CB         9.8220   13.5590   14.9210 C.3   112  LEU112      0.0311
    157  CG         8.7450   12.5510   14.5150 C.3   112  LEU112      0.0022
    158  CD1        7.3690   12.9220   15.0010 C.3   112  LEU112      0.0001
    159  CD2        8.7490   12.3810   12.9930 C.3   112  LEU112      0.0001
    160  N         13.5360   13.3290   15.2010 N.am  113  ALA113     -0.1977
    161  CA        14.6190   14.1380   15.7400 C.3   113  ALA113      0.1597
    162  C         15.9040   14.1590   14.9220 C.2   113  ALA113      0.2287
    163  O         16.6770   15.1200   15.0410 O.2   113  ALA113     -0.2864
    164  CB        14.9340   13.6730   17.1570 C.3   113  ALA113      0.0319
    165  N         17.2410   17.2110   13.1390 N.3   116  SER116     -0.1202
    166  CA        17.6120   18.3600   13.9560 C.3   116  SER116      0.2020
    167  C         19.0590   18.3240   14.4220 C.2   116  SER116      0.2619
    168  O         19.5280   19.3190   14.9830 O.2   116  SER116     -0.2717
    169  CB        16.6950   18.4550   15.1750 C.3   116  SER116      0.2103
    170  OG        15.3560   18.6460   14.7770 O.3   116  SER116     -0.2182
    171  N         19.7700   17.2120   14.2250 N.am  117  PHE117     -0.1962
    172  CA        21.1360   17.0880   14.7230 C.3   117  PHE117      0.1756
    173  C         22.1110   17.6820   13.7140 C.2   117  PHE117      0.2461
    174  O         22.1700   17.2010   12.5710 O.2   117  PHE117     -0.2730
    175  CB        21.5150   15.6330   14.9630 C.3   117  PHE117      0.0574
    176  CG        20.5960   14.8680   15.8960 C.ar  117  PHE117     -0.0200
    177  CD1       19.8210   15.5000   16.8510 C.ar  117  PHE117     -0.0042
    178  CD2       20.5520   13.4880   15.8200 C.ar  117  PHE117     -0.0042
    179  CE1       18.9960   14.7650   17.6960 C.ar  117  PHE117     -0.0003
    180  CE2       19.7380   12.7380   16.6610 C.ar  117  PHE117     -0.0003
    181  CZ        18.9610   13.3660   17.6050 C.ar  117  PHE117     -0.0000
    182  N         22.9090   18.6870   14.0860 N.am  118  PRO118     -0.2727
    183  CA        23.8640   19.2630   13.1180 C.3   118  PRO118      0.1402
    184  C         24.8350   18.2550   12.5370 C.2   118  PRO118      0.2269
    185  O         25.1850   18.3530   11.3550 O.2   118  PRO118     -0.2865
    186  CB        24.5860   20.3350   13.9460 C.3   118  PRO118      0.0296
    187  CG        23.5940   20.7230   14.9660 C.3   118  PRO118      0.0237
    188  CD        22.8360   19.4800   15.3260 C.3   118  PRO118      0.0939
@<TRIPOS>BOND
     1   185   184    2
     2   184   183    1
     3   174   173    2
     4   159   157    1
     5   183   186    1
     6   183   182    1
     7   165   166    1
     8   173   182   am
     9   173   172    1
    10   186   187    1
    11   166   167    1
    12   166   169    1
    13   182   188    1
    14   171   167   am
    15   171   172    1
    16   167   168    2
    17   157   156    1
    18   157   158    1
    19   153   156    1
    20   153   154    1
    21   153   152    1
    22   172   175    1
    23   170   169    1
    24   162   163    2
    25   162   161    1
    26   175   176    1
    27   187   188    1
    28   154   160   am
    29   154   155    2
    30   160   161    1
    31   152   149   am
    32   161   164    1
    33   178   176   ar
    34   178   180   ar
    35   176   177   ar
    36   145   144    2
    37   149   148    1
    38   149   150    2
    39   180   181   ar
    40   177   179   ar
    41    28    26    1
    42   148   147    1
    43   148   151    1
    44   144   143    1
    45   144   146   am
    46    23    22    1
    47    23    26    1
    48    23    24    1
    49   143   142    1
    50   181   179   ar
    51    29    30    1
    52    25    24    2
    53    26    27    1
    54    31    30    1
    55    31    32    2
    56   142   139    1
    57    30    33    1
    58   139   138    1
    59   139   140    1
    60   137   134    1
    61   141   140    2
    62   138   135   am
    63   136   135    2
    64    12    11    1
    65    33    35    1
    66    33    34    1
    67   135   134    1
    68    51    49    1
    69    56    53    1
    70     9    11   ar
    71     9     7   ar
    72    13    14    1
    73    11    10   ar
    74   134   133    1
    75    16    15    2
    76    15    14    1
    77   131   130   ar
    78    47    46    2
    79    87    85    1
    80    14    17    1
    81    55    54    2
    82    49    48    1
    83    49    50    1
    84     7     6   ar
    85    80    78    1
    86   133   127   am
    87    10     8   ar
    88    48    45    1
    89    53    54    1
    90    53    52    1
    91   132   130   ar
    92    46    52   am
    93    46    45    1
    94   130   129    1
    95    54    57   am
    96   103   101    1
    97     6     8   ar
    98     6     5    1
    99     2     1    1
   100     2     3    1
   101     2     5    1
   102    86    85    1
   103    85    82    1
   104     4     3    2
   105   102   100    1
   106   127   128    2
   107   127   126    1
   108    78    79    1
   109    78    75    1
   110    17    18    1
   111    45    44    1
   112    44    38   am
   113    82    81    1
   114    82    83    1
   115   100   101    1
   116   100    97    1
   117    81    76   am
   118    42    41   ar
   119   129   126    1
   120    57    58    1
   121    95    93   ar
   122   126   125    1
   123    18    19    1
   124    76    77    2
   125    76    75    1
   126    63    64    1
   127    63    59   am
   128    64    65    1
   129    59    58    1
   130    59    60    2
   131    58    61    1
   132    75    74    1
   133    94    93   ar
   134   116   115    1
   135    38    37    1
   136    38    39    2
   137    93    92    1
   138    37    36    1
   139    37    40    1
   140    41    43   ar
   141    41    40    1
   142    96    97    1
   143    96    90   am
   144    83    84    2
   145   121   120    2
   146    97    98    1
   147    72    71    1
   148   125   120   am
   149    67    65   am
   150    67    68    1
   151    19    20   ar
   152    19    21   ar
   153    65    66    2
   154    61    62    1
   155   120   119    1
   156    89    92    1
   157    89    90    1
   158    89    88    1
   159    98   104   am
   160    98    99    2
   161   108   105    1
   162   108   109    1
   163   123   122    1
   164   104   105    1
   165    73    71    1
   166    90    91    2
   167   115   117    1
   168   115   114    1
   169    71    68    1
   170    68    69    1
   171   105   106    1
   172   122   119    1
   173   122   124    1
   174    69    70    2
   175   114   111    1
   176   119   118    1
   177   106   107    2
   178   111   110    1
   179   111   112    1
   180   112   113    2
