@<TRIPOS>MOLECULE
tmp/5w7rA00.pdb
 179 170 0 0 0
SMALL
GASTEIGER

@<TRIPOS>ATOM
      1  N         25.8780  139.2290   27.9730 N.3   138  CYS138     -0.1235
      2  CA        25.0860  138.5560   28.9920 C.3   138  CYS138      0.1677
      3  C         25.2500  139.1840   30.3840 C.2   138  CYS138      0.2270
      4  O         24.2600  139.4290   31.0740 O.2   138  CYS138     -0.2867
      5  CB        25.4850  137.0840   28.9450 C.3   138  CYS138      0.0956
      6  SG        25.2230  136.1280   30.3320 S.3   138  CYS138     -0.0801
      7  N         23.5440  142.8690   31.2680 N.3   141  VAL141     -0.1231
      8  CA        22.0950  142.8190   31.3060 C.3   141  VAL141      0.1692
      9  C         21.6230  142.0750   32.5510 C.2   141  VAL141      0.2591
     10  O         20.7050  142.5270   33.2550 O.2   141  VAL141     -0.2718
     11  CB        21.5630  142.1950   30.0030 C.3   141  VAL141      0.0266
     12  CG1       20.0850  141.8850   30.1380 C.3   141  VAL141      0.0020
     13  CG2       21.8230  143.1470   28.8320 C.3   141  VAL141      0.0020
     14  N         22.2660  140.9420   32.8630 N.am  142  MET142     -0.1979
     15  CA        21.9070  140.1980   34.0680 C.3   142  MET142      0.1605
     16  C         22.1610  141.0390   35.3090 C.2   142  MET142      0.2287
     17  O         21.3540  141.0300   36.2580 O.2   142  MET142     -0.2864
     18  CB        22.6980  138.8810   34.1460 C.3   142  MET142      0.0413
     19  CG        22.2810  137.8240   33.1270 C.3   142  MET142      0.0598
     20  SD        20.5970  137.2360   33.4360 S.3   142  MET142     -0.1393
     21  CE        20.8610  136.0060   34.7250 C.3   142  MET142      0.0692
     22  N         18.5960  141.7930   36.3560 N.3   146  ILE146     -0.1245
     23  CA        18.1350  140.5040   36.8260 C.3   146  ILE146      0.1561
     24  C         18.6250  140.1940   38.2360 C.2   146  ILE146      0.2260
     25  O         17.8580  139.6490   39.0450 O.2   146  ILE146     -0.2867
     26  CB        18.5100  139.3880   35.8320 C.3   146  ILE146      0.0252
     27  CG1       17.8610  139.6900   34.4940 C.3   146  ILE146      0.0019
     28  CG2       18.0100  138.0060   36.3130 C.3   146  ILE146      0.0019
     29  CD1       16.3300  139.8290   34.5940 C.3   146  ILE146      0.0001
     30  N          8.7580  140.9900   31.3810 N.3   184  MET184     -0.1230
     31  CA        10.1220  141.5170   31.3760 C.3   184  MET184      0.1702
     32  C         10.5020  142.0890   30.0160 C.2   184  MET184      0.2592
     33  O         11.0730  143.1850   29.9350 O.2   184  MET184     -0.2718
     34  CB        11.1240  140.4500   31.7790 C.3   184  MET184      0.0401
     35  CG        12.5330  141.0350   31.7240 C.3   184  MET184      0.0596
     36  SD        13.8340  139.8880   31.2850 S.3   184  MET184     -0.1393
     37  CE        13.1500  138.9520   29.9180 C.3   184  MET184      0.0692
     38  N         10.2250  141.3390   28.9400 N.am  185  PHE185     -0.1976
     39  CA        10.4340  141.8510   27.5850 C.3   185  PHE185      0.1639
     40  C          9.6820  143.1650   27.3600 C.2   185  PHE185      0.2290
     41  O         10.2500  144.1330   26.8310 O.2   185  PHE185     -0.2864
     42  CB        10.0070  140.8000   26.5630 C.3   185  PHE185      0.0560
     43  CG        10.8490  139.5450   26.5860 C.ar  185  PHE185     -0.0200
     44  CD1       12.2140  139.6020   26.3470 C.ar  185  PHE185     -0.0042
     45  CD2       10.2790  138.3190   26.8440 C.ar  185  PHE185     -0.0042
     46  CE1       13.0000  138.4590   26.3650 C.ar  185  PHE185     -0.0003
     47  CE2       11.0520  137.1660   26.8630 C.ar  185  PHE185     -0.0003
     48  CZ        12.4230  137.2400   26.6150 C.ar  185  PHE185     -0.0000
     49  N         11.6180  145.9780   29.3170 N.3   188  LEU188     -0.1245
     50  CA        12.9350  146.3350   28.7880 C.3   188  LEU188      0.1561
     51  C         12.8240  146.9920   27.4180 C.2   188  LEU188      0.2260
     52  O         13.5010  147.9900   27.1520 O.2   188  LEU188     -0.2867
     53  CB        13.8410  145.1030   28.7160 C.3   188  LEU188      0.0270
     54  CG        14.1460  144.5120   30.0900 C.3   188  LEU188      0.0019
     55  CD1       15.0720  143.3020   29.9710 C.3   188  LEU188      0.0001
     56  CD2       14.7020  145.5630   31.0140 C.3   188  LEU188      0.0001
     57  N         20.0150  144.2960   25.1770 N.3   198  VAL198     -0.1245
     58  CA        19.2270  143.0960   25.4450 C.3   198  VAL198      0.1561
     59  C         19.3220  142.1160   24.2820 C.2   198  VAL198      0.2260
     60  O         19.4640  140.9070   24.4950 O.2   198  VAL198     -0.2867
     61  CB        17.7640  143.4590   25.7780 C.3   198  VAL198      0.0252
     62  CG1       16.8490  142.2240   25.6750 C.3   198  VAL198      0.0019
     63  CG2       17.6710  144.0860   27.1670 C.3   198  VAL198      0.0019
     64  N         22.6720  140.3400   24.6220 N.3   201  ALA201     -0.1231
     65  CA        22.5440  139.3130   25.6570 C.3   201  ALA201      0.1694
     66  C         21.7390  138.1120   25.1650 C.2   201  ALA201      0.2591
     67  O         22.0270  136.9680   25.5360 O.2   201  ALA201     -0.2718
     68  CB        21.9010  139.9160   26.9110 C.3   201  ALA201      0.0304
     69  N         20.7240  138.3480   24.3240 N.am  202  GLU202     -0.1979
     70  CA        19.9500  137.2350   23.7790 C.3   202  GLU202      0.1602
     71  C         20.7970  136.3670   22.8540 C.2   202  GLU202      0.2287
     72  O         20.5060  135.1730   22.6830 O.2   202  GLU202     -0.2864
     73  CB        18.7060  137.7480   23.0420 C.3   202  GLU202      0.0415
     74  CG        17.5320  138.0610   23.9470 C.3   202  GLU202      0.1163
     75  CD        16.5620  139.0680   23.3300 C.2   202  GLU202      0.3649
     76  OE1       16.7750  139.4930   22.1720 O.co2 202  GLU202     -0.2457
     77  OE2       15.5820  139.4380   24.0070 O.co2 202  GLU202     -0.2457
     78  N         23.8910  135.6090   23.5360 N.3   204  ALA204     -0.1231
     79  CA        24.8270  134.8640   24.3770 C.3   204  ALA204      0.1694
     80  C         24.5580  133.3660   24.3090 C.2   204  ALA204      0.2592
     81  O         23.4100  132.9140   24.3660 O.2   204  ALA204     -0.2718
     82  CB        24.7530  135.3390   25.8330 C.3   204  ALA204      0.0304
     83  N         25.6360  132.5930   24.1970 N.am  205  ASP205     -0.1960
     84  CA        25.5570  131.1530   24.0710 C.3   205  ASP205      0.1840
     85  C         26.8750  130.5830   24.6160 C.2   205  ASP205      0.2622
     86  O         27.7260  130.0610   23.9010 O.2   205  ASP205     -0.2715
     87  CB        25.2840  130.7600   22.6160 C.3   205  ASP205      0.1450
     88  CG        25.1730  129.2680   22.4180 C.2   205  ASP205      0.3671
     89  OD1       24.9830  128.5310   23.4080 O.co2 205  ASP205     -0.2456
     90  OD2       25.2990  128.8260   21.2570 O.co2 205  ASP205     -0.2456
     91  N         27.0960  130.7390   25.8890 N.am  206  VAL206     -0.1963
     92  CA        28.3210  130.3020   26.4980 C.3   206  VAL206      0.1727
     93  C         28.5630  128.8440   26.4460 C.2   206  VAL206      0.2616
     94  O         29.6640  128.4320   26.3620 O.2   206  VAL206     -0.2715
     95  CB        28.4300  130.7110   27.9460 C.3   206  VAL206      0.0290
     96  CG1       29.5460  129.9540   28.6060 C.3   206  VAL206      0.0023
     97  CG2       28.6900  132.1690   28.0520 C.3   206  VAL206      0.0023
     98  N         27.5430  128.0440   26.5600 N.am  207  ASP207     -0.1971
     99  CA        27.7510  126.6200   26.5570 C.3   207  ASP207      0.1709
    100  C         27.6960  126.0000   25.1920 C.2   207  ASP207      0.2293
    101  O         27.7200  124.8190   25.0940 O.2   207  ASP207     -0.2864
    102  CB        26.8010  125.9160   27.5170 C.3   207  ASP207      0.1436
    103  CG        27.0700  126.2580   28.9940 C.2   207  ASP207      0.3671
    104  OD1       28.1860  126.0400   29.4990 O.co2 207  ASP207     -0.2456
    105  OD2       26.1500  126.7400   29.6750 O.co2 207  ASP207     -0.2456
    106  N         14.9580  128.2860   23.1170 N.3   301  ARG301     -0.1245
    107  CA        15.0990  129.1390   24.2880 C.3   301  ARG301      0.1563
    108  C         14.0110  130.2090   24.3050 C.2   301  ARG301      0.2260
    109  O         14.2740  131.3990   24.5120 O.2   301  ARG301     -0.2867
    110  CB        16.5010  129.7680   24.3510 C.3   301  ARG301      0.0307
    111  CG        17.6340  128.7410   24.5010 C.3   301  ARG301      0.0489
    112  CD        18.9460  129.3750   24.9440 C.3   301  ARG301      0.2205
    113  NE        19.4860  130.2920   23.9400 N.pl3 301  ARG301     -0.0865
    114  CZ        20.6350  130.9550   24.0710 C.cat 301  ARG301      0.5346
    115  NH1       21.3640  130.7980   25.1680 N.pl3 301  ARG301      0.1354
    116  NH2       21.0570  131.7720   23.1050 N.pl3 301  ARG301      0.1354
    117  N         11.2380  128.3900   28.0610 N.3   304  HIS304     -0.1226
    118  CA        11.6480  128.5850   29.4470 C.3   304  HIS304      0.1752
    119  C         11.3380  129.9960   29.9430 C.2   304  HIS304      0.2596
    120  O         11.4920  130.2700   31.1380 O.2   304  HIS304     -0.2718
    121  CB        13.1370  128.2500   29.6070 C.3   304  HIS304      0.0759
    122  CG        14.0470  129.1750   28.8640 C.ar  304  HIS304      0.0818
    123  ND1       15.3960  129.2580   29.1250 N.ar  304  HIS304     -0.2268
    124  CD2       13.8000  130.0610   27.8710 C.ar  304  HIS304      0.1154
    125  CE1       15.9420  130.1550   28.3230 C.ar  304  HIS304      0.1986
    126  NE2       14.9960  130.6540   27.5510 N.ar  304  HIS304     -0.2212
    127  N         10.8790  130.8830   29.0610 N.am  305  ASP305     -0.1974
    128  CA        10.4570  132.2210   29.4500 C.3   305  ASP305      0.1709
    129  C          9.0280  132.2770   29.9750 C.2   305  ASP305      0.2293
    130  O          8.6200  133.3390   30.4710 O.2   305  ASP305     -0.2864
    131  CB        10.5610  133.1740   28.2650 C.3   305  ASP305      0.1436
    132  CG        11.9760  133.5480   27.9610 C.2   305  ASP305      0.3671
    133  OD1       12.8140  133.4000   28.8730 O.co2 305  ASP305     -0.2456
    134  OD2       12.2550  133.9980   26.8280 O.co2 305  ASP305     -0.2456
    135  N         21.2170  128.1420   38.0330 N.3   348  TRP348     -0.1227
    136  CA        21.2440  129.5930   37.8100 C.3   348  TRP348      0.1737
    137  C         20.2770  130.0030   36.6980 C.2   348  TRP348      0.2595
    138  O         19.6680  131.0730   36.7720 O.2   348  TRP348     -0.2718
    139  CB        22.6760  130.1040   37.5280 C.3   348  TRP348      0.0564
    140  CG        23.1860  129.9900   36.0880 C.ar  348  TRP348      0.0003
    141  CD1       24.0570  129.0420   35.5970 C.ar  348  TRP348      0.0946
    142  CD2       22.8860  130.8600   34.9770 C.ar  348  TRP348      0.0152
    143  NE1       24.2930  129.2610   34.2590 N.ar  348  TRP348     -0.2442
    144  CE2       23.5850  130.3600   33.8510 C.ar  348  TRP348      0.0810
    145  CE3       22.0850  131.9980   34.8200 C.ar  348  TRP348      0.0012
    146  CZ2       23.5110  130.9680   32.5930 C.ar  348  TRP348      0.0191
    147  CZ3       22.0100  132.5990   33.5640 C.ar  348  TRP348      0.0001
    148  CH2       22.7170  132.0820   32.4740 C.ar  348  TRP348      0.0015
    149  N         20.1130  129.1710   35.6680 N.am  349  GLN349     -0.1979
    150  CA        19.1710  129.5110   34.6080 C.3   349  GLN349      0.1601
    151  C         17.7270  129.4110   35.1010 C.2   349  GLN349      0.2287
    152  O         16.9210  130.3190   34.8690 O.2   349  GLN349     -0.2864
    153  CB        19.4050  128.6170   33.3840 C.3   349  GLN349      0.0394
    154  CG        20.8030  128.7760   32.7750 C.3   349  GLN349      0.0908
    155  CD        20.8700  128.4210   31.2930 C.2   349  GLN349      0.2608
    156  OE1       21.6780  127.5880   30.8720 O.2   349  GLN349     -0.2717
    157  NE2       20.0260  129.0640   30.4950 N.am  349  GLN349     -0.0878
    158  N         16.9880  132.1290   37.8030 N.3   352  SER352     -0.1202
    159  CA        16.9380  133.4910   37.2720 C.3   352  SER352      0.2020
    160  C         15.6330  133.7180   36.5110 C.2   352  SER352      0.2618
    161  O         15.0310  134.7970   36.5950 O.2   352  SER352     -0.2717
    162  CB        18.1470  133.7670   36.3760 C.3   352  SER352      0.2103
    163  OG        19.3650  133.6080   37.1050 O.3   352  SER352     -0.2182
    164  N         15.1770  132.6950   35.7780 N.am  353  LEU353     -0.1979
    165  CA        13.8710  132.7220   35.1410 C.3   353  LEU353      0.1596
    166  C         12.7290  132.7870   36.1600 C.2   353  LEU353      0.2287
    167  O         11.6820  133.3760   35.8670 O.2   353  LEU353     -0.2864
    168  CB        13.7270  131.5000   34.2420 C.3   353  LEU353      0.0297
    169  CG        14.5920  131.6230   32.9840 C.3   353  LEU353      0.0022
    170  CD1       14.5600  130.3140   32.2210 C.3   353  LEU353      0.0001
    171  CD2       14.1690  132.7860   32.1220 C.3   353  LEU353      0.0001
    172  N         11.2670  136.2170   36.6510 N.3   356  ILE356     -0.1245
    173  CA        10.4060  136.8140   35.6390 C.3   356  ILE356      0.1561
    174  C          9.2160  135.9210   35.2830 C.2   356  ILE356      0.2260
    175  O          8.5440  136.1650   34.2830 O.2   356  ILE356     -0.2867
    176  CB        11.2030  137.1850   34.3690 C.3   356  ILE356      0.0252
    177  CG1       11.7150  135.9350   33.6690 C.3   356  ILE356      0.0019
    178  CG2       12.3370  138.1250   34.6840 C.3   356  ILE356      0.0019
    179  CD1       12.1640  136.2020   32.2560 C.3   356  ILE356      0.0001
@<TRIPOS>BOND
     1    90    88   ar
     2    76    75   ar
     3    88    87    1
     4    88    89   ar
     5    87    84    1
     6    72    71    2
     7    71    70    1
     8    73    70    1
     9    73    74    1
    10   116   114    1
    11   106   107    1
    12    75    74    1
    13    75    77   ar
    14    78    79    1
    15    70    69    1
    16    86    85    2
    17   113   114    2
    18   113   112    1
    19    84    83    1
    20    84    85    1
    21   114   115    1
    22    83    80   am
    23    59    60    2
    24    59    58    1
    25   107   108    1
    26   107   110    1
    27   108   109    2
    28    80    81    2
    29    80    79    1
    30    69    66   am
    31   110   111    1
    32    79    82    1
    33   111   112    1
    34    85    91   am
    35    64    65    1
    36   101   100    2
    37    66    67    2
    38    66    65    1
    39    57    58    1
    40   100    99    1
    41    58    61    1
    42    65    68    1
    43    62    61    1
    44    61    63    1
    45    91    92    1
    46    44    46   ar
    47    44    43   ar
    48    94    93    2
    49    46    48   ar
    50    93    92    1
    51    93    98   am
    52    92    95    1
    53    99    98    1
    54    99   102    1
    55    42    43    1
    56    42    39    1
    57    43    45   ar
    58    48    47   ar
    59   134   132   ar
    60    41    40    2
    61    45    47   ar
    62    52    51    2
    63    40    39    1
    64    51    50    1
    65   102   103    1
    66   126   124   ar
    67   126   125   ar
    68    39    38    1
    69   124   122   ar
    70    95    97    1
    71    95    96    1
    72   132   131    1
    73   132   133   ar
    74     1     2    1
    75   117   118    1
    76   131   128    1
    77   125   123   ar
    78    53    50    1
    79    53    54    1
    80    50    49    1
    81    13    11    1
    82   122   123   ar
    83   122   121    1
    84    38    32   am
    85     5     2    1
    86     5     6    1
    87     2     3    1
    88   103   104   ar
    89   103   105   ar
    90   127   128    1
    91   127   119   am
    92   118   121    1
    93   118   119    1
    94   128   129    1
    95    37    36    1
    96    33    32    2
    97   119   120    2
    98    55    54    1
    99   129   130    2
   100    11    12    1
   101    11     8    1
   102    32    31    1
   103    54    56    1
   104     3     4    2
   105   157   155   am
   106   156   155    2
   107     7     8    1
   108    36    35    1
   109   155   154    1
   110     8     9    1
   111    31    30    1
   112    31    34    1
   113    35    34    1
   114   171   169    1
   115   170   169    1
   116   179   177    1
   117   148   146   ar
   118   148   147   ar
   119     9    14   am
   120     9    10    2
   121   146   144   ar
   122   154   153    1
   123    14    15    1
   124   169   168    1
   125    19    20    1
   126    19    18    1
   127   153   150    1
   128    20    21    1
   129   147   145   ar
   130   177   176    1
   131   144   143   ar
   132   144   142   ar
   133    15    18    1
   134    15    16    1
   135   168   165    1
   136   143   141   ar
   137   175   174    2
   138   176   178    1
   139   176   173    1
   140    27    29    1
   141    27    26    1
   142   150   151    1
   143   150   149    1
   144   145   142   ar
   145   152   151    2
   146   142   140   ar
   147   165   164    1
   148   165   166    1
   149   174   173    1
   150    16    17    2
   151   141   140   ar
   152   173   172    1
   153   149   137   am
   154   164   160   am
   155    26    28    1
   156    26    23    1
   157   167   166    2
   158   140   139    1
   159    22    23    1
   160   162   163    1
   161   162   159    1
   162   160   161    2
   163   160   159    1
   164   137   138    2
   165   137   136    1
   166    23    24    1
   167   159   158    1
   168   139   136    1
   169   136   135    1
   170    24    25    2
