@<TRIPOS>MOLECULE
tmp/5w7rA01.pdb
 197 195 0 0 0
SMALL
GASTEIGER

@<TRIPOS>ATOM
      1  N         10.2250  141.3390   28.9400 N.3   185  PHE185     -0.1241
      2  CA        10.4340  141.8510   27.5850 C.3   185  PHE185      0.1605
      3  C          9.6820  143.1650   27.3600 C.2   185  PHE185      0.2264
      4  O         10.2500  144.1330   26.8310 O.2   185  PHE185     -0.2867
      5  CB        10.0070  140.8000   26.5630 C.3   185  PHE185      0.0534
      6  CG        10.8490  139.5450   26.5860 C.ar  185  PHE185     -0.0203
      7  CD1       12.2140  139.6020   26.3470 C.ar  185  PHE185     -0.0042
      8  CD2       10.2790  138.3190   26.8440 C.ar  185  PHE185     -0.0042
      9  CE1       13.0000  138.4590   26.3650 C.ar  185  PHE185     -0.0003
     10  CE2       11.0520  137.1660   26.8630 C.ar  185  PHE185     -0.0003
     11  CZ        12.4230  137.2400   26.6150 C.ar  185  PHE185     -0.0000
     12  N         11.9830  146.4440   26.5350 N.3   189  TYR189     -0.1241
     13  CA        11.8290  147.0290   25.2110 C.3   189  TYR189      0.1605
     14  C         11.1740  148.4130   25.2480 C.2   189  TYR189      0.2264
     15  O         11.3940  149.2040   24.3240 O.2   189  TYR189     -0.2867
     16  CB        11.0200  146.0960   24.3140 C.3   189  TYR189      0.0534
     17  CG        11.6800  144.7760   23.9680 C.ar  189  TYR189     -0.0201
     18  CD1       13.0610  144.6070   24.0370 C.ar  189  TYR189     -0.0009
     19  CD2       10.9120  143.6950   23.5610 C.ar  189  TYR189     -0.0009
     20  CE1       13.6530  143.3790   23.7230 C.ar  189  TYR189      0.0417
     21  CE2       11.4900  142.4720   23.2420 C.ar  189  TYR189      0.0417
     22  CZ        12.8590  142.3150   23.3280 C.ar  189  TYR189      0.1957
     23  OH        13.4100  141.0920   22.9960 O.3   189  TYR189     -0.2866
     24  N         20.7240  138.3480   24.3240 N.3   202  GLU202     -0.1245
     25  CA        19.9500  137.2350   23.7790 C.3   202  GLU202      0.1567
     26  C         20.7970  136.3670   22.8540 C.2   202  GLU202      0.2260
     27  O         20.5060  135.1730   22.6830 O.2   202  GLU202     -0.2867
     28  CB        18.7060  137.7480   23.0420 C.3   202  GLU202      0.0388
     29  CG        17.5320  138.0610   23.9470 C.3   202  GLU202      0.1160
     30  CD        16.5620  139.0680   23.3300 C.2   202  GLU202      0.3649
     31  OE1       16.7750  139.4930   22.1720 O.co2 202  GLU202     -0.2457
     32  OE2       15.5820  139.4380   24.0070 O.co2 202  GLU202     -0.2457
     33  N         11.7270  130.0920   12.5590 N.3   232  ASP232     -0.1239
     34  CA        12.4950  130.2290   13.7980 C.3   232  ASP232      0.1674
     35  C         11.7820  131.2820   14.6460 C.2   232  ASP232      0.2266
     36  O         12.0990  132.4770   14.5960 O.2   232  ASP232     -0.2867
     37  CB        13.9470  130.6020   13.5010 C.3   232  ASP232      0.1410
     38  CG        14.7980  130.6910   14.7530 C.2   232  ASP232      0.3668
     39  OD1       14.3620  130.1570   15.8020 O.co2 232  ASP232     -0.2456
     40  OD2       15.8900  131.3140   14.6940 O.co2 232  ASP232     -0.2456
     41  N         10.5210  133.5800   17.5570 N.3   234  ALA234     -0.1231
     42  CA        11.3420  134.3050   18.5260 C.3   234  ALA234      0.1694
     43  C         12.8100  133.9550   18.3180 C.2   234  ALA234      0.2593
     44  O         13.5650  133.7290   19.2670 O.2   234  ALA234     -0.2718
     45  CB        10.8930  134.0380   19.9580 C.3   234  ALA234      0.0304
     46  N         13.1360  133.9210   17.0510 N.am  235  GLY235     -0.1942
     47  CA        14.4250  133.6130   16.5140 C.3   235  GLY235      0.2014
     48  C         15.4660  134.6060   16.8700 C.2   235  GLY235      0.2640
     49  O         16.6130  134.3200   16.8070 O.2   235  GLY235     -0.2714
     50  N         15.0370  135.8040   17.1320 N.am  236  SER236     -0.1935
     51  CA        15.9060  136.8630   17.5430 C.3   236  SER236      0.2055
     52  C         16.9450  137.1170   16.5160 C.2   236  SER236      0.2643
     53  O         16.6290  137.4010   15.4170 O.2   236  SER236     -0.2714
     54  CB        16.4440  136.6820   18.9590 C.3   236  SER236      0.2130
     55  OG        17.0990  137.8240   19.4050 O.3   236  SER236     -0.2179
     56  N         18.1920  136.9970   16.8810 N.am  237  HIS237     -0.1973
     57  CA        19.2960  137.2900   16.0060 C.3   237  HIS237      0.1656
     58  C         19.3400  136.4810   14.7600 C.2   237  HIS237      0.2291
     59  O         19.7890  136.9340   13.7680 O.2   237  HIS237     -0.2864
     60  CB        20.5650  137.0600   16.7670 C.3   237  HIS237      0.0771
     61  CG        20.4510  135.9930   17.7870 C.ar  237  HIS237      0.0820
     62  ND1       20.4300  134.6680   17.4620 N.ar  237  HIS237     -0.2267
     63  CD2       20.3220  136.0540   19.1220 C.ar  237  HIS237      0.1154
     64  CE1       20.3120  133.9540   18.5550 C.ar  237  HIS237      0.1986
     65  NE2       20.2350  134.7720   19.5750 N.ar  237  HIS237     -0.2212
     66  N         10.9620  135.0330   13.0430 N.3   259  GLN259     -0.1231
     67  CA         9.9450  135.8930   13.6340 C.3   259  GLN259      0.1698
     68  C         10.4090  136.3650   15.0020 C.2   259  GLN259      0.2592
     69  O         10.9080  135.5630   15.7970 O.2   259  GLN259     -0.2718
     70  CB         8.6140  135.1530   13.7840 C.3   259  GLN259      0.0381
     71  CG         7.8300  134.9820   12.5150 C.3   259  GLN259      0.0905
     72  CD         6.9510  133.7540   12.5620 C.2   259  GLN259      0.2608
     73  OE1        7.0060  132.9800   13.5150 O.2   259  GLN259     -0.2717
     74  NE2        6.1500  133.5550   11.5210 N.am  259  GLN259     -0.0878
     75  N         10.2280  137.6550   15.2780 N.am  260  ASP260     -0.1960
     76  CA        10.4160  138.1860   16.6230 C.3   260  ASP260      0.1840
     77  C          9.6540  139.4970   16.7370 C.2   260  ASP260      0.2621
     78  O          9.1130  140.0110   15.7590 O.2   260  ASP260     -0.2715
     79  CB        11.8970  138.3840   16.9570 C.3   260  ASP260      0.1450
     80  CG        12.1940  138.1600   18.4240 C.2   260  ASP260      0.3671
     81  OD1       11.9160  139.0670   19.2400 O.co2 260  ASP260     -0.2456
     82  OD2       12.7080  137.0750   18.7590 O.co2 260  ASP260     -0.2456
     83  N          9.6130  140.0270   17.9560 N.am  261  LEU261     -0.1977
     84  CA         8.9660  141.3020   18.1970 C.3   261  LEU261      0.1596
     85  C          9.6400  142.3930   17.3690 C.2   261  LEU261      0.2287
     86  O         10.7600  142.2370   16.8870 O.2   261  LEU261     -0.2864
     87  CB         9.0000  141.6360   19.6910 C.3   261  LEU261      0.0297
     88  CG         8.3440  140.5400   20.5480 C.3   261  LEU261      0.0022
     89  CD1        8.3520  140.8640   22.0480 C.3   261  LEU261      0.0001
     90  CD2        6.9260  140.2380   20.0530 C.3   261  LEU261      0.0001
     91  N         13.3220  143.9280   17.9860 N.3   264  VAL264     -0.1245
     92  CA        14.3310  142.8970   17.7470 C.3   264  VAL264      0.1561
     93  C         14.5540  142.7020   16.2540 C.2   264  VAL264      0.2260
     94  O         15.6920  142.7680   15.7690 O.2   264  VAL264     -0.2867
     95  CB        13.9090  141.5750   18.4190 C.3   264  VAL264      0.0252
     96  CG1       14.9180  140.4790   18.1290 C.3   264  VAL264      0.0019
     97  CG2       13.7330  141.7750   19.9050 C.3   264  VAL264      0.0019
     98  N          6.2440  139.3860   14.5630 N.3   282  TYR282     -0.1227
     99  CA         5.2020  138.4700   15.0010 C.3   282  TYR282      0.1736
    100  C          5.2370  138.3780   16.5220 C.2   282  TYR282      0.2595
    101  O          6.3100  138.4110   17.1300 O.2   282  TYR282     -0.2718
    102  CB         5.3840  137.0850   14.3770 C.3   282  TYR282      0.0548
    103  CG         4.5030  135.9980   14.9640 C.ar  282  TYR282     -0.0200
    104  CD1        3.1110  136.1180   14.9770 C.ar  282  TYR282     -0.0009
    105  CD2        5.0660  134.8370   15.4870 C.ar  282  TYR282     -0.0009
    106  CE1        2.3100  135.1080   15.5120 C.ar  282  TYR282      0.0417
    107  CE2        4.2810  133.8240   16.0170 C.ar  282  TYR282      0.0417
    108  CZ         2.9040  133.9600   16.0300 C.ar  282  TYR282      0.1957
    109  OH         2.1430  132.9390   16.5650 O.3   282  TYR282     -0.2866
    110  N          4.0580  138.2690   17.1250 N.am  283  ASP283     -0.1960
    111  CA         3.8820  138.2220   18.5750 C.3   283  ASP283      0.1840
    112  C          3.1130  136.9400   18.8600 C.2   283  ASP283      0.2622
    113  O          1.9010  136.8840   18.6420 O.2   283  ASP283     -0.2715
    114  CB         3.1340  139.4620   19.0650 C.3   283  ASP283      0.1450
    115  CG         2.8980  139.4660   20.5620 C.2   283  ASP283      0.3671
    116  OD1        2.5310  138.4190   21.1320 O.co2 283  ASP283     -0.2456
    117  OD2        3.0690  140.5390   21.1810 O.co2 283  ASP283     -0.2456
    118  N          3.7970  135.9060   19.3440 N.am  284  PHE284     -0.1960
    119  CA         3.0930  134.6400   19.5200 C.3   284  PHE284      0.1771
    120  C          2.0550  134.6720   20.6490 C.2   284  PHE284      0.2619
    121  O          1.4510  133.6230   20.9220 O.2   284  PHE284     -0.2715
    122  CB         4.0860  133.4860   19.7480 C.3   284  PHE284      0.0574
    123  CG         5.2050  133.7900   20.7210 C.ar  284  PHE284     -0.0200
    124  CD1        4.9440  134.2660   22.0030 C.ar  284  PHE284     -0.0042
    125  CD2        6.5220  133.6010   20.3520 C.ar  284  PHE284     -0.0042
    126  CE1        5.9650  134.5070   22.9090 C.ar  284  PHE284     -0.0003
    127  CE2        7.5550  133.8660   21.2520 C.ar  284  PHE284     -0.0003
    128  CZ         7.2700  134.3250   22.5250 C.ar  284  PHE284     -0.0000
    129  N          1.8350  135.8270   21.2970 N.am  285  LEU285     -0.1977
    130  CA         0.8090  136.0140   22.3280 C.3   285  LEU285      0.1596
    131  C         -0.4600  136.6790   21.7920 C.2   285  LEU285      0.2287
    132  O         -1.5710  136.2270   22.0990 O.2   285  LEU285     -0.2864
    133  CB         1.3590  136.8480   23.4970 C.3   285  LEU285      0.0297
    134  CG         2.4220  136.1750   24.3700 C.3   285  LEU285      0.0022
    135  CD1        2.8670  137.0670   25.5170 C.3   285  LEU285      0.0001
    136  CD2        1.8890  134.8640   24.8780 C.3   285  LEU285      0.0001
    137  N         13.6370  127.9400   19.9840 N.3   300  ARG300     -0.1231
    138  CA        14.8660  127.7680   20.7530 C.3   300  ARG300      0.1694
    139  C         14.9100  128.7890   21.8830 C.2   300  ARG300      0.2592
    140  O         14.9370  130.0030   21.6330 O.2   300  ARG300     -0.2718
    141  CB        16.1320  127.8660   19.8860 C.3   300  ARG300      0.0321
    142  CG        17.3090  127.1090   20.5500 C.3   300  ARG300      0.0489
    143  CD        18.6360  127.2150   19.8050 C.3   300  ARG300      0.2205
    144  NE        19.1880  128.5550   19.8670 N.pl3 300  ARG300     -0.0865
    145  CZ        20.3310  128.9210   19.2960 C.cat 300  ARG300      0.5346
    146  NH1       21.0500  128.0350   18.6130 N.pl3 300  ARG300      0.1354
    147  NH2       20.7490  130.1800   19.4040 N.pl3 300  ARG300      0.1354
    148  N         14.9580  128.2860   23.1170 N.am  301  ARG301     -0.1966
    149  CA        15.0990  129.1390   24.2880 C.3   301  ARG301      0.1729
    150  C         14.0110  130.2090   24.3050 C.2   301  ARG301      0.2616
    151  O         14.2740  131.3990   24.5120 O.2   301  ARG301     -0.2715
    152  CB        16.5010  129.7680   24.3510 C.3   301  ARG301      0.0348
    153  CG        17.6340  128.7410   24.5010 C.3   301  ARG301      0.0492
    154  CD        18.9460  129.3750   24.9440 C.3   301  ARG301      0.2205
    155  NE        19.4860  130.2920   23.9400 N.pl3 301  ARG301     -0.0865
    156  CZ        20.6350  130.9550   24.0710 C.cat 301  ARG301      0.5346
    157  NH1       21.3640  130.7980   25.1680 N.pl3 301  ARG301      0.1354
    158  NH2       21.0570  131.7720   23.1050 N.pl3 301  ARG301      0.1354
    159  N         12.7750  129.7720   24.0470 N.am  302  VAL302     -0.1977
    160  CA        11.5880  130.5950   24.2280 C.3   302  VAL302      0.1596
    161  C         10.7310  130.0830   25.3830 C.2   302  VAL302      0.2287
    162  O         10.3960  130.8400   26.2870 O.2   302  VAL302     -0.2864
    163  CB        10.7650  130.6940   22.9220 C.3   302  VAL302      0.0276
    164  CG1       11.6040  131.2720   21.8020 C.3   302  VAL302      0.0022
    165  CG2       10.2770  129.3680   22.5120 C.3   302  VAL302      0.0022
    166  N         11.2380  128.3900   28.0610 N.3   304  HIS304     -0.1226
    167  CA        11.6480  128.5850   29.4470 C.3   304  HIS304      0.1752
    168  C         11.3380  129.9960   29.9430 C.2   304  HIS304      0.2596
    169  O         11.4920  130.2700   31.1380 O.2   304  HIS304     -0.2718
    170  CB        13.1370  128.2500   29.6070 C.3   304  HIS304      0.0759
    171  CG        14.0470  129.1750   28.8640 C.ar  304  HIS304      0.0818
    172  ND1       15.3960  129.2580   29.1250 N.ar  304  HIS304     -0.2268
    173  CD2       13.8000  130.0610   27.8710 C.ar  304  HIS304      0.1154
    174  CE1       15.9420  130.1550   28.3230 C.ar  304  HIS304      0.1986
    175  NE2       14.9960  130.6540   27.5510 N.ar  304  HIS304     -0.2212
    176  N         10.8790  130.8830   29.0610 N.am  305  ASP305     -0.1960
    177  CA        10.4570  132.2210   29.4500 C.3   305  ASP305      0.1840
    178  C          9.0280  132.2770   29.9750 C.2   305  ASP305      0.2622
    179  O          8.6200  133.3390   30.4710 O.2   305  ASP305     -0.2715
    180  CB        10.5610  133.1740   28.2650 C.3   305  ASP305      0.1450
    181  CG        11.9760  133.5480   27.9610 C.2   305  ASP305      0.3671
    182  OD1       12.8140  133.4000   28.8730 O.co2 305  ASP305     -0.2456
    183  OD2       12.2550  133.9980   26.8280 O.co2 305  ASP305     -0.2456
    184  N          8.2640  131.1870   29.8620 N.am  306  TRP306     -0.1974
    185  CA         6.8240  131.2670   30.0250 C.3   306  TRP306      0.1640
    186  C          6.3250  130.0740   30.8240 C.2   306  TRP306      0.2290
    187  O          6.8750  128.9760   30.7100 O.2   306  TRP306     -0.2864
    188  CB         6.0910  131.3020   28.6750 C.3   306  TRP306      0.0576
    189  CG         6.6220  132.3260   27.7520 C.ar  306  TRP306      0.0006
    190  CD1        7.4630  132.1190   26.6850 C.ar  306  TRP306      0.0946
    191  CD2        6.3860  133.7290   27.8080 C.ar  306  TRP306      0.0152
    192  NE1        7.7520  133.3110   26.0710 N.ar  306  TRP306     -0.2442
    193  CE2        7.0970  134.3160   26.7360 C.ar  306  TRP306      0.0810
    194  CE3        5.6300  134.5510   28.6480 C.ar  306  TRP306      0.0012
    195  CZ2        7.0750  135.6880   26.4910 C.ar  306  TRP306      0.0191
    196  CZ3        5.6170  135.9130   28.4090 C.ar  306  TRP306      0.0001
    197  CH2        6.3300  136.4680   27.3370 C.ar  306  TRP306      0.0015
@<TRIPOS>BOND
     1    74    72   am
     2    71    72    1
     3    71    70    1
     4    33    34    1
     5    72    73    2
     6    66    67    1
     7    37    34    1
     8    37    38    1
     9    67    70    1
    10    67    68    1
    11    59    58    2
    12    34    35    1
    13   102   103    1
    14   102    99    1
    15    98    99    1
    16    36    35    2
    17    40    38   ar
    18    38    39   ar
    19    58    57    1
    20   103   104   ar
    21   103   105   ar
    22   104   106   ar
    23    99   100    1
    24    68    75   am
    25    68    69    2
    26    75    76    1
    27    53    52    2
    28   105   107   ar
    29   106   108   ar
    30    78    77    2
    31    94    93    2
    32    57    60    1
    33    57    56    1
    34   107   108   ar
    35   108   109    1
    36    93    92    1
    37    47    48    1
    38    47    46    1
    39    52    56   am
    40    52    51    1
    41   100   110   am
    42   100   101    2
    43    76    77    1
    44    76    79    1
    45    77    83   am
    46    60    61    1
    47    49    48    2
    48    48    50   am
    49    86    85    2
    50    79    80    1
    51    46    43   am
    52   110   111    1
    53    50    51    1
    54    85    84    1
    55    62    61   ar
    56    62    64   ar
    57    51    54    1
    58    41    42    1
    59    92    91    1
    60    92    95    1
    61    61    63   ar
    62    83    84    1
    63    96    95    1
    64    84    87    1
    65    43    42    1
    66    43    44    2
    67    95    97    1
    68    80    82   ar
    69    80    81   ar
    70    42    45    1
    71    64    65   ar
    72   111   112    1
    73   111   114    1
    74   146   145    1
    75   113   112    2
    76   112   118   am
    77    54    55    1
    78   114   115    1
    79    63    65   ar
    80   145   147    1
    81   145   144    2
    82   118   119    1
    83   119   122    1
    84   119   120    1
    85    87    88    1
    86   122   123    1
    87   143   144    1
    88   143   142    1
    89   141   142    1
    90   141   138    1
    91   137   138    1
    92    90    88    1
    93   125   123   ar
    94   125   127   ar
    95    88    89    1
    96   115   116   ar
    97   115   117   ar
    98   120   121    2
    99   120   129   am
   100   123   124   ar
   101   138   139    1
   102   127   128   ar
   103   129   130    1
   104   140   139    2
   105   131   132    2
   106   131   130    1
   107   164   163    1
   108   139   148   am
   109   124   126   ar
   110    31    30   ar
   111   130   133    1
   112   165   163    1
   113   128   126   ar
   114    27    26    2
   115    26    25    1
   116   163   160    1
   117    23    22    1
   118    28    25    1
   119    28    29    1
   120   158   156    1
   121   148   149    1
   122    21    22   ar
   123    21    19   ar
   124    22    20   ar
   125    30    29    1
   126    30    32   ar
   127   133   134    1
   128    19    17   ar
   129    20    18   ar
   130    25    24    1
   131   155   156    2
   132   155   154    1
   133    17    18   ar
   134    17    16    1
   135   159   160    1
   136   159   150   am
   137   156   157    1
   138   160   161    1
   139   149   150    1
   140   149   152    1
   141   150   151    2
   142    16    13    1
   143    15    14    2
   144   152   153    1
   145   134   136    1
   146   134   135    1
   147   153   154    1
   148    13    14    1
   149    13    12    1
   150   161   162    2
   151   192   190   ar
   152   192   193   ar
   153     7     9   ar
   154     7     6   ar
   155     9    11   ar
   156   195   193   ar
   157   195   197   ar
   158     5     6    1
   159     5     2    1
   160     6     8   ar
   161    11    10   ar
   162   190   189   ar
   163   193   191   ar
   164   183   181   ar
   165     4     3    2
   166     8    10   ar
   167   197   196   ar
   168     3     2    1
   169   175   173   ar
   170   175   174   ar
   171     2     1    1
   172   189   191   ar
   173   189   188    1
   174   191   194   ar
   175   173   171   ar
   176   181   180    1
   177   181   182   ar
   178   166   167    1
   179   180   177    1
   180   174   172   ar
   181   196   194   ar
   182   188   185    1
   183   171   172   ar
   184   171   170    1
   185   176   177    1
   186   176   168   am
   187   167   170    1
   188   167   168    1
   189   177   178    1
   190   184   178   am
   191   184   185    1
   192   168   169    2
   193   178   179    2
   194   185   186    1
   195   187   186    2
