@<TRIPOS>MOLECULE
tmp/5w7sA01.pdb
 188 186 0 0 0
SMALL
GASTEIGER

@<TRIPOS>ATOM
      1  N         10.0970  141.6370   29.7550 N.3   183  PHE183     -0.1241
      2  CA        10.4200  142.1880   28.4440 C.3   183  PHE183      0.1605
      3  C          9.7530  143.5440   28.2290 C.2   183  PHE183      0.2264
      4  O         10.4000  144.5160   27.8140 O.2   183  PHE183     -0.2867
      5  CB        10.0010  141.2050   27.3620 C.3   183  PHE183      0.0534
      6  CG        10.7330  139.9090   27.4210 C.ar  183  PHE183     -0.0203
      7  CD1       12.0820  139.8470   27.1110 C.ar  183  PHE183     -0.0042
      8  CD2       10.0830  138.7460   27.8000 C.ar  183  PHE183     -0.0042
      9  CE1       12.7730  138.6460   27.1690 C.ar  183  PHE183     -0.0003
     10  CE2       10.7700  137.5410   27.8570 C.ar  183  PHE183     -0.0003
     11  CZ        12.1200  137.4970   27.5390 C.ar  183  PHE183     -0.0000
     12  N         11.9600  146.8860   27.3610 N.3   187  TYR187     -0.1241
     13  CA        11.8840  147.5070   26.0440 C.3   187  TYR187      0.1605
     14  C         11.2420  148.8980   26.0760 C.2   187  TYR187      0.2264
     15  O         11.3550  149.6330   25.0880 O.2   187  TYR187     -0.2867
     16  CB        11.1030  146.6190   25.0750 C.3   187  TYR187      0.0534
     17  CG        11.7220  145.2880   24.7250 C.ar  187  TYR187     -0.0201
     18  CD1       13.1020  145.0810   24.7780 C.ar  187  TYR187     -0.0009
     19  CD2       10.9190  144.2330   24.3180 C.ar  187  TYR187     -0.0009
     20  CE1       13.6610  143.8460   24.4440 C.ar  187  TYR187      0.0417
     21  CE2       11.4620  143.0020   23.9850 C.ar  187  TYR187      0.0417
     22  CZ        12.8270  142.8070   24.0480 C.ar  187  TYR187      0.1957
     23  OH        13.3250  141.5660   23.7020 O.3   187  TYR187     -0.2866
     24  N         20.5860  138.4510   25.0580 N.3   200  GLU200     -0.1245
     25  CA        19.8380  137.3420   24.4710 C.3   200  GLU200      0.1567
     26  C         20.7080  136.5270   23.5250 C.2   200  GLU200      0.2260
     27  O         20.4560  135.3330   23.3220 O.2   200  GLU200     -0.2867
     28  CB        18.6080  137.8530   23.7230 C.3   200  GLU200      0.0388
     29  CG        17.4740  138.3340   24.5990 C.3   200  GLU200      0.1160
     30  CD        16.4810  139.1860   23.8230 C.2   200  GLU200      0.3649
     31  OE1       16.3440  138.9730   22.5970 O.co2 200  GLU200     -0.2457
     32  OE2       15.8460  140.0730   24.4300 O.co2 200  GLU200     -0.2457
     33  N         11.8130  130.3630   13.0240 N.3   230  ASP230     -0.1239
     34  CA        12.4580  130.5170   14.3240 C.3   230  ASP230      0.1674
     35  C         11.6660  131.5770   15.0670 C.2   230  ASP230      0.2266
     36  O         11.8920  132.7760   14.8900 O.2   230  ASP230     -0.2867
     37  CB        13.9270  130.9040   14.1760 C.3   230  ASP230      0.1410
     38  CG        14.6610  130.9340   15.5040 C.2   230  ASP230      0.3668
     39  OD1       14.0700  130.5500   16.5410 O.co2 230  ASP230     -0.2456
     40  OD2       15.8360  131.3560   15.5100 O.co2 230  ASP230     -0.2456
     41  N         10.5770  133.8970   18.0240 N.3   232  ALA232     -0.1231
     42  CA        11.4380  134.6120   18.9580 C.3   232  ALA232      0.1694
     43  C         12.9040  134.2860   18.6720 C.2   232  ALA232      0.2593
     44  O         13.6900  133.9730   19.5650 O.2   232  ALA232     -0.2718
     45  CB        11.0590  134.3060   20.4060 C.3   232  ALA232      0.0304
     46  N         13.2630  134.3490   17.3870 N.am  233  GLY233     -0.1942
     47  CA        14.6030  133.9970   16.9620 C.3   233  GLY233      0.2014
     48  C         15.6540  135.0250   17.3210 C.2   233  GLY233      0.2640
     49  O         16.8540  134.7120   17.2800 O.2   233  GLY233     -0.2714
     50  N         15.2280  136.2380   17.6770 N.am  234  SER234     -0.1935
     51  CA        16.1320  137.2980   18.0900 C.3   234  SER234      0.2055
     52  C         17.1460  137.5170   16.9760 C.2   234  SER234      0.2643
     53  O         16.7700  137.5590   15.7990 O.2   234  SER234     -0.2714
     54  CB        16.7970  136.9330   19.4200 C.3   234  SER234      0.2130
     55  OG        17.4280  138.0440   20.0230 O.3   234  SER234     -0.2179
     56  N         18.4260  137.6350   17.3400 N.am  235  HIS235     -0.1973
     57  CA        19.5620  137.6650   16.4220 C.3   235  HIS235      0.1656
     58  C         19.4030  136.7730   15.1990 C.2   235  HIS235      0.2291
     59  O         19.7000  137.1880   14.0750 O.2   235  HIS235     -0.2864
     60  CB        20.8120  137.2480   17.1880 C.3   235  HIS235      0.0771
     61  CG        20.5430  136.2310   18.2550 C.ar  235  HIS235      0.0820
     62  ND1       20.3890  134.8880   17.9840 N.ar  235  HIS235     -0.2267
     63  CD2       20.3770  136.3660   19.5920 C.ar  235  HIS235      0.1154
     64  CE1       20.1540  134.2380   19.1110 C.ar  235  HIS235      0.1986
     65  NE2       20.1450  135.1120   20.1020 N.ar  235  HIS235     -0.2212
     66  N         10.0270  137.9000   15.9840 N.3   258  ASP258     -0.1225
     67  CA        10.2920  138.4340   17.3120 C.3   258  ASP258      0.1805
     68  C          9.6230  139.8010   17.3680 C.2   258  ASP258      0.2597
     69  O          9.1580  140.3260   16.3520 O.2   258  ASP258     -0.2718
     70  CB        11.7870  138.5480   17.6210 C.3   258  ASP258      0.1424
     71  CG        12.0910  138.3780   19.0920 C.2   258  ASP258      0.3668
     72  OD1       11.5390  139.1320   19.9240 O.co2 258  ASP258     -0.2456
     73  OD2       12.8920  137.4840   19.4220 O.co2 258  ASP258     -0.2456
     74  N          9.5880  140.3730   18.5670 N.am  259  LEU259     -0.1979
     75  CA         8.9940  141.6810   18.7620 C.3   259  LEU259      0.1596
     76  C          9.7210  142.7430   17.9450 C.2   259  LEU259      0.2287
     77  O         10.8280  142.5370   17.4430 O.2   259  LEU259     -0.2864
     78  CB         8.9830  142.0440   20.2430 C.3   259  LEU259      0.0297
     79  CG         8.3670  140.9680   21.1340 C.3   259  LEU259      0.0022
     80  CD1        7.9570  141.5370   22.4880 C.3   259  LEU259      0.0001
     81  CD2        7.1530  140.3600   20.4640 C.3   259  LEU259      0.0001
     82  N         13.3510  144.1110   18.7100 N.3   262  VAL262     -0.1245
     83  CA        14.2930  143.0560   18.3590 C.3   262  VAL262      0.1561
     84  C         14.4560  142.9700   16.8470 C.2   262  VAL262      0.2260
     85  O         15.5760  142.8590   16.3310 O.2   262  VAL262     -0.2867
     86  CB        13.8180  141.7160   18.9510 C.3   262  VAL262      0.0252
     87  CG1       14.7290  140.5840   18.4960 C.3   262  VAL262      0.0019
     88  CG2       13.7370  141.7930   20.4800 C.3   262  VAL262      0.0019
     89  N          6.3750  139.7510   15.0650 N.3   280  TYR280     -0.1227
     90  CA         5.2980  138.9060   15.5630 C.3   280  TYR280      0.1736
     91  C          5.3340  138.8810   17.0870 C.2   280  TYR280      0.2595
     92  O          6.3680  139.1290   17.7120 O.2   280  TYR280     -0.2718
     93  CB         5.3830  137.4890   14.9630 C.3   280  TYR280      0.0548
     94  CG         4.5090  136.4390   15.6270 C.ar  280  TYR280     -0.0200
     95  CD1        3.1200  136.5930   15.7030 C.ar  280  TYR280     -0.0009
     96  CD2        5.0730  135.2810   16.1520 C.ar  280  TYR280     -0.0009
     97  CE1        2.3320  135.6320   16.3130 C.ar  280  TYR280      0.0417
     98  CE2        4.2940  134.3150   16.7560 C.ar  280  TYR280      0.0417
     99  CZ         2.9280  134.4900   16.8340 C.ar  280  TYR280      0.1957
    100  OH         2.1690  133.5150   17.4420 O.3   280  TYR280     -0.2866
    101  N          4.1670  138.6030   17.6730 N.am  281  ASP281     -0.1960
    102  CA         3.9370  138.6040   19.1150 C.3   281  ASP281      0.1840
    103  C          3.0930  137.3740   19.4020 C.2   281  ASP281      0.2622
    104  O          1.9150  137.3430   19.0440 O.2   281  ASP281     -0.2715
    105  CB         3.2110  139.8850   19.5450 C.3   281  ASP281      0.1450
    106  CG         2.9890  139.9810   21.0490 C.2   281  ASP281      0.3671
    107  OD1        2.8160  138.9340   21.7130 O.co2 281  ASP281     -0.2456
    108  OD2        2.9640  141.1280   21.5640 O.co2 281  ASP281     -0.2456
    109  N          3.6710  136.3580   20.0330 N.am  282  PHE282     -0.1960
    110  CA         2.8760  135.1610   20.2740 C.3   282  PHE282      0.1771
    111  C          1.9650  135.2780   21.5090 C.2   282  PHE282      0.2619
    112  O          1.4640  134.2550   21.9940 O.2   282  PHE282     -0.2715
    113  CB         3.7760  133.9260   20.3770 C.3   282  PHE282      0.0574
    114  CG         4.9920  134.1020   21.2440 C.ar  282  PHE282     -0.0200
    115  CD1        4.8810  134.3070   22.6070 C.ar  282  PHE282     -0.0042
    116  CD2        6.2590  134.0140   20.6920 C.ar  282  PHE282     -0.0042
    117  CE1        6.0040  134.4260   23.4030 C.ar  282  PHE282     -0.0003
    118  CE2        7.3860  134.1450   21.4800 C.ar  282  PHE282     -0.0003
    119  CZ         7.2580  134.3550   22.8380 C.ar  282  PHE282     -0.0000
    120  N          1.7450  136.4910   22.0200 N.am  283  LEU283     -0.1977
    121  CA         0.7980  136.7270   23.1040 C.3   283  LEU283      0.1596
    122  C         -0.4640  137.4400   22.6410 C.2   283  LEU283      0.2287
    123  O         -1.5580  137.1230   23.1170 O.2   283  LEU283     -0.2864
    124  CB         1.4660  137.5310   24.2280 C.3   283  LEU283      0.0297
    125  CG         2.5000  136.7680   25.0840 C.3   283  LEU283      0.0022
    126  CD1        2.8900  137.5150   26.3750 C.3   283  LEU283      0.0001
    127  CD2        2.0220  135.3530   25.4100 C.3   283  LEU283      0.0001
    128  N         13.5570  128.2290   20.4680 N.3   298  ARG298     -0.1231
    129  CA        14.8050  128.0360   21.2000 C.3   298  ARG298      0.1694
    130  C         14.9020  129.0260   22.3500 C.2   298  ARG298      0.2592
    131  O         14.8010  130.2400   22.1440 O.2   298  ARG298     -0.2718
    132  CB        16.0420  128.1630   20.2990 C.3   298  ARG298      0.0321
    133  CG        17.2660  127.4690   20.9030 C.3   298  ARG298      0.0489
    134  CD        18.5230  127.6270   20.0760 C.3   298  ARG298      0.2205
    135  NE        19.2120  128.8800   20.3650 N.pl3 298  ARG298     -0.0865
    136  CZ        20.1950  129.3780   19.6220 C.cat 298  ARG298      0.5346
    137  NH1       20.6400  128.6970   18.5710 N.pl3 298  ARG298      0.1354
    138  NH2       20.7460  130.5460   19.9460 N.pl3 298  ARG298      0.1354
    139  N         15.1170  128.4890   23.5510 N.am  299  ARG299     -0.1966
    140  CA        15.2780  129.2730   24.7690 C.3   299  ARG299      0.1729
    141  C         14.1720  130.3120   24.8750 C.2   299  ARG299      0.2616
    142  O         14.4020  131.4930   25.1670 O.2   299  ARG299     -0.2715
    143  CB        16.6670  129.9040   24.8380 C.3   299  ARG299      0.0348
    144  CG        17.7490  128.9050   25.2550 C.3   299  ARG299      0.0492
    145  CD        19.0410  129.5900   25.5890 C.3   299  ARG299      0.2205
    146  NE        19.4180  130.4920   24.5110 N.pl3 299  ARG299     -0.0865
    147  CZ        20.5040  131.2550   24.5190 C.cat 299  ARG299      0.5346
    148  NH1       21.3280  131.2210   25.5570 N.pl3 299  ARG299      0.1354
    149  NH2       20.7660  132.0420   23.4840 N.pl3 299  ARG299      0.1354
    150  N         12.9510  129.8310   24.6110 N.am  300  VAL300     -0.1977
    151  CA        11.7350  130.6240   24.6480 C.3   300  VAL300      0.1596
    152  C         10.8490  130.2130   25.8100 C.2   300  VAL300      0.2287
    153  O         10.4410  131.0430   26.6160 O.2   300  VAL300     -0.2864
    154  CB        10.9670  130.5110   23.3140 C.3   300  VAL300      0.0276
    155  CG1        9.5040  130.8600   23.5230 C.3   300  VAL300      0.0022
    156  CG2       11.5710  131.4140   22.2710 C.3   300  VAL300      0.0022
    157  N         11.2430  128.6780   28.5720 N.3   302  HIS302     -0.1226
    158  CA        11.6890  128.8710   29.9450 C.3   302  HIS302      0.1752
    159  C         11.4600  130.2920   30.4230 C.2   302  HIS302      0.2596
    160  O         11.6360  130.5670   31.6140 O.2   302  HIS302     -0.2718
    161  CB        13.1600  128.4720   30.1100 C.3   302  HIS302      0.0759
    162  CG        14.1350  129.3950   29.4470 C.ar  302  HIS302      0.0818
    163  ND1       15.4140  129.5840   29.9230 N.ar  302  HIS302     -0.2268
    164  CD2       14.0400  130.1470   28.3260 C.ar  302  HIS302      0.1154
    165  CE1       16.0530  130.4360   29.1420 C.ar  302  HIS302      0.1986
    166  NE2       15.2430  130.7900   28.1620 N.ar  302  HIS302     -0.2212
    167  N         11.0320  131.1810   29.5330 N.am  303  ASP303     -0.1960
    168  CA        10.5980  132.5220   29.9000 C.3   303  ASP303      0.1840
    169  C          9.1760  132.5870   30.4550 C.2   303  ASP303      0.2622
    170  O          8.7100  133.6900   30.7590 O.2   303  ASP303     -0.2715
    171  CB        10.6600  133.4380   28.6810 C.3   303  ASP303      0.1450
    172  CG        12.0540  133.8140   28.3010 C.2   303  ASP303      0.3671
    173  OD1       12.9880  133.6020   29.1090 O.co2 303  ASP303     -0.2456
    174  OD2       12.1920  134.3470   27.1790 O.co2 303  ASP303     -0.2456
    175  N          8.4800  131.4590   30.5810 N.am  304  TRP304     -0.1974
    176  CA         7.0340  131.4440   30.7100 C.3   304  TRP304      0.1640
    177  C          6.5740  130.3470   31.6470 C.2   304  TRP304      0.2290
    178  O          7.2250  129.2980   31.7640 O.2   304  TRP304     -0.2864
    179  CB         6.3880  131.2540   29.3320 C.3   304  TRP304      0.0576
    180  CG         6.8480  132.3160   28.3960 C.ar  304  TRP304      0.0006
    181  CD1        7.6690  132.1620   27.3150 C.ar  304  TRP304      0.0946
    182  CD2        6.5470  133.7110   28.4750 C.ar  304  TRP304      0.0152
    183  NE1        7.8910  133.3750   26.7100 N.ar  304  TRP304     -0.2442
    184  CE2        7.2120  134.3410   27.4040 C.ar  304  TRP304      0.0810
    185  CE3        5.7660  134.4920   29.3440 C.ar  304  TRP304      0.0012
    186  CZ2        7.1190  135.7010   27.1740 C.ar  304  TRP304      0.0191
    187  CZ3        5.6800  135.8470   29.1200 C.ar  304  TRP304      0.0001
    188  CH2        6.3500  136.4390   28.0410 C.ar  304  TRP304      0.0015
@<TRIPOS>BOND
     1    33    34    1
     2    59    58    2
     3    37    34    1
     4    37    38    1
     5    34    35    1
     6    36    35    2
     7    93    90    1
     8    93    94    1
     9    89    90    1
    10    58    57    1
    11    38    40   ar
    12    38    39   ar
    13    90    91    1
    14    94    95   ar
    15    94    96   ar
    16    95    97   ar
    17    53    52    2
    18    66    67    1
    19    96    98   ar
    20    97    99   ar
    21    85    84    2
    22    69    68    2
    23    57    60    1
    24    57    56    1
    25    98    99   ar
    26    99   100    1
    27    84    83    1
    28    47    48    1
    29    47    46    1
    30    52    56   am
    31    52    51    1
    32    91   101   am
    33    91    92    2
    34    60    61    1
    35    49    48    2
    36    67    68    1
    37    67    70    1
    38    48    50   am
    39    68    74   am
    40    46    43   am
    41    77    76    2
    42    70    71    1
    43   101   102    1
    44    50    51    1
    45    76    75    1
    46    62    61   ar
    47    62    64   ar
    48    41    42    1
    49    51    54    1
    50    61    63   ar
    51    83    82    1
    52    83    86    1
    53    87    86    1
    54    74    75    1
    55   137   136    1
    56    43    42    1
    57    43    44    2
    58    75    78    1
    59    86    88    1
    60    42    45    1
    61   104   103    2
    62    71    73   ar
    63    71    72   ar
    64    64    65   ar
    65   102   103    1
    66   102   105    1
    67   103   109   am
    68    54    55    1
    69   105   106    1
    70    63    65   ar
    71   136   138    1
    72   136   135    2
    73   109   110    1
    74   134   135    1
    75   134   133    1
    76    78    79    1
    77   110   113    1
    78   110   111    1
    79   132   133    1
    80   132   129    1
    81   113   114    1
    82    81    79    1
    83   128   129    1
    84   116   114   ar
    85   116   118   ar
    86   106   108   ar
    87   106   107   ar
    88    79    80    1
    89   129   130    1
    90   114   115   ar
    91   118   119   ar
    92   111   112    2
    93   111   120   am
    94   120   121    1
    95   131   130    2
    96   156   154    1
    97   130   139   am
    98    31    30   ar
    99   115   117   ar
   100   122   121    1
   101   122   123    2
   102   119   117   ar
   103   121   124    1
   104   154   155    1
   105   154   151    1
   106    27    26    2
   107   149   147    1
   108    26    25    1
   109   139   140    1
   110    23    22    1
   111    28    25    1
   112    28    29    1
   113    30    32   ar
   114    30    29    1
   115    21    22   ar
   116    21    19   ar
   117    22    20   ar
   118   124   125    1
   119    19    17   ar
   120    20    18   ar
   121    25    24    1
   122   146   147    2
   123   146   145    1
   124   147   148    1
   125   150   151    1
   126   150   141   am
   127   151   152    1
   128    17    18   ar
   129    17    16    1
   130   140   143    1
   131   140   141    1
   132   143   144    1
   133   141   142    2
   134    16    13    1
   135   125   127    1
   136   125   126    1
   137    15    14    2
   138   144   145    1
   139   152   153    2
   140    13    14    1
   141    13    12    1
   142   183   181   ar
   143   183   184   ar
   144     7     9   ar
   145     7     6   ar
   146     9    11   ar
   147   186   184   ar
   148   186   188   ar
   149   174   172   ar
   150   181   180   ar
   151     5     6    1
   152     5     2    1
   153   184   182   ar
   154     6     8   ar
   155    11    10   ar
   156     8    10   ar
   157     4     3    2
   158   188   187   ar
   159   166   164   ar
   160   166   165   ar
   161     3     2    1
   162   172   171    1
   163   172   173   ar
   164   164   162   ar
   165   180   182   ar
   166   180   179    1
   167     2     1    1
   168   182   185   ar
   169   157   158    1
   170   171   168    1
   171   187   185   ar
   172   165   163   ar
   173   179   176    1
   174   162   163   ar
   175   162   161    1
   176   167   168    1
   177   167   159   am
   178   168   169    1
   179   158   161    1
   180   158   159    1
   181   159   160    2
   182   169   175   am
   183   169   170    2
   184   175   176    1
   185   176   177    1
   186   177   178    2
