@<TRIPOS>MOLECULE
tmp/5w7tA00.pdb
 174 164 0 0 0
SMALL
GASTEIGER

@<TRIPOS>ATOM
      1  N         10.7510   18.5170   57.9690 N.3    22  ILE22      -0.1231
      2  CA        11.5850   17.4260   58.4180 C.3    22  ILE22       0.1692
      3  C         12.4250   16.8220   57.3020 C.2    22  ILE22       0.2593
      4  O         13.3990   16.1790   57.5890 O.2    22  ILE22      -0.2718
      5  CB        10.8340   16.3400   59.2030 C.3    22  ILE22       0.0266
      6  CG1        9.5840   15.9030   58.5130 C.3    22  ILE22       0.0019
      7  CG2       10.4720   16.8720   60.5950 C.3    22  ILE22       0.0020
      8  CD1        8.7650   14.9330   59.3360 C.3    22  ILE22       0.0001
      9  N         12.0890   17.0590   56.0380 N.am   23  GLY23      -0.1942
     10  CA        13.0260   16.7870   54.9670 C.3    23  GLY23       0.2014
     11  C         12.5140   17.2740   53.6450 C.2    23  GLY23       0.2639
     12  O         11.3520   17.6970   53.5370 O.2    23  GLY23      -0.2714
     13  N         13.3780   17.2150   52.6450 N.am   24  ARG24      -0.1963
     14  CA        13.0690   17.6500   51.3280 C.3    24  ARG24       0.1729
     15  C         13.9250   16.9400   50.2780 C.2    24  ARG24       0.2617
     16  O         15.1170   16.7630   50.4470 O.2    24  ARG24      -0.2715
     17  CB        13.3480   19.1210   51.2620 C.3    24  ARG24       0.0348
     18  CG        13.2510   19.6670   49.8620 C.3    24  ARG24       0.0492
     19  CD        13.4390   21.1570   49.8290 C.3    24  ARG24       0.2205
     20  NE        12.3460   21.8440   50.4950 N.pl3  24  ARG24      -0.0865
     21  CZ        12.3000   23.1590   50.7210 C.cat  24  ARG24       0.5346
     22  NH1       13.3050   23.9600   50.3280 N.pl3  24  ARG24       0.1354
     23  NH2       11.2500   23.6810   51.3510 N.pl3  24  ARG24       0.1354
     24  N         13.2920   16.5750   49.1760 N.am   25  GLY25      -0.1940
     25  CA        13.9420   15.9210   48.0570 C.3    25  GLY25       0.2014
     26  C         13.5140   16.6790   46.8190 C.2    25  GLY25       0.2640
     27  O         13.0300   17.7930   46.9040 O.2    25  GLY25      -0.2714
     28  N         13.6620   16.0630   45.6800 N.am   26  SER26      -0.1935
     29  CA        13.2770   16.7290   44.4310 C.3    26  SER26       0.2055
     30  C         11.8600   16.4350   44.0630 C.2    26  SER26       0.2643
     31  O         11.3470   17.0340   43.1430 O.2    26  SER26      -0.2714
     32  CB        14.2050   16.2860   43.3240 C.3    26  SER26       0.2130
     33  OG        14.1450   14.8730   43.2460 O.3    26  SER26      -0.2179
     34  N         11.2090   15.5150   44.7730 N.am   27  PHE27      -0.1959
     35  CA         9.7950   15.1760   44.5120 C.3    27  PHE27       0.1771
     36  C          8.7750   15.7080   45.5660 C.2    27  PHE27       0.2619
     37  O          7.6740   16.1660   45.1910 O.2    27  PHE27      -0.2715
     38  CB         9.7280   13.6890   44.2690 C.3    27  PHE27       0.0574
     39  CG         8.3450   13.1360   44.1970 C.ar   27  PHE27      -0.0200
     40  CD1        7.4990   13.4520   43.1060 C.ar   27  PHE27      -0.0042
     41  CD2        7.8410   12.3500   45.2570 C.ar   27  PHE27      -0.0042
     42  CE1        6.2360   12.9220   43.0610 C.ar   27  PHE27      -0.0003
     43  CE2        6.5510   11.8640   45.2050 C.ar   27  PHE27      -0.0003
     44  CZ         5.7590   12.1520   44.1100 C.ar   27  PHE27      -0.0000
     45  N          9.2150   15.8430   46.8120 N.am   28  LYS28      -0.1977
     46  CA         8.3770   15.8650   48.0270 C.3    28  LYS28       0.1596
     47  C          9.0250   16.8130   49.0410 C.2    28  LYS28       0.2287
     48  O         10.2410   16.7160   49.2380 O.2    28  LYS28      -0.2864
     49  CB         8.5310   14.4190   48.6170 C.3    28  LYS28       0.0298
     50  CG         7.5130   13.9060   49.5670 C.3    28  LYS28       0.0038
     51  CD         7.3780   12.3950   49.5200 C.3    28  LYS28       0.0206
     52  CE         8.4690   11.7060   50.3270 C.3    28  LYS28       0.1093
     53  NZ         8.9210   10.5450   49.5360 N.3    28  LYS28      -0.1314
     54  N          8.5780   17.2610   53.3220 N.3    30  VAL30      -0.1245
     55  CA         7.9540   16.5720   54.3970 C.3    30  VAL30       0.1561
     56  C          7.9420   17.4540   55.6460 C.2    30  VAL30       0.2260
     57  O          8.9740   17.9620   56.0660 O.2    30  VAL30      -0.2867
     58  CB         8.7010   15.2760   54.7110 C.3    30  VAL30       0.0252
     59  CG1        7.9310   14.4650   55.7490 C.3    30  VAL30       0.0019
     60  CG2        8.8280   14.4340   53.4300 C.3    30  VAL30       0.0019
     61  N          3.4840   12.2790   58.9280 N.3    43  ALA43      -0.1245
     62  CA         4.2390   12.9850   57.9740 C.3    43  ALA43       0.1562
     63  C          3.2610   13.5930   56.9330 C.2    43  ALA43       0.2260
     64  O          2.4730   12.8900   56.2720 O.2    43  ALA43      -0.2867
     65  CB         5.1910   12.0150   57.2980 C.3    43  ALA43       0.0290
     66  N          3.2790   15.4480   53.5930 N.3    45  CYS45      -0.1235
     67  CA         4.1560   15.6240   52.4610 C.3    45  CYS45       0.1677
     68  C          3.4970   16.4290   51.3390 C.2    45  CYS45       0.2270
     69  O          2.3540   16.1620   50.9700 O.2    45  CYS45      -0.2867
     70  CB         4.5170   14.2760   51.8700 C.3    45  CYS45       0.0956
     71  SG         4.9800   13.0550   53.0940 S.3    45  CYS45      -0.0801
     72  N          5.0310    1.2900   55.2680 N.3    76  VAL76      -0.1245
     73  CA         4.7120    2.6270   55.7860 C.3    76  VAL76       0.1561
     74  C          3.2480    2.8980   55.4540 C.2    76  VAL76       0.2260
     75  O          2.8230    2.7820   54.2970 O.2    76  VAL76      -0.2867
     76  CB         5.5960    3.6910   55.1630 C.3    76  VAL76       0.0252
     77  CG1        5.1740    5.1180   55.5700 C.3    76  VAL76       0.0019
     78  CG2        7.0750    3.4660   55.5320 C.3    76  VAL76       0.0019
     79  N          1.1840   10.3560   55.5790 N.3    96  THR96      -0.1203
     80  CA         1.6890    9.0180   55.8770 C.3    96  THR96       0.1994
     81  C          2.1760    8.8870   57.3000 C.2    96  THR96       0.2618
     82  O          2.3060    9.8340   58.0220 O.2    96  THR96      -0.2717
     83  CB         2.8420    8.6220   54.9060 C.3    96  THR96       0.1784
     84  OG1        3.9910    9.3840   55.1980 O.3    96  THR96      -0.2211
     85  CG2        2.4540    8.8930   53.4350 C.3    96  THR96       0.0376
     86  N          2.3940    7.6570   57.7090 N.am   97  GLU97      -0.1965
     87  CA         3.0810    7.3760   58.9520 C.3    97  GLU97       0.1733
     88  C          4.4130    8.1210   59.0190 C.2    97  GLU97       0.2616
     89  O          5.1570    8.2470   58.0350 O.2    97  GLU97      -0.2715
     90  CB         3.2490    5.8470   59.0270 C.3    97  GLU97       0.0429
     91  CG         3.8570    5.2670   60.2760 C.3    97  GLU97       0.1163
     92  CD         3.9460    3.7240   60.2160 C.2    97  GLU97       0.3649
     93  OE1        3.3980    3.0090   59.3110 O.co2  97  GLU97      -0.2457
     94  OE2        4.5800    3.1870   61.1270 O.co2  97  GLU97      -0.2457
     95  N          4.6800    8.7190   60.1620 N.am   98  LEU98      -0.1963
     96  CA         5.9300    9.4110   60.4120 C.3    98  LEU98       0.1728
     97  C          7.0380    8.4210   60.8090 C.2    98  LEU98       0.2616
     98  O          6.8750    7.6860   61.7840 O.2    98  LEU98      -0.2715
     99  CB         5.7810   10.4180   61.5850 C.3    98  LEU98       0.0311
    100  CG         6.8930   11.4160   61.8880 C.3    98  LEU98       0.0022
    101  CD1        7.0590   12.3420   60.7440 C.3    98  LEU98       0.0001
    102  CD2        6.5680   12.2220   63.1260 C.3    98  LEU98       0.0001
    103  N          8.1220    8.3970   60.0760 N.am   99  MET99      -0.1977
    104  CA         9.2420    7.5110   60.3770 C.3    99  MET99       0.1605
    105  C         10.3520    8.3540   61.0550 C.2    99  MET99       0.2287
    106  O         10.9120    9.2100   60.4460 O.2    99  MET99      -0.2864
    107  CB         9.7330    6.8780   59.0760 C.3    99  MET99       0.0413
    108  CG         8.6560    5.9880   58.3800 C.3    99  MET99       0.0598
    109  SD         7.8680    4.7370   59.4510 S.3    99  MET99      -0.1393
    110  CE         9.2560    3.8850   60.1820 C.3    99  MET99       0.0692
    111  N         14.9770    7.3880   60.2460 N.3   102  GLY102     -0.1210
    112  CA        15.6230    7.2840   58.9520 C.3   102  GLY102      0.1956
    113  C         15.5070    5.9530   58.2210 C.2   102  GLY102      0.2612
    114  O         14.6130    5.1540   58.4770 O.2   102  GLY102     -0.2717
    115  N         16.4610    5.7250   57.3180 N.am  103  THR103     -0.1952
    116  CA        16.3670    4.6250   56.3330 C.3   103  THR103      0.1897
    117  C         17.4650    3.6560   56.5060 C.2   103  THR103      0.2313
    118  O         18.3810    3.8860   57.3080 O.2   103  THR103     -0.2863
    119  CB        16.4190    5.1550   54.9260 C.3   103  THR103      0.1794
    120  OG1       17.6930    5.7710   54.6850 O.3   103  THR103     -0.2208
    121  CG2       15.3370    6.1370   54.7540 C.3   103  THR103      0.0378
    122  N         14.1270    0.6100   46.9840 N.3   146  LYS146     -0.1245
    123  CA        15.5580    0.8420   47.1950 C.3   146  LYS146      0.1561
    124  C         15.8460    1.2000   48.6520 C.2   146  LYS146      0.2260
    125  O         14.9190    1.4630   49.4360 O.2   146  LYS146     -0.2867
    126  CB        16.0320    1.9490   46.2830 C.3   146  LYS146      0.0271
    127  CG        15.1650    3.1540   46.4050 C.3   146  LYS146      0.0035
    128  CD        15.5100    4.1520   45.3420 C.3   146  LYS146      0.0206
    129  CE        14.6660    5.3750   45.5980 C.3   146  LYS146      0.1093
    130  NZ        15.1080    6.4100   44.6620 N.3   146  LYS146     -0.1314
    131  N         17.0790    3.6920   49.9940 N.3   148  ASP148     -0.1225
    132  CA        16.6430    5.0440   50.2930 C.3   148  ASP148      0.1805
    133  C         15.1470    5.1540   50.6880 C.2   148  ASP148      0.2597
    134  O         14.7560    6.1370   51.2990 O.2   148  ASP148     -0.2718
    135  CB        16.9120    5.9650   49.0860 C.3   148  ASP148      0.1424
    136  CG        18.1550    5.5210   48.2110 C.2   148  ASP148      0.3668
    137  OD1       18.2920    4.3190   47.7600 O.co2 148  ASP148     -0.2456
    138  OD2       19.0200    6.3780   47.9920 O.co2 148  ASP148     -0.2456
    139  N         14.2930    4.1940   50.3490 N.am  149  ASN149     -0.1974
    140  CA        12.8820    4.3290   50.7810 C.3   149  ASN149      0.1688
    141  C         12.4200    3.1870   51.6430 C.2   149  ASN149      0.2292
    142  O         11.2360    2.8860   51.6530 O.2   149  ASN149     -0.2864
    143  CB        11.9270    4.6360   49.5780 C.3   149  ASN149      0.1181
    144  CG        11.9790    3.5820   48.4980 C.2   149  ASN149      0.2629
    145  OD1       12.3550    2.4520   48.7640 O.2   149  ASN149     -0.2716
    146  ND2       11.5520    3.9270   47.2750 N.am  149  ASN149     -0.0877
    147  N         12.4830    2.2600   55.5370 N.3   151  PHE151     -0.1241
    148  CA        12.6530    3.0120   56.7820 C.3   151  PHE151      0.1605
    149  C         12.8060    2.0600   57.9840 C.2   151  PHE151      0.2264
    150  O         12.3720    0.9310   57.9130 O.2   151  PHE151     -0.2867
    151  CB        11.4160    3.8970   57.0210 C.3   151  PHE151      0.0534
    152  CG        11.3260    5.0450   56.0910 C.ar  151  PHE151     -0.0203
    153  CD1       10.7170    4.9010   54.8630 C.ar  151  PHE151     -0.0042
    154  CD2       11.9400    6.2630   56.4120 C.ar  151  PHE151     -0.0042
    155  CE1       10.6910    5.9490   53.9500 C.ar  151  PHE151     -0.0003
    156  CE2       11.8980    7.3320   55.5210 C.ar  151  PHE151     -0.0003
    157  CZ        11.2800    7.1790   54.2850 C.ar  151  PHE151     -0.0000
    158  N          7.1030    4.6310   50.0440 N.3   163  ASP163     -0.1239
    159  CA         6.8400    5.0750   48.6710 C.3   163  ASP163      0.1674
    160  C          5.9490    4.1360   47.8320 C.2   163  ASP163      0.2266
    161  O          5.9120    4.2360   46.5840 O.2   163  ASP163     -0.2867
    162  CB         8.1410    5.3660   47.8810 C.3   163  ASP163      0.1410
    163  CG         8.8650    6.6450   48.3010 C.2   163  ASP163      0.3668
    164  OD1        8.3720    7.4140   49.1720 O.co2 163  ASP163     -0.2456
    165  OD2        9.9850    6.8520   47.7100 O.co2 163  ASP163     -0.2456
    166  N          5.8760    9.9920   40.4530 N.3   170  LYS170     -0.1245
    167  CA         7.3080   10.4000   40.3390 C.3   170  LYS170      0.1561
    168  C          7.7540   10.5000   38.8850 C.2   170  LYS170      0.2260
    169  O          8.4940   11.3620   38.5420 O.2   170  LYS170     -0.2867
    170  CB         8.2690    9.4250   40.9930 C.3   170  LYS170      0.0271
    171  CG         8.3980    9.6050   42.4490 C.3   170  LYS170      0.0035
    172  CD         9.1500    8.4220   43.0320 C.3   170  LYS170      0.0206
    173  CE         8.6860    8.1230   44.4520 C.3   170  LYS170      0.1093
    174  NZ         9.3920    8.9700   45.4200 N.3   170  LYS170     -0.1314
@<TRIPOS>BOND
     1   169   168    2
     2   168   167    1
     3   167   166    1
     4   167   170    1
     5   170   171    1
     6   171   172    1
     7   172   173    1
     8    42    40   ar
     9    42    44   ar
    10    40    39   ar
    11    31    30    2
    12    33    32    1
    13    32    29    1
    14    30    29    1
    15    30    34   am
    16    44    43   ar
    17    39    38    1
    18    39    41   ar
    19    38    35    1
    20    29    28    1
    21   173   174    1
    22    35    34    1
    23    35    36    1
    24   130   129    1
    25    37    36    2
    26    43    41   ar
    27   128   129    1
    28   128   127    1
    29    36    45   am
    30    28    26   am
    31   126   127    1
    32   126   123    1
    33   161   160    2
    34    45    46    1
    35    26    27    2
    36    26    25    1
    37   122   123    1
    38   123   124    1
    39   146   144   am
    40   165   163   ar
    41   137   136   ar
    42   160   159    1
    43   162   163    1
    44   162   159    1
    45   138   136   ar
    46    46    49    1
    47    46    47    1
    48    25    24    1
    49   136   135    1
    50   163   164   ar
    51   144   145    2
    52   144   143    1
    53    49    50    1
    54   124   125    2
    55   159   158    1
    56    47    48    2
    57   135   132    1
    58    24    15   am
    59    51    50    1
    60    51    52    1
    61    53    52    1
    62   143   140    1
    63    19    18    1
    64    19    20    1
    65    18    17    1
    66   131   132    1
    67    15    16    2
    68    15    14    1
    69   132   133    1
    70    22    21    1
    71   139   133   am
    72   139   140    1
    73    20    21    2
    74   133   134    2
    75    21    23    1
    76   140   141    1
    77    69    68    2
    78    17    14    1
    79    14    13    1
    80    68    67    1
    81   141   142    2
    82    70    67    1
    83    70    71    1
    84    67    66    1
    85    13    11   am
    86    54    55    1
    87    60    58    1
    88    85    83    1
    89    12    11    2
    90    11    10    1
    91   155   157   ar
    92   155   153   ar
    93   157   156   ar
    94    75    74    2
    95    55    58    1
    96    55    56    1
    97   120   119    1
    98    58    59    1
    99   121   119    1
   100   153   152   ar
   101    83    84    1
   102    83    80    1
   103   119   116    1
   104    10     9    1
   105    76    78    1
   106    76    77    1
   107    76    73    1
   108    72    73    1
   109    74    73    1
   110   156   154   ar
   111   147   148    1
   112    79    80    1
   113    56    57    2
   114    80    81    1
   115     9     3   am
   116   152   154   ar
   117   152   151    1
   118    64    63    2
   119   116   117    1
   120   116   115    1
   121   117   118    2
   122   148   151    1
   123   148   149    1
   124    63    62    1
   125    65    62    1
   126    81    86   am
   127    81    82    2
   128     3     4    2
   129     3     2    1
   130   115   113   am
   131    86    87    1
   132   150   149    2
   133     1     2    1
   134    62    61    1
   135    89    88    2
   136   113   114    2
   137   113   112    1
   138   108   107    1
   139   108   109    1
   140     2     5    1
   141     6     5    1
   142     6     8    1
   143   112   111    1
   144    87    88    1
   145    87    90    1
   146    88    95   am
   147    90    91    1
   148   107   104    1
   149     5     7    1
   150    93    92   ar
   151   109   110    1
   152   103   104    1
   153   103    97   am
   154    95    96    1
   155    92    91    1
   156    92    94   ar
   157   104   105    1
   158    96    97    1
   159    96    99    1
   160   106   105    2
   161   101   100    1
   162    97    98    2
   163    99   100    1
   164   100   102    1
