@<TRIPOS>MOLECULE
tmp/5w7uA00.pdb
 172 161 0 0 0
SMALL
GASTEIGER

@<TRIPOS>ATOM
      1  N        133.8240  108.7210  276.6850 N.3    24  ALA24      -0.1231
      2  CA       133.9590  107.7130  277.7420 C.3    24  ALA24       0.1694
      3  C        133.2140  106.4250  277.3890 C.2    24  ALA24       0.2591
      4  O        133.7400  105.3240  277.5920 O.2    24  ALA24      -0.2718
      5  CB       133.4740  108.2730  279.0850 C.3    24  ALA24       0.0304
      6  N        131.9860  106.5340  276.8640 N.am   25  MET25      -0.1979
      7  CA       131.2310  105.3240  276.5340 C.3    25  MET25       0.1605
      8  C        131.9460  104.5270  275.4600 C.2    25  MET25       0.2287
      9  O        132.1140  103.3060  275.5840 O.2    25  MET25      -0.2864
     10  CB       129.8160  105.6650  276.0720 C.3    25  MET25       0.0413
     11  CG       128.9520  106.2740  277.1490 C.3    25  MET25       0.0598
     12  SD       127.2120  106.4150  276.6890 S.3    25  MET25      -0.1393
     13  CE       126.6620  104.6910  276.5920 C.3    25  MET25       0.0692
     14  N        135.0520  102.8020  276.7140 N.3    28  TYR28      -0.1241
     15  CA       134.7120  101.5770  277.4270 C.3    28  TYR28       0.1605
     16  C        133.8180  100.6480  276.6010 C.2    28  TYR28       0.2264
     17  O        133.2030   99.7300  277.1550 O.2    28  TYR28      -0.2867
     18  CB       134.0630  101.9140  278.7800 C.3    28  TYR28       0.0534
     19  CG       135.0540  102.4260  279.8310 C.ar   28  TYR28      -0.0201
     20  CD1      135.7170  101.5440  280.6910 C.ar   28  TYR28      -0.0009
     21  CD2      135.3260  103.7910  279.9610 C.ar   28  TYR28      -0.0009
     22  CE1      136.6270  102.0070  281.6450 C.ar   28  TYR28       0.0417
     23  CE2      136.2360  104.2590  280.9030 C.ar   28  TYR28       0.0417
     24  CZ       136.8790  103.3650  281.7430 C.ar   28  TYR28       0.1957
     25  OH       137.7750  103.8410  282.6770 O.3    28  TYR28      -0.2866
     26  N        130.9570  101.1020  274.6980 N.3    30  GLU30      -0.1245
     27  CA       129.5090  101.2470  274.6370 C.3    30  GLU30       0.1567
     28  C        129.1040  102.3400  273.6510 C.2    30  GLU30       0.2260
     29  O        129.8680  103.2670  273.3670 O.2    30  GLU30      -0.2867
     30  CB       128.9340  101.5520  276.0140 C.3    30  GLU30       0.0388
     31  CG       128.5200  100.3140  276.7480 C.3    30  GLU30       0.1160
     32  CD       128.3820  100.5680  278.2200 C.2    30  GLU30       0.3649
     33  OE1      127.8110   99.7000  278.9160 O.co2  30  GLU30      -0.2457
     34  OE2      128.8410  101.6440  278.6720 O.co2  30  GLU30      -0.2457
     35  N        121.7280  104.9220  279.5700 N.3    38  LYS38      -0.1245
     36  CA       123.0290  105.0640  280.2180 C.3    38  LYS38       0.1561
     37  C        123.7510  106.3230  279.7440 C.2    38  LYS38       0.2260
     38  O        124.4480  106.9770  280.5320 O.2    38  LYS38      -0.2867
     39  CB       123.8720  103.8150  279.9570 C.3    38  LYS38       0.0271
     40  CG       125.2810  103.9030  280.5040 C.3    38  LYS38       0.0035
     41  CD       126.0630  102.6300  280.2510 C.3    38  LYS38       0.0206
     42  CE       126.4610  102.0010  281.5800 C.3    38  LYS38       0.1093
     43  NZ       127.6160  101.0670  281.4350 N.3    38  LYS38      -0.1314
     44  N        122.4910  108.9960  281.8530 N.3    41  ALA41      -0.1231
     45  CA       123.0320  108.8540  283.2000 C.3    41  ALA41       0.1694
     46  C        124.4450  109.4080  283.2840 C.2    41  ALA41       0.2591
     47  O        124.7770  110.1500  284.2190 O.2    41  ALA41      -0.2718
     48  CB       123.0090  107.3770  283.6030 C.3    41  ALA41       0.0304
     49  N        125.2850  109.0840  282.2880 N.am   42  ILE42      -0.1980
     50  CA       126.6810  109.5060  282.3300 C.3    42  ILE42       0.1595
     51  C        126.7810  111.0220  282.2720 C.2    42  ILE42       0.2287
     52  O        127.5610  111.6310  283.0150 O.2    42  ILE42      -0.2864
     53  CB       127.4850  108.8210  281.2070 C.3    42  ILE42       0.0276
     54  CG1      127.6770  107.3510  281.5620 C.3    42  ILE42       0.0022
     55  CG2      128.8430  109.4740  281.0200 C.3    42  ILE42       0.0022
     56  CD1      127.8170  106.4670  280.3610 C.3    42  ILE42       0.0001
     57  N        125.6560  112.3910  285.7330 N.3    45  HIS45      -0.1241
     58  CA       126.7640  112.2270  286.6700 C.3    45  HIS45       0.1621
     59  C        127.8840  113.2050  286.3470 C.2    45  HIS45       0.2264
     60  O        128.4210  113.8830  287.2380 O.2    45  HIS45      -0.2867
     61  CB       127.2670  110.7820  286.6080 C.3    45  HIS45       0.0745
     62  CG       128.3930  110.4800  287.5480 C.ar   45  HIS45       0.0817
     63  ND1      129.7180  110.6260  287.1910 N.ar   45  HIS45      -0.2268
     64  CD2      128.3960  109.9640  288.8020 C.ar   45  HIS45       0.1154
     65  CE1      130.4870  110.2620  288.2020 C.ar   45  HIS45       0.1986
     66  NE2      129.7100  109.8490  289.1890 N.ar   45  HIS45      -0.2212
     67  N        136.8810  112.3750  286.9760 N.3    65  GLU65      -0.1245
     68  CA       135.8870  111.9100  286.0250 C.3    65  GLU65       0.1567
     69  C        135.9450  112.7810  284.7800 C.2    65  GLU65       0.2260
     70  O        136.3090  113.9580  284.8460 O.2    65  GLU65      -0.2867
     71  CB       134.4970  111.9590  286.6700 C.3    65  GLU65       0.0388
     72  CG       133.3470  111.2540  285.9390 C.3    65  GLU65       0.1160
     73  CD       133.6130  109.7810  285.6770 C.2    65  GLU65       0.3649
     74  OE1      134.3890  109.4490  284.7390 O.co2  65  GLU65      -0.2457
     75  OE2      133.0580  108.9600  286.4300 O.co2  65  GLU65      -0.2457
     76  N        138.8590  104.0770  289.9190 N.3    91  LEU91      -0.1231
     77  CA       138.8990  105.5080  289.6640 C.3    91  LEU91       0.1678
     78  C        137.8300  106.2320  290.4780 C.2    91  LEU91       0.2434
     79  O        136.6360  105.9030  290.3640 O.2    91  LEU91      -0.2733
     80  CB       138.7030  105.8040  288.1840 C.3    91  LEU91       0.0284
     81  CG       139.9620  105.8310  287.3160 C.3    91  LEU91       0.0019
     82  CD1      139.6190  106.2310  285.8940 C.3    91  LEU91       0.0001
     83  CD2      140.9860  106.7960  287.8920 C.3    91  LEU91       0.0001
     84  N        138.1950  107.2030  291.2870 N.am   92  PRO92      -0.2718
     85  CA       137.1670  108.0560  291.8810 C.3    92  PRO92       0.1535
     86  C        136.8030  109.1650  290.9100 C.2    92  PRO92       0.2598
     87  O        137.2310  109.1620  289.7390 O.2    92  PRO92      -0.2715
     88  CB       137.8420  108.5770  293.1580 C.3    92  PRO92       0.0310
     89  CG       139.3090  108.6330  292.7930 C.3    92  PRO92       0.0237
     90  CD       139.5550  107.6040  291.6960 C.3    92  PRO92       0.0939
     91  N        136.0040  110.1140  291.3950 N.am   93  ASP93      -0.1972
     92  CA       135.5200  111.2280  290.5880 C.3    93  ASP93       0.1709
     93  C        136.2230  112.5460  290.8600 C.2    93  ASP93       0.2293
     94  O        136.4980  113.2930  289.9160 O.2    93  ASP93      -0.2864
     95  CB       134.0140  111.4020  290.8000 C.3    93  ASP93       0.1436
     96  CG       133.2430  110.1910  290.3760 C.2    93  ASP93       0.3671
     97  OD1      133.3880  109.8030  289.2000 O.co2  93  ASP93      -0.2456
     98  OD2      132.4840  109.6560  291.1950 O.co2  93  ASP93      -0.2456
     99  N        133.8630  109.9160  295.6650 N.3   104  GLU104     -0.1231
    100  CA       133.0440  109.1730  294.7120 C.3   104  GLU104      0.1699
    101  C        131.6510  109.7850  294.7020 C.2   104  GLU104      0.2592
    102  O        130.9300  109.7220  295.7120 O.2   104  GLU104     -0.2718
    103  CB       132.9610  107.6830  295.0620 C.3   104  GLU104      0.0402
    104  CG       133.2290  106.8280  293.8250 C.3   104  GLU104      0.1161
    105  CD       132.1240  106.9220  292.7920 C.2   104  GLU104      0.3649
    106  OE1      132.4280  106.8180  291.6080 O.co2 104  GLU104     -0.2457
    107  OE2      130.9440  107.0610  293.1670 O.co2 104  GLU104     -0.2457
    108  N        131.2830  110.3920  293.5710 N.am  105  ILE105     -0.1980
    109  CA       129.9600  110.9880  293.4070 C.3   105  ILE105      0.1595
    110  C        129.0150  109.9210  292.9060 C.2   105  ILE105      0.2287
    111  O        129.3900  109.0890  292.0670 O.2   105  ILE105     -0.2864
    112  CB       129.9960  112.1870  292.4400 C.3   105  ILE105      0.0276
    113  CG1      130.8680  113.3020  293.0090 C.3   105  ILE105      0.0022
    114  CG2      128.5760  112.6620  292.0680 C.3   105  ILE105      0.0022
    115  CD1      130.2520  114.0850  294.0860 C.3   105  ILE105      0.0001
    116  N        124.7940  109.2500  291.6260 N.3   107  VAL107     -0.1245
    117  CA       123.5350  109.8320  291.1670 C.3   107  VAL107      0.1561
    118  C        122.6060  108.6590  290.8680 C.2   107  VAL107      0.2260
    119  O        122.7170  108.0220  289.8130 O.2   107  VAL107     -0.2867
    120  CB       123.7100  110.7380  289.9390 C.3   107  VAL107      0.0252
    121  CG1      122.3590  111.3020  289.5190 C.3   107  VAL107      0.0019
    122  CG2      124.7060  111.8790  290.2230 C.3   107  VAL107      0.0019
    123  N        118.7550  106.6550  290.6720 N.3   109  ARG109     -0.1245
    124  CA       117.3060  106.6730  290.5470 C.3   109  ARG109      0.1563
    125  C        116.6530  105.8160  291.6100 C.2   109  ARG109      0.2260
    126  O        115.5520  106.1400  292.0710 O.2   109  ARG109     -0.2867
    127  CB       116.8770  106.1740  289.1650 C.3   109  ARG109      0.0307
    128  CG       117.3260  107.0420  288.0180 C.3   109  ARG109      0.0489
    129  CD       117.8200  106.1880  286.8660 C.3   109  ARG109      0.2205
    130  NE       119.2660  105.9880  286.9100 N.pl3 109  ARG109     -0.0865
    131  CZ       119.9840  105.4830  285.9120 C.cat 109  ARG109      0.5346
    132  NH1      119.3940  105.1110  284.7830 N.pl3 109  ARG109      0.1354
    133  NH2      121.2960  105.3410  286.0490 N.pl3 109  ARG109      0.1354
    134  N        121.7540  102.4390  297.3330 N.3   115  TYR115     -0.1241
    135  CA       122.8230  102.8250  296.4190 C.3   115  TYR115      0.1605
    136  C        124.1390  103.0290  297.1590 C.2   115  TYR115      0.2264
    137  O        125.1950  102.5940  296.6800 O.2   115  TYR115     -0.2867
    138  CB       122.4280  104.0990  295.6750 C.3   115  TYR115      0.0534
    139  CG       123.1990  104.3690  294.4010 C.ar  115  TYR115     -0.0201
    140  CD1      123.2400  103.4290  293.3760 C.ar  115  TYR115     -0.0009
    141  CD2      123.8430  105.5750  294.2020 C.ar  115  TYR115     -0.0009
    142  CE1      123.9180  103.6760  292.1990 C.ar  115  TYR115      0.0417
    143  CE2      124.5150  105.8350  293.0300 C.ar  115  TYR115      0.0417
    144  CZ       124.5570  104.8860  292.0310 C.ar  115  TYR115      0.1957
    145  OH       125.2330  105.1430  290.8570 O.3   115  TYR115     -0.2866
    146  N        127.5660  101.0360  296.5300 N.3   119  LYS119     -0.1245
    147  CA       128.8210  101.7340  296.2710 C.3   119  LYS119      0.1561
    148  C        129.8420  101.5290  297.3850 C.2   119  LYS119      0.2260
    149  O        131.0430  101.6070  297.1230 O.2   119  LYS119     -0.2867
    150  CB       128.5980  103.2350  296.0260 C.3   119  LYS119      0.0271
    151  CG       128.1760  103.5420  294.5730 C.3   119  LYS119      0.0035
    152  CD       129.2910  104.2190  293.7710 C.3   119  LYS119      0.0206
    153  CE       128.8160  104.7870  292.4140 C.3   119  LYS119      0.1093
    154  NZ       127.4200  105.3340  292.3550 N.3   119  LYS119     -0.1314
    155  N        132.1490   98.2010  296.8050 N.3   122  LYS122     -0.1245
    156  CA       133.3090   98.3680  295.9310 C.3   122  LYS122      0.1561
    157  C        134.4800   99.0320  296.6500 C.2   122  LYS122      0.2260
    158  O        135.6130   98.9570  296.1590 O.2   122  LYS122     -0.2867
    159  CB       132.9300   99.1740  294.6850 C.3   122  LYS122      0.0271
    160  CG       131.7160   98.6090  294.0120 C.3   122  LYS122      0.0035
    161  CD       131.5490   99.1530  292.6320 C.3   122  LYS122      0.0206
    162  CE       130.1870   98.7550  292.1110 C.3   122  LYS122      0.1093
    163  NZ       129.1110   99.2400  293.0710 N.3   122  LYS122     -0.1314
    164  N        118.0720  101.5600  285.4820 N.3   178  GLU178     -0.1245
    165  CA       119.1850  101.3920  286.4140 C.3   178  GLU178      0.1567
    166  C        119.2290   99.9940  287.0350 C.2   178  GLU178      0.2260
    167  O        118.1940   99.4190  287.3760 O.2   178  GLU178     -0.2867
    168  CB       119.1040  102.4500  287.5160 C.3   178  GLU178      0.0388
    169  CG       120.0900  102.2360  288.6470 C.3   178  GLU178      0.1160
    170  CD       120.3130  103.4950  289.4560 C.2   178  GLU178      0.3649
    171  OE1      119.9940  104.5860  288.9430 O.co2 178  GLU178     -0.2457
    172  OE2      120.8010  103.3960  290.6020 O.co2 178  GLU178     -0.2457
@<TRIPOS>BOND
     1    29    28    2
     2    28    27    1
     3    27    26    1
     4    27    30    1
     5     8     9    2
     6     8     7    1
     7    30    31    1
     8    10     7    1
     9    10    11    1
    10     7     6    1
    11    13    12    1
    12    16    17    2
    13    16    15    1
    14     1     2    1
    15    12    11    1
    16    14    15    1
    17    31    32    1
    18     6     3   am
    19     3     4    2
    20     3     2    1
    21    15    18    1
    22     2     5    1
    23    32    34   ar
    24    32    33   ar
    25    18    19    1
    26    35    36    1
    27    37    36    1
    28    37    38    2
    29    19    21   ar
    30    19    20   ar
    31    39    36    1
    32    39    40    1
    33    21    23   ar
    34    41    40    1
    35    41    42    1
    36    56    54    1
    37    20    22   ar
    38    23    24   ar
    39    55    53    1
    40    53    54    1
    41    53    50    1
    42    43    42    1
    43    22    24   ar
    44    24    25    1
    45    44    45    1
    46    51    50    1
    47    51    52    2
    48    49    50    1
    49    49    46   am
    50    45    46    1
    51    45    48    1
    52    46    47    2
    53    74    73   ar
    54    69    70    2
    55    69    68    1
    56   132   131    1
    57   164   165    1
    58    73    72    1
    59    73    75   ar
    60    57    58    1
    61    82    81    1
    62   131   133    1
    63   131   130    2
    64    72    71    1
    65    68    71    1
    66    68    67    1
    67    59    58    1
    68    59    60    2
    69   165   166    1
    70   165   168    1
    71    61    58    1
    72    61    62    1
    73   129   130    1
    74   129   128    1
    75   166   167    2
    76    63    62   ar
    77    63    65   ar
    78    81    83    1
    79    81    80    1
    80   168   169    1
    81    62    64   ar
    82   128   127    1
    83    80    77    1
    84    65    66   ar
    85   169   170    1
    86    64    66   ar
    87   171   170   ar
    88   127   124    1
    89    97    96   ar
    90   170   172   ar
    91   121   120    1
    92    77    76    1
    93    77    78    1
    94    87    86    2
    95   119   118    2
    96    94    93    2
    97   120   122    1
    98   120   117    1
    99    79    78    2
   100    96    95    1
   101    96    98   ar
   102    78    84   am
   103   124   123    1
   104   124   125    1
   105    92    95    1
   106    92    93    1
   107    92    91    1
   108   145   144    1
   109   118   117    1
   110    86    91   am
   111    86    85    1
   112   117   116    1
   113    84    90    1
   114    84    85    1
   115   106   105   ar
   116   125   126    2
   117    90    89    1
   118    85    88    1
   119   144   142   ar
   120   144   143   ar
   121   111   110    2
   122   114   112    1
   123   162   161    1
   124   162   163    1
   125   142   140   ar
   126   154   153    1
   127   153   152    1
   128   112   113    1
   129   112   109    1
   130   161   160    1
   131   105   107   ar
   132   105   104    1
   133    89    88    1
   134   110   109    1
   135   113   115    1
   136   143   141   ar
   137   140   139   ar
   138   109   108    1
   139   108   101   am
   140   152   151    1
   141   104   103    1
   142   160   159    1
   143   141   139   ar
   144   139   138    1
   145   151   150    1
   146   159   156    1
   147   101   100    1
   148   101   102    2
   149   100   103    1
   150   100    99    1
   151   138   135    1
   152   156   157    1
   153   156   155    1
   154   150   147    1
   155   158   157    2
   156   147   146    1
   157   147   148    1
   158   135   136    1
   159   135   134    1
   160   137   136    2
   161   149   148    2
