@<TRIPOS>MOLECULE
tmp/5w7zA00.pdb
 108 105 0 0 0
SMALL
GASTEIGER

@<TRIPOS>ATOM
      1  N         -3.6570  -10.5060   43.7500 N.3   156  LEU156     -0.1245
      2  CA        -2.4160   -9.7620   43.6000 C.3   156  LEU156      0.1561
      3  C         -2.0330   -9.6080   42.1400 C.2   156  LEU156      0.2260
      4  O         -1.0460   -8.9320   41.8300 O.2   156  LEU156     -0.2867
      5  CB        -1.2690  -10.4460   44.3560 C.3   156  LEU156      0.0270
      6  CG        -1.4460  -10.7120   45.8460 C.3   156  LEU156      0.0019
      7  CD1       -0.1020  -11.1090   46.4400 C.3   156  LEU156      0.0001
      8  CD2       -1.9890   -9.4770   46.5200 C.3   156  LEU156      0.0001
      9  N          1.2970   -5.2620   44.7320 N.3   173  THR173     -0.1218
     10  CA         2.2090   -6.0370   45.5540 C.3   173  THR173      0.1862
     11  C          2.2730   -7.4600   45.0230 C.2   173  THR173      0.2287
     12  O          1.3030   -7.9760   44.4590 O.2   173  THR173     -0.2866
     13  CB         1.7860   -6.0300   47.0300 C.3   173  THR173      0.1770
     14  OG1        2.7910   -6.6670   47.8190 O.3   173  THR173     -0.2211
     15  CG2        0.4710   -6.7660   47.2370 C.3   173  THR173      0.0375
     16  N          3.9100   -9.6940   47.3280 N.3   175  GLY175     -0.1210
     17  CA         4.3590  -10.3080   48.5540 C.3   175  GLY175      0.1956
     18  C          5.7770   -9.9580   48.9670 C.2   175  GLY175      0.2612
     19  O          6.1320  -10.1660   50.1310 O.2   175  GLY175     -0.2717
     20  N          6.5990   -9.4510   48.0400 N.am  176  HIS176     -0.1961
     21  CA         7.9770   -9.0600   48.3180 C.3   176  HIS176      0.1787
     22  C          8.1740   -7.5560   48.3580 C.2   176  HIS176      0.2620
     23  O          9.1400   -7.0860   48.9710 O.2   176  HIS176     -0.2715
     24  CB         8.9170   -9.6310   47.2430 C.3   176  HIS176      0.0785
     25  CG         8.7710  -11.1010   47.0380 C.ar  176  HIS176      0.0821
     26  ND1        9.0560  -12.0200   48.0220 N.ar  176  HIS176     -0.2267
     27  CD2        8.3740  -11.8130   45.9570 C.ar  176  HIS176      0.1154
     28  CE1        8.8410  -13.2380   47.5560 C.ar  176  HIS176      0.1986
     29  NE2        8.4260  -13.1380   46.3050 N.ar  176  HIS176     -0.2212
     30  N          7.3000   -6.8040   47.7020 N.am  177  ARG177     -0.1963
     31  CA         7.3930   -5.3560   47.6430 C.3   177  ARG177      0.1729
     32  C          5.9940   -4.8010   47.4640 C.2   177  ARG177      0.2616
     33  O          5.0790   -5.5020   47.0250 O.2   177  ARG177     -0.2715
     34  CB         8.2860   -4.8740   46.4910 C.3   177  ARG177      0.0348
     35  CG         7.7960   -5.3280   45.0980 C.3   177  ARG177      0.0492
     36  CD         8.8340   -6.2820   44.5230 C.3   177  ARG177      0.2205
     37  NE         8.4780   -6.8720   43.2230 N.pl3 177  ARG177     -0.0865
     38  CZ         8.7810   -6.3480   42.0340 C.cat 177  ARG177      0.5346
     39  NH1        9.4100   -5.1790   41.9360 N.pl3 177  ARG177      0.1354
     40  NH2        8.4610   -7.0050   40.9310 N.pl3 177  ARG177      0.1354
     41  N          5.8530   -3.5190   47.7870 N.am  178  LEU178     -0.1977
     42  CA         4.5990   -2.7930   47.6520 C.3   178  LEU178      0.1596
     43  C          4.8800   -1.4670   46.9580 C.2   178  LEU178      0.2287
     44  O          5.8510   -0.7850   47.2920 O.2   178  LEU178     -0.2864
     45  CB         3.9890   -2.5560   49.0460 C.3   178  LEU178      0.0297
     46  CG         2.8130   -1.5880   49.1700 C.3   178  LEU178      0.0022
     47  CD1        1.5610   -2.2170   48.5830 C.3   178  LEU178      0.0001
     48  CD2        2.6040   -1.2710   50.6480 C.3   178  LEU178      0.0001
     49  N         -5.2770   -6.9170   49.2170 N.3   247  PRO247     -0.2102
     50  CA        -5.0280   -6.9100   50.6610 C.3   247  PRO247      0.1504
     51  C         -4.9880   -5.5060   51.2280 C.2   247  PRO247      0.2576
     52  O         -4.6590   -4.5340   50.5490 O.2   247  PRO247     -0.2718
     53  CB        -3.6620   -7.5990   50.7940 C.3   247  PRO247      0.0282
     54  CG        -3.0150   -7.4390   49.4840 C.3   247  PRO247      0.0208
     55  CD        -4.1400   -7.4820   48.4730 C.3   247  PRO247      0.0893
     56  N         -5.3430   -5.4170   52.5060 N.am  248  ASP248     -0.1960
     57  CA        -5.1610   -4.2010   53.2800 C.3   248  ASP248      0.1840
     58  C         -3.6690   -3.9200   53.3830 C.2   248  ASP248      0.2622
     59  O         -2.9470   -4.7000   54.0110 O.2   248  ASP248     -0.2715
     60  CB        -5.7830   -4.3980   54.6660 C.3   248  ASP248      0.1450
     61  CG        -5.8470   -3.1280   55.4730 C.2   248  ASP248      0.3671
     62  OD1       -6.9690   -2.6080   55.6450 O.co2 248  ASP248     -0.2456
     63  OD2       -4.7870   -2.6610   55.9460 O.co2 248  ASP248     -0.2456
     64  N         -3.1900   -2.8270   52.7840 N.am  249  TYR249     -0.1974
     65  CA        -1.7550   -2.6170   52.6340 C.3   249  TYR249      0.1639
     66  C         -1.1840   -1.4640   53.4490 C.2   249  TYR249      0.2290
     67  O          0.0380   -1.4020   53.6110 O.2   249  TYR249     -0.2864
     68  CB        -1.4050   -2.3650   51.1560 C.3   249  TYR249      0.0560
     69  CG        -2.0440   -1.1070   50.5980 C.ar  249  TYR249     -0.0198
     70  CD1       -1.4660    0.1410   50.8010 C.ar  249  TYR249     -0.0009
     71  CD2       -3.2330   -1.1670   49.8760 C.ar  249  TYR249     -0.0009
     72  CE1       -2.0480    1.2990   50.3040 C.ar  249  TYR249      0.0417
     73  CE2       -3.8240   -0.0120   49.3740 C.ar  249  TYR249      0.0417
     74  CZ        -3.2280    1.2150   49.5870 C.ar  249  TYR249      0.1957
     75  OH        -3.8100    2.3780   49.1130 O.3   249  TYR249     -0.2866
     76  N          1.5850   -1.7930   56.0810 N.3   252  PHE252     -0.1241
     77  CA         2.8810   -2.3470   55.7170 C.3   252  PHE252      0.1605
     78  C          3.8890   -1.2730   55.3350 C.2   252  PHE252      0.2264
     79  O          5.0510   -1.5970   55.0510 O.2   252  PHE252     -0.2867
     80  CB         2.6960   -3.3820   54.6030 C.3   252  PHE252      0.0534
     81  CG         1.9320   -4.5970   55.0650 C.ar  252  PHE252     -0.0203
     82  CD1        2.5690   -5.5890   55.7990 C.ar  252  PHE252     -0.0042
     83  CD2        0.5690   -4.7140   54.8330 C.ar  252  PHE252     -0.0042
     84  CE1        1.8710   -6.6960   56.2560 C.ar  252  PHE252     -0.0003
     85  CE2       -0.1370   -5.8220   55.2850 C.ar  252  PHE252     -0.0003
     86  CZ         0.5130   -6.8110   55.9980 C.ar  252  PHE252     -0.0000
     87  N         11.8240   -4.1810   56.0400 N.3   360  PRO360     -0.2116
     88  CA        11.7730   -3.6420   54.6750 C.3   360  PRO360      0.1372
     89  C         12.3540   -2.2380   54.6020 C.2   360  PRO360      0.2244
     90  O         12.4360   -1.5130   55.5970 O.2   360  PRO360     -0.2868
     91  CB        10.2740   -3.6400   54.3470 C.3   360  PRO360      0.0268
     92  CG         9.5930   -3.6490   55.6530 C.3   360  PRO360      0.0207
     93  CD        10.4870   -4.4300   56.5940 C.3   360  PRO360      0.0892
     94  N          7.8920    0.1310   49.0680 N.3   374  VAL374     -0.1245
     95  CA         8.3810   -0.6480   50.2040 C.3   374  VAL374      0.1561
     96  C          8.9310   -1.9570   49.6570 C.2   374  VAL374      0.2260
     97  O          8.2390   -2.6470   48.9070 O.2   374  VAL374     -0.2867
     98  CB         7.2590   -0.9260   51.2230 C.3   374  VAL374      0.0252
     99  CG1        7.8180   -1.6490   52.4420 C.3   374  VAL374      0.0019
    100  CG2        6.5690    0.3760   51.6490 C.3   374  VAL374      0.0019
    101  N         10.9650   -5.6390   50.7140 N.3   376  MET376     -0.1245
    102  CA        11.5030   -6.5270   51.7360 C.3   376  MET376      0.1570
    103  C         12.9430   -6.9080   51.3910 C.2   376  MET376      0.2261
    104  O         13.2880   -7.0610   50.2110 O.2   376  MET376     -0.2867
    105  CB        10.6490   -7.7920   51.8670 C.3   376  MET376      0.0387
    106  CG         9.2670   -7.5780   52.4910 C.3   376  MET376      0.0595
    107  SD         8.2880   -9.1000   52.5830 S.3   376  MET376     -0.1393
    108  CE         9.2200  -10.0290   53.7960 C.3   376  MET376      0.0692
@<TRIPOS>BOND
     1    40    38    1
     2     4     3    2
     3    39    38    1
     4    38    37    2
     5     3     2    1
     6    37    36    1
     7     2     1    1
     8     2     5    1
     9     5     6    1
    10    12    11    2
    11    36    35    1
    12     9    10    1
    13    11    10    1
    14    35    34    1
    15    10    13    1
    16     6     7    1
    17     6     8    1
    18    27    29   ar
    19    27    25   ar
    20    29    28   ar
    21    34    31    1
    22    43    44    2
    23    43    42    1
    24    33    32    2
    25    13    15    1
    26    13    14    1
    27    25    24    1
    28    25    26   ar
    29    24    21    1
    30    16    17    1
    31    32    31    1
    32    32    41   am
    33    28    26   ar
    34    31    30    1
    35    42    41    1
    36    42    45    1
    37    30    22   am
    38    20    21    1
    39    20    18   am
    40    21    22    1
    41    22    23    2
    42    55    49    1
    43    55    54    1
    44    17    18    1
    45    47    46    1
    46    97    96    2
    47    18    19    2
    48    45    46    1
    49    94    95    1
    50    75    74    1
    51    46    48    1
    52    49    50    1
    53    73    74   ar
    54    73    71   ar
    55    54    53    1
    56    74    72   ar
    57    96    95    1
    58    71    69   ar
    59    95    98    1
    60   104   103    2
    61    72    70   ar
    62    52    51    2
    63    69    70   ar
    64    69    68    1
    65    50    53    1
    66    50    51    1
    67   101   102    1
    68    68    65    1
    69    98   100    1
    70    98    99    1
    71    51    56   am
    72   103   102    1
    73   102   105    1
    74   105   106    1
    75   106   107    1
    76    56    57    1
    77   107   108    1
    78    65    64    1
    79    65    66    1
    80    64    58   am
    81    57    58    1
    82    57    60    1
    83    58    59    2
    84    66    67    2
    85    91    88    1
    86    91    92    1
    87    89    88    1
    88    89    90    2
    89    80    81    1
    90    80    77    1
    91    60    61    1
    92    88    87    1
    93    83    81   ar
    94    83    85   ar
    95    79    78    2
    96    81    82   ar
    97    85    86   ar
    98    78    77    1
    99    61    62   ar
   100    61    63   ar
   101    92    93    1
   102    77    76    1
   103    82    84   ar
   104    86    84   ar
   105    87    93    1
