@<TRIPOS>MOLECULE
tmp/5w80A00.pdb
 148 136 0 0 0
SMALL
GASTEIGER

@<TRIPOS>ATOM
      1  N         -3.2970  -14.5390   99.5100 N.3    14  LEU14      -0.1231
      2  CA        -3.4540  -14.9840   98.1280 C.3    14  LEU14       0.1693
      3  C         -3.6530  -13.7870   97.1640 C.2    14  LEU14       0.2593
      4  O         -3.4030  -13.9410   95.9730 O.2    14  LEU14      -0.2718
      5  CB        -4.6180  -15.9720   97.9980 C.3    14  LEU14       0.0284
      6  CG        -4.3790  -17.3660   98.6020 C.3    14  LEU14       0.0019
      7  CD1       -5.6430  -18.1980   98.5560 C.3    14  LEU14       0.0001
      8  CD2       -3.2230  -18.1090   97.8800 C.3    14  LEU14       0.0001
      9  N         -4.0540  -12.6230   97.6770 N.am   15  GLY15      -0.1942
     10  CA        -4.2170  -11.4210   96.8690 C.3    15  GLY15       0.2014
     11  C         -5.5780  -10.7720   96.9770 C.2    15  GLY15       0.2639
     12  O         -6.5060  -11.3290   97.5630 O.2    15  GLY15      -0.2714
     13  N         -5.7040   -9.5950   96.3760 N.am   16  LYS16      -0.1963
     14  CA        -6.9330   -8.8240   96.3990 C.3    16  LYS16       0.1728
     15  C         -7.8820   -9.3100   95.3120 C.2    16  LYS16       0.2616
     16  O         -7.4590   -9.5750   94.1860 O.2    16  LYS16      -0.2715
     17  CB        -6.6190   -7.3270   96.2190 C.3    16  LYS16       0.0311
     18  CG        -7.8230   -6.3870   96.3770 C.3    16  LYS16       0.0038
     19  CD        -8.3780   -6.3550   97.7970 C.3    16  LYS16       0.0206
     20  CE        -9.4970   -5.3510   97.9800 C.3    16  LYS16       0.1093
     21  NZ       -10.6690   -5.6480   97.1250 N.3    16  LYS16      -0.1314
     22  N         -9.1560   -9.4270   95.6660 N.am   17  GLY17      -0.1955
     23  CA       -10.2050   -9.8190   94.7430 C.3    17  GLY17       0.1869
     24  C        -11.3760   -8.8830   94.8510 C.2    17  GLY17       0.2309
     25  O        -11.3340   -7.9400   95.6460 O.2    17  GLY17      -0.2863
     26  N         -8.1240  -11.9830   99.8220 N.3    22  VAL22      -0.1245
     27  CA        -8.2380  -13.4330   99.8100 C.3    22  VAL22       0.1561
     28  C         -7.0270  -13.9890  100.5310 C.2    22  VAL22       0.2260
     29  O         -5.9020  -13.6000  100.2310 O.2    22  VAL22      -0.2867
     30  CB        -8.3860  -13.9780   98.3850 C.3    22  VAL22       0.0252
     31  CG1       -8.5800  -15.5000   98.4070 C.3    22  VAL22       0.0019
     32  CG2       -9.5500  -13.2910   97.6800 C.3    22  VAL22       0.0019
     33  N         -9.3940  -21.1840  100.4040 N.3    35  ALA35      -0.1245
     34  CA        -9.1950  -19.7820  100.0320 C.3    35  ALA35       0.1562
     35  C        -10.3540  -19.0520  100.7000 C.2    35  ALA35       0.2260
     36  O        -11.4960  -19.5190  100.6160 O.2    35  ALA35      -0.2867
     37  CB        -9.2510  -19.6150   98.5190 C.3    35  ALA35       0.0290
     38  N        -12.3060  -15.4140  101.2850 N.3    37  LYS37      -0.1245
     39  CA       -12.4770  -14.0170  100.9310 C.3    37  LYS37       0.1561
     40  C        -13.0830  -13.3090  102.1180 C.2    37  LYS37       0.2260
     41  O        -14.1600  -13.6910  102.5810 O.2    37  LYS37      -0.2867
     42  CB       -13.3570  -13.8420   99.6960 C.3    37  LYS37       0.0271
     43  CG       -13.5510  -12.3710   99.3090 C.3    37  LYS37       0.0035
     44  CD       -14.2110  -12.2390   97.9460 C.3    37  LYS37       0.0206
     45  CE       -13.1960  -12.2440   96.8500 C.3    37  LYS37       0.1093
     46  NZ       -13.8370  -12.2420   95.5200 N.3    37  LYS37      -0.1314
     47  N        -16.0140  -22.3080   90.8390 N.3    69  MET69      -0.1245
     48  CA       -15.4060  -22.4300   92.1500 C.3    69  MET69       0.1570
     49  C        -16.3590  -23.0710   93.1520 C.2    69  MET69       0.2261
     50  O        -17.5310  -22.6600   93.2830 O.2    69  MET69      -0.2867
     51  CB       -14.9600  -21.0790   92.6960 C.3    69  MET69       0.0387
     52  CG       -14.5790  -21.1570   94.1690 C.3    69  MET69       0.0595
     53  SD       -13.8850  -19.6620   94.7940 S.3    69  MET69      -0.1393
     54  CE       -13.6450  -20.1240   96.4710 C.3    69  MET69       0.0692
     55  N        -17.7370  -23.5710   96.8320 N.3    71  LEU71      -0.1245
     56  CA       -17.8620  -22.8390   98.0870 C.3    71  LEU71       0.1561
     57  C        -18.1430  -23.8370   99.2020 C.2    71  LEU71       0.2260
     58  O        -18.9500  -24.7510   99.0260 O.2    71  LEU71      -0.2867
     59  CB       -18.9960  -21.7990   97.9860 C.3    71  LEU71       0.0270
     60  CG       -19.0830  -20.7910   99.1490 C.3    71  LEU71       0.0019
     61  CD1      -17.9060  -19.7970   99.1240 C.3    71  LEU71       0.0001
     62  CD2      -20.3870  -20.0050   99.0870 C.3    71  LEU71       0.0001
     63  N        -16.1060  -15.7820  103.1310 N.3    83  LEU83      -0.1245
     64  CA       -16.5510  -16.7660  102.1400 C.3    83  LEU83       0.1561
     65  C        -15.4190  -17.7560  101.9780 C.2    83  LEU83       0.2260
     66  O        -14.3570  -17.3790  101.4980 O.2    83  LEU83      -0.2867
     67  CB       -16.8740  -16.1000  100.7920 C.3    83  LEU83       0.0270
     68  CG       -18.2040  -15.3660  100.7460 C.3    83  LEU83       0.0019
     69  CD1      -18.1400  -14.1900   99.7840 C.3    83  LEU83       0.0001
     70  CD2      -19.3370  -16.3190  100.3600 C.3    83  LEU83       0.0001
     71  N        -12.6930  -23.5620   97.8090 N.3    86  GLU86      -0.1231
     72  CA       -11.5680  -24.3370   97.3100 C.3    86  GLU86       0.1699
     73  C        -10.4760  -23.4210   96.7460 C.2    86  GLU86       0.2592
     74  O        -10.7890  -22.4540   96.0510 O.2    86  GLU86      -0.2718
     75  CB       -12.0590  -25.3230   96.2410 C.3    86  GLU86       0.0402
     76  CG       -11.0440  -26.3850   95.8170 C.3    86  GLU86       0.1161
     77  CD       -11.6010  -27.3970   94.8330 C.2    86  GLU86       0.3649
     78  OE1      -12.5870  -27.0790   94.1290 O.co2  86  GLU86      -0.2457
     79  OE2      -11.0060  -28.4870   94.7140 O.co2  86  GLU86      -0.2457
     80  N         -9.1950  -23.7520   97.0390 N.am   87  VAL87      -0.1966
     81  CA        -8.1030  -22.9260   96.5370 C.3    87  VAL87       0.1727
     82  C         -7.6320  -23.4960   95.1910 C.2    87  VAL87       0.2616
     83  O         -7.4980  -24.7020   95.0120 O.2    87  VAL87      -0.2715
     84  CB        -6.9330  -22.7430   97.5480 C.3    87  VAL87       0.0290
     85  CG1       -6.2260  -24.0610   97.8720 C.3    87  VAL87       0.0023
     86  CG2       -5.9360  -21.6990   97.0420 C.3    87  VAL87       0.0023
     87  N         -7.3690  -22.5790   94.2440 N.am   88  TYR88      -0.1974
     88  CA        -6.8580  -22.9100   92.9150 C.3    88  TYR88       0.1639
     89  C         -5.4960  -22.2560   92.8120 C.2    88  TYR88       0.2290
     90  O         -5.3380  -21.1270   93.2570 O.2    88  TYR88      -0.2864
     91  CB        -7.8260  -22.4580   91.8290 C.3    88  TYR88       0.0560
     92  CG        -9.2020  -23.0530   92.0320 C.ar   88  TYR88      -0.0198
     93  CD1       -9.3780  -24.4290   92.1300 C.ar   88  TYR88      -0.0009
     94  CD2      -10.3070  -22.2410   92.2340 C.ar   88  TYR88      -0.0009
     95  CE1      -10.6210  -24.9800   92.4210 C.ar   88  TYR88       0.0417
     96  CE2      -11.5550  -22.7780   92.5150 C.ar   88  TYR88       0.0417
     97  CZ       -11.7090  -24.1490   92.6300 C.ar   88  TYR88       0.1957
     98  OH       -12.9590  -24.6590   92.8830 O.3    88  TYR88      -0.2866
     99  N         -4.1330  -16.7950   87.1570 N.3    92  GLU92      -0.1245
    100  CA        -5.0810  -16.2490   86.2060 C.3    92  GLU92       0.1567
    101  C         -4.8310  -16.7960   84.8130 C.2    92  GLU92       0.2260
    102  O         -3.6790  -16.8510   84.3600 O.2    92  GLU92      -0.2867
    103  CB        -5.0080  -14.7310   86.1930 C.3    92  GLU92       0.0388
    104  CG        -5.4760  -14.1140   87.4850 C.3    92  GLU92       0.1160
    105  CD        -5.2150  -12.6280   87.5720 C.2    92  GLU92       0.3649
    106  OE1       -5.1500  -11.9620   86.5140 O.co2  92  GLU92      -0.2457
    107  OE2       -5.0510  -12.1290   88.7040 O.co2  92  GLU92      -0.2457
    108  N         -9.6190  -11.8920   85.0380 N.3   135  GLU135     -0.1245
    109  CA        -9.1000  -11.9720   86.4160 C.3   135  GLU135      0.1567
    110  C         -9.9490  -12.9250   87.2940 C.2   135  GLU135      0.2260
    111  O         -9.4740  -13.3840   88.3340 O.2   135  GLU135     -0.2867
    112  CB        -9.0760  -10.5650   87.0390 C.3   135  GLU135      0.0388
    113  CG        -8.1440  -10.3910   88.2190 C.3   135  GLU135      0.1160
    114  CD        -8.2330   -9.0010   88.8260 C.2   135  GLU135      0.3649
    115  OE1       -9.1520   -8.7650   89.6440 O.co2 135  GLU135     -0.2457
    116  OE2       -7.4110   -8.1350   88.4480 O.co2 135  GLU135     -0.2457
    117  N         -9.5780  -18.5690   86.9150 N.3   138  LEU138     -0.1245
    118  CA        -8.3720  -19.1460   87.5050 C.3   138  LEU138      0.1561
    119  C         -8.1680  -20.5490   86.9940 C.2   138  LEU138      0.2260
    120  O         -9.1330  -21.2520   86.7100 O.2   138  LEU138     -0.2867
    121  CB        -8.4570  -19.1930   89.0360 C.3   138  LEU138      0.0270
    122  CG        -8.8680  -17.9240   89.7610 C.3   138  LEU138      0.0019
    123  CD1       -8.7030  -18.1030   91.2880 C.3   138  LEU138      0.0001
    124  CD2       -8.0570  -16.7270   89.2920 C.3   138  LEU138      0.0001
    125  N        -14.5240  -17.7010   89.4380 N.3   151  ILE151     -0.1231
    126  CA       -14.7310  -17.2790   90.8270 C.3   151  ILE151      0.1692
    127  C        -15.7480  -16.1220   90.8300 C.2   151  ILE151      0.2592
    128  O        -15.9530  -15.4970   89.7880 O.2   151  ILE151     -0.2718
    129  CB       -13.3910  -16.8950   91.5300 C.3   151  ILE151      0.0266
    130  CG1      -12.7210  -15.6560   90.8560 C.3   151  ILE151      0.0019
    131  CG2      -12.4230  -18.0820   91.5220 C.3   151  ILE151      0.0020
    132  CD1      -11.4790  -15.1370   91.5650 C.3   151  ILE151      0.0001
    133  N        -16.4500  -15.9310   91.9770 N.am  152  ASP152     -0.1974
    134  CA       -17.3670  -14.8230   92.3090 C.3   152  ASP152      0.1709
    135  C        -18.7460  -14.8830   91.6420 C.2   152  ASP152      0.2293
    136  O        -19.4740  -13.8840   91.6960 O.2   152  ASP152     -0.2864
    137  CB       -16.7330  -13.4650   91.9860 C.3   152  ASP152      0.1436
    138  CG       -15.5820  -13.1000   92.8980 C.2   152  ASP152      0.3671
    139  OD1      -15.3040  -13.8700   93.8440 O.co2 152  ASP152     -0.2456
    140  OD2      -14.9890  -12.0300   92.6940 O.co2 152  ASP152     -0.2456
    141  N        -22.0000  -13.0560   93.6740 N.3   155  LEU155     -0.1245
    142  CA       -21.6380  -12.0390   94.6640 C.3   155  LEU155      0.1561
    143  C        -22.1550  -10.6590   94.2940 C.2   155  LEU155      0.2260
    144  O        -22.5970   -9.9380   95.1900 O.2   155  LEU155     -0.2867
    145  CB       -20.1130  -11.9560   94.8410 C.3   155  LEU155      0.0270
    146  CG       -19.4040  -13.2300   95.3100 C.3   155  LEU155      0.0019
    147  CD1      -17.9740  -12.9270   95.7010 C.3   155  LEU155      0.0001
    148  CD2      -20.1180  -13.8690   96.4930 C.3   155  LEU155      0.0001
@<TRIPOS>BOND
     1   102   101    2
     2   101   100    1
     3   108   109    1
     4   103   100    1
     5   103   104    1
     6   100    99    1
     7   109   112    1
     8   109   110    1
     9   106   105   ar
    10   120   119    2
    11   117   118    1
    12   119   118    1
    13   112   113    1
    14   110   111    2
    15   104   105    1
    16   118   121    1
    17   105   107   ar
    18   113   114    1
    19   116   114   ar
    20   114   115   ar
    21   121   122    1
    22   124   122    1
    23   125   126    1
    24   122   123    1
    25   128   127    2
    26   126   127    1
    27   126   129    1
    28   127   133   am
    29    47    48    1
    30   130   129    1
    31   130   132    1
    32   131   129    1
    33   135   136    2
    34   135   134    1
    35    91    92    1
    36    91    88    1
    37   133   134    1
    38   137   134    1
    39   137   138    1
    40    92    93   ar
    41    92    94   ar
    42    93    95   ar
    43    48    51    1
    44    48    49    1
    45    94    96   ar
    46    95    97   ar
    47    96    97   ar
    48    97    98    1
    49   140   138   ar
    50    51    52    1
    51    89    88    1
    52    89    90    2
    53   138   139   ar
    54    88    87    1
    55    49    50    2
    56   141   142    1
    57    78    77   ar
    58    52    53    1
    59    16    15    2
    60    87    82   am
    61   143   142    1
    62   143   144    2
    63   142   145    1
    64    79    77   ar
    65    23    24    1
    66    23    22    1
    67    53    54    1
    68    77    76    1
    69   145   146    1
    70    24    25    2
    71    83    82    2
    72    82    81    1
    73   146   147    1
    74   146   148    1
    75    15    22   am
    76    15    14    1
    77    46    45    1
    78    76    75    1
    79     4     3    2
    80    74    73    2
    81    17    18    1
    82    17    14    1
    83    75    72    1
    84    13    14    1
    85    13    11   am
    86    18    19    1
    87    81    80    1
    88    81    84    1
    89    73    80   am
    90    73    72    1
    91    55    56    1
    92    45    44    1
    93    10    11    1
    94    10     9    1
    95    11    12    2
    96    86    84    1
    97    21    20    1
    98     3     9   am
    99     3     2    1
   100    72    71    1
   101    84    85    1
   102    32    30    1
   103    19    20    1
   104     8     6    1
   105    44    43    1
   106    59    56    1
   107    59    60    1
   108     5     2    1
   109     5     6    1
   110    56    57    1
   111     2     1    1
   112    30    31    1
   113    30    27    1
   114    37    34    1
   115     7     6    1
   116    58    57    2
   117    62    60    1
   118    61    60    1
   119    43    42    1
   120    42    39    1
   121    69    68    1
   122    27    26    1
   123    27    28    1
   124    34    33    1
   125    34    35    1
   126    29    28    2
   127    70    68    1
   128    36    35    2
   129    68    67    1
   130    67    64    1
   131    39    38    1
   132    39    40    1
   133    66    65    2
   134    65    64    1
   135    40    41    2
   136    64    63    1
