@<TRIPOS>MOLECULE
tmp/5w84B00.pdb
 153 144 0 0 0
SMALL
GASTEIGER

@<TRIPOS>ATOM
      1  N        -20.0950   12.7170   10.1750 N.3    25  MET25      -0.1230
      2  CA       -19.9340   14.1800   10.1910 C.3    25  MET25       0.1702
      3  C        -19.8230   14.6990   11.6290 C.2    25  MET25       0.2593
      4  O        -19.1790   15.7200   11.8640 O.2    25  MET25      -0.2718
      5  CB       -21.1140   14.8630    9.4830 C.3    25  MET25       0.0401
      6  CG       -21.0420   14.8150    7.9740 C.3    25  MET25       0.0596
      7  SD       -22.6540   15.0380    7.1880 S.3    25  MET25      -0.1393
      8  CE       -23.1010   16.5760    7.7960 C.3    25  MET25       0.0692
      9  N        -20.4260   13.9620   12.5640 N.am   26  GLY26      -0.1942
     10  CA       -20.3910   14.2670   13.9880 C.3    26  GLY26       0.2014
     11  C        -21.5330   13.6870   14.7950 C.2    26  GLY26       0.2639
     12  O        -22.1840   12.7200   14.3840 O.2    26  GLY26      -0.2714
     13  N        -21.7550   14.2810   15.9760 N.am   27  GLU27      -0.1963
     14  CA       -22.8110   13.9100   16.9190 C.3    27  GLU27       0.1733
     15  C        -23.8770   15.0070   16.8800 C.2    27  GLU27       0.2616
     16  O        -23.5400   16.1950   16.9710 O.2    27  GLU27      -0.2715
     17  CB       -22.2600   13.7700   18.3590 C.3    27  GLU27       0.0429
     18  CG       -20.9640   12.9820   18.5010 C.3    27  GLU27       0.1163
     19  CD       -21.0670   11.4700   18.4560 C.2    27  GLU27       0.3649
     20  OE1      -20.1280   10.8310   17.9290 O.co2  27  GLU27      -0.2457
     21  OE2      -22.0630   10.9200   18.9780 O.co2  27  GLU27      -0.2457
     22  N        -25.1360   14.5970   16.7210 N.am   28  GLY28      -0.1955
     23  CA       -26.2930   15.4900   16.6890 C.3    28  GLY28       0.1869
     24  C        -27.1570   15.3620   17.9290 C.2    28  GLY28       0.2309
     25  O        -28.3450   15.7160   17.9080 O.2    28  GLY28      -0.2863
     26  N        -24.6890   11.9400   12.7130 N.3    33  VAL33      -0.1245
     27  CA       -25.0420   12.5560   11.4350 C.3    33  VAL33       0.1561
     28  C        -24.0000   12.1500   10.3900 C.2    33  VAL33       0.2260
     29  O        -22.8140   12.3670   10.6040 O.2    33  VAL33      -0.2867
     30  CB       -25.2280   14.0900   11.5820 C.3    33  VAL33       0.0252
     31  CG1      -25.3440   14.7880   10.2340 C.3    33  VAL33       0.0019
     32  CG2      -26.4380   14.4080   12.4540 C.3    33  VAL33       0.0019
     33  N        -27.3350   15.2360    4.5400 N.3    44  ALA44      -0.1245
     34  CA       -26.9090   14.9470    5.9010 C.3    44  ALA44       0.1562
     35  C        -27.9750   14.0390    6.5290 C.2    44  ALA44       0.2260
     36  O        -29.1390   14.4350    6.6260 O.2    44  ALA44      -0.2867
     37  CB       -26.7770   16.2430    6.6840 C.3    44  ALA44       0.0290
     38  N        -29.1760   12.0320    9.7730 N.3    46  LYS46      -0.1245
     39  CA       -29.1190   11.9350   11.2300 C.3    46  LYS46       0.1561
     40  C        -29.7150   10.6020   11.6610 C.2    46  LYS46       0.2260
     41  O        -30.8930   10.3590   11.4260 O.2    46  LYS46      -0.2867
     42  CB       -29.8860   13.1110   11.8650 C.3    46  LYS46       0.0271
     43  CG       -29.6900   13.1840   13.3600 C.3    46  LYS46       0.0035
     44  CD       -30.8060   14.0660   13.7930 C.3    46  LYS46       0.0206
     45  CE       -30.3610   15.0430   14.8610 C.3    46  LYS46       0.1093
     46  NZ       -31.2930   16.1650   14.9290 N.3    46  LYS46      -0.1314
     47  N        -39.1070   17.1290   15.6530 N.3    49  GLU49      -0.1245
     48  CA       -38.4140   17.7490   14.5170 C.3    49  GLU49       0.1567
     49  C        -39.2720   17.6900   13.2390 C.2    49  GLU49       0.2260
     50  O        -39.3740   18.6970   12.5400 O.2    49  GLU49      -0.2867
     51  CB       -37.0560   17.0710   14.2900 C.3    49  GLU49       0.0388
     52  CG       -36.0680   17.9360   13.5340 C.3    49  GLU49       0.1160
     53  CD       -34.8150   18.3280   14.2950 C.2    49  GLU49       0.3649
     54  OE1      -34.2540   17.4730   15.0210 O.co2  49  GLU49      -0.2457
     55  OE2      -34.3410   19.4690   14.0870 O.co2  49  GLU49      -0.2457
     56  N        -32.5610   25.3840    8.5610 N.3    62  VAL62      -0.1245
     57  CA       -32.1830   24.1820    7.7850 C.3    62  VAL62       0.1561
     58  C        -33.4240   23.4960    7.2590 C.2    62  VAL62       0.2260
     59  O        -34.4490   23.4670    7.9540 O.2    62  VAL62      -0.2867
     60  CB       -31.2650   23.1540    8.4960 C.3    62  VAL62       0.0252
     61  CG1      -29.8700   23.7120    8.7210 C.3    62  VAL62       0.0019
     62  CG2      -31.8820   22.6370    9.7960 C.3    62  VAL62       0.0019
     63  N        -31.4960   15.8370    6.0230 N.3    72  TYR72      -0.1227
     64  CA       -31.4920   17.2840    5.8070 C.3    72  TYR72       0.1736
     65  C        -30.5930   17.6440    4.6490 C.2    72  TYR72       0.2595
     66  O        -29.8340   16.8020    4.1560 O.2    72  TYR72      -0.2718
     67  CB       -30.9670   18.0320    7.0370 C.3    72  TYR72       0.0548
     68  CG       -31.6390   17.6870    8.3390 C.ar   72  TYR72      -0.0200
     69  CD1      -31.1550   16.6600    9.1430 C.ar   72  TYR72      -0.0009
     70  CD2      -32.6970   18.4500    8.8200 C.ar   72  TYR72      -0.0009
     71  CE1      -31.7360   16.3690   10.3690 C.ar   72  TYR72       0.0417
     72  CE2      -33.2850   18.1710   10.0480 C.ar   72  TYR72       0.0417
     73  CZ       -32.8000   17.1300   10.8200 C.ar   72  TYR72       0.1957
     74  OH       -33.3630   16.8480   12.0340 O.3    72  TYR72      -0.2866
     75  N        -30.6370   18.9240    4.2570 N.am   73  VAL73      -0.1966
     76  CA       -29.7750   19.4690    3.2200 C.3    73  VAL73       0.1727
     77  C        -28.3690   19.5570    3.8390 C.2    73  VAL73       0.2616
     78  O        -28.2290   19.9480    5.0040 O.2    73  VAL73      -0.2715
     79  CB       -30.2720   20.8610    2.7250 C.3    73  VAL73       0.0290
     80  CG1      -29.2820   21.5010    1.7480 C.3    73  VAL73       0.0023
     81  CG2      -31.6560   20.7650    2.0940 C.3    73  VAL73       0.0023
     82  N        -27.3380   19.1640    3.0790 N.am   74  TYR74      -0.1960
     83  CA       -25.9530   19.2580    3.5490 C.3    74  TYR74       0.1771
     84  C        -25.4940   20.7290    3.3940 C.2    74  TYR74       0.2619
     85  O        -25.5910   21.2920    2.3060 O.2    74  TYR74      -0.2715
     86  CB       -25.0440   18.2760    2.7740 C.3    74  TYR74       0.0574
     87  CG       -23.5700   18.3690    3.1070 C.ar   74  TYR74      -0.0198
     88  CD1      -22.7220   19.2000    2.3790 C.ar   74  TYR74      -0.0009
     89  CD2      -23.0090   17.5800    4.1110 C.ar   74  TYR74      -0.0009
     90  CE1      -21.3640   19.2860    2.6750 C.ar   74  TYR74       0.0417
     91  CE2      -21.6530   17.6640    4.4240 C.ar   74  TYR74       0.0417
     92  CZ       -20.8350   18.5230    3.7050 C.ar   74  TYR74       0.1957
     93  OH       -19.4960   18.6180    3.9930 O.3    74  TYR74      -0.2866
     94  N        -25.0520   21.3510    4.5040 N.am   75  MET75      -0.1964
     95  CA       -24.5600   22.7260    4.5290 C.3    75  MET75       0.1722
     96  C        -23.0570   22.6310    4.3060 C.2    75  MET75       0.2458
     97  O        -22.3370   22.1380    5.1770 O.2    75  MET75      -0.2730
     98  CB       -24.8980   23.4050    5.8550 C.3    75  MET75       0.0427
     99  CG       -26.3600   23.4440    6.1440 C.3    75  MET75       0.0599
    100  SD       -27.1210   24.8350    5.3350 S.3    75  MET75      -0.1393
    101  CE       -28.1300   24.0180    4.2600 C.3    75  MET75       0.0692
    102  N        -22.5730   22.9920    3.0970 N.am   76  PRO76      -0.2727
    103  CA       -21.1380   22.8390    2.7990 C.3    76  PRO76       0.1402
    104  C        -20.1620   23.6400    3.6850 C.2    76  PRO76       0.2269
    105  O        -19.0070   23.2350    3.8040 O.2    76  PRO76      -0.2865
    106  CB       -21.0530   23.2340    1.3260 C.3    76  PRO76       0.0296
    107  CG       -22.2130   24.1050    1.1000 C.3    76  PRO76       0.0237
    108  CD       -23.2970   23.5560    1.9400 C.3    76  PRO76       0.0939
    109  N        -20.4500   24.0830    7.0790 N.3    78  GLY78      -0.1210
    110  CA       -20.6660   23.6360    8.4480 C.3    78  GLY78       0.1956
    111  C        -21.1970   24.6320    9.4500 C.2    78  GLY78       0.2612
    112  O        -21.8690   25.6000    9.0770 O.2    78  GLY78      -0.2717
    113  N        -20.8790   24.3960   10.7500 N.am   79  SER79      -0.1952
    114  CA       -21.3930   25.2410   11.8180 C.3    79  SER79       0.1924
    115  C        -20.5990   26.5140   11.9440 C.2    79  SER79       0.2314
    116  O        -19.4700   26.5470   11.4840 O.2    79  SER79      -0.2863
    117  CB       -21.4540   24.4710   13.1360 C.3    79  SER79       0.2116
    118  OG       -20.2030   24.3420   13.7880 O.3    79  SER79      -0.2180
    119  N        -17.5760   26.0090   14.0550 N.3    82  ASP82      -0.1239
    120  CA       -16.4710   25.5070   13.2410 C.3    82  ASP82       0.1674
    121  C        -15.7530   26.6130   12.5000 C.2    82  ASP82       0.2266
    122  O        -14.5410   26.7160   12.6130 O.2    82  ASP82      -0.2867
    123  CB       -16.9590   24.4340   12.2550 C.3    82  ASP82       0.1410
    124  CG       -17.3860   23.1360   12.9170 C.2    82  ASP82       0.3668
    125  OD1      -16.8540   22.8220   14.0140 O.co2  82  ASP82      -0.2456
    126  OD2      -18.2460   22.4200   12.3280 O.co2  82  ASP82      -0.2456
    127  N        -22.9570   26.3340   17.3290 N.3   125  ALA125     -0.1245
    128  CA       -22.9320   24.9810   16.7900 C.3   125  ALA125      0.1562
    129  C        -24.2340   24.7090   15.9990 C.2   125  ALA125      0.2260
    130  O        -24.2480   23.8370   15.1240 O.2   125  ALA125     -0.2867
    131  CB       -22.8310   23.9980   17.9280 C.3   125  ALA125      0.0290
    132  N        -25.8610   26.9030   11.0690 N.3   128  LEU128     -0.1245
    133  CA       -25.1810   26.2560    9.9620 C.3   128  LEU128      0.1561
    134  C        -24.9810   27.2110    8.7970 C.2   128  LEU128      0.2260
    135  O        -25.6520   28.2510    8.7240 O.2   128  LEU128     -0.2867
    136  CB       -25.9490   24.9910    9.5590 C.3   128  LEU128      0.0270
    137  CG       -25.5400   23.6950   10.2660 C.3   128  LEU128      0.0019
    138  CD1      -25.0930   23.9130   11.7220 C.3   128  LEU128      0.0001
    139  CD2      -26.6380   22.7350   10.2430 C.3   128  LEU128      0.0001
    140  N        -30.4030   25.3160   13.1430 N.3   138  SER138     -0.1202
    141  CA       -30.6360   23.8600   13.2230 C.3   138  SER138      0.2020
    142  C        -31.1220   23.3810   14.6220 C.2   138  SER138      0.2618
    143  O        -31.3430   24.2130   15.4970 O.2   138  SER138     -0.2717
    144  CB       -29.4040   23.0810   12.7590 C.3   138  SER138      0.2103
    145  OG       -28.3950   22.9620   13.7470 O.3   138  SER138     -0.2182
    146  N        -31.3010   22.0460   14.8110 N.am  139  ASP139     -0.1973
    147  CA       -31.7350   21.3740   16.0530 C.3   139  ASP139      0.1709
    148  C        -33.0010   21.9760   16.6790 C.2   139  ASP139      0.2293
    149  O        -32.9310   22.7530   17.6350 O.2   139  ASP139     -0.2864
    150  CB       -30.5980   21.2750   17.0900 C.3   139  ASP139      0.1436
    151  CG       -29.7340   20.0310   16.9570 C.2   139  ASP139      0.3671
    152  OD1      -28.8520   20.0050   16.0560 O.co2 139  ASP139     -0.2456
    153  OD2      -29.9140   19.0950   17.7700 O.co2 139  ASP139     -0.2456
@<TRIPOS>BOND
     1   107   106    1
     2   107   108    1
     3   106   103    1
     4    80    79    1
     5   108   102    1
     6    81    79    1
     7    85    84    2
     8    88    90   ar
     9    88    87   ar
    10    90    92   ar
    11    79    76    1
    12    86    87    1
    13    86    83    1
    14   103   102    1
    15   103   104    1
    16    82    83    1
    17    82    77   am
    18   102    96   am
    19    87    89   ar
    20    76    77    1
    21    76    75    1
    22    84    83    1
    23    84    94   am
    24   104   105    2
    25    92    93    1
    26    92    91   ar
    27    77    78    2
    28    89    91   ar
    29    66    65    2
    30    75    65   am
    31   101   100    1
    32    96    95    1
    33    96    97    2
    34    94    95    1
    35    95    98    1
    36    33    34    1
    37    65    64    1
    38   100    99    1
    39    64    63    1
    40    64    67    1
    41    98    99    1
    42    34    35    1
    43    34    37    1
    44    35    36    2
    45    67    68    1
    46   109   110    1
    47     7     8    1
    48     7     6    1
    49    58    57    1
    50    58    59    2
    51    57    60    1
    52    57    56    1
    53     6     5    1
    54    68    70   ar
    55    68    69   ar
    56   110   111    1
    57    60    61    1
    58    60    62    1
    59   135   134    2
    60   134   133    1
    61    70    72   ar
    62   112   111    2
    63    69    71   ar
    64   111   113   am
    65     5     2    1
    66   136   133    1
    67   136   137    1
    68    38    39    1
    69   133   132    1
    70    72    73   ar
    71     1     2    1
    72     2     3    1
    73    31    30    1
    74   139   137    1
    75   137   138    1
    76    71    73   ar
    77    28    29    2
    78    28    27    1
    79   113   114    1
    80    73    74    1
    81    39    40    1
    82    39    42    1
    83    41    40    2
    84    27    30    1
    85    27    26    1
    86   116   115    2
    87    30    32    1
    88     3     4    2
    89     3     9   am
    90   114   115    1
    91   114   117    1
    92    42    43    1
    93   123   124    1
    94   123   120    1
    95   126   124   ar
    96   121   122    2
    97   121   120    1
    98    50    49    2
    99     9    10    1
   100   144   141    1
   101   144   145    1
   102   124   125   ar
   103   117   118    1
   104   140   141    1
   105   141   142    1
   106    49    48    1
   107   120   119    1
   108    43    44    1
   109    52    51    1
   110    52    53    1
   111    44    45    1
   112    10    11    1
   113    55    53   ar
   114    51    48    1
   115    53    54   ar
   116    12    11    2
   117    48    47    1
   118   142   146   am
   119   142   143    2
   120    11    13   am
   121   146   147    1
   122    45    46    1
   123   130   129    2
   124    13    14    1
   125   129   128    1
   126   147   148    1
   127   147   150    1
   128   152   151   ar
   129   148   149    2
   130    23    22    1
   131    23    24    1
   132    22    15   am
   133   128   127    1
   134   128   131    1
   135    15    14    1
   136    15    16    2
   137    14    17    1
   138   151   150    1
   139   151   153   ar
   140    25    24    2
   141    20    19   ar
   142    17    18    1
   143    19    18    1
   144    19    21   ar
