@<TRIPOS>MOLECULE
tmp/5w86A00.pdb
 159 152 0 0 0
SMALL
GASTEIGER

@<TRIPOS>ATOM
      1  N         24.2310   19.1520   10.9160 N.3    14  GLN14      -0.1231
      2  CA        24.4860   17.7350   11.1440 C.3    14  GLN14       0.1698
      3  C         23.1860   16.9850   11.3640 C.2    14  GLN14       0.2592
      4  O         22.2820   17.4920   12.0200 O.2    14  GLN14      -0.2718
      5  CB        25.4150   17.5540   12.3460 C.3    14  GLN14       0.0381
      6  CG        26.0700   16.1770   12.4230 C.3    14  GLN14       0.0905
      7  CD        27.5470   16.3200   12.6220 C.2    14  GLN14       0.2608
      8  OE1       28.2950   16.7140   11.7090 O.2    14  GLN14      -0.2717
      9  NE2       27.9830   16.0460   13.8420 N.am   14  GLN14      -0.0878
     10  N         23.0930   15.7740   10.8150 N.am   15  LEU15      -0.1966
     11  CA        21.9170   14.9020   10.9370 C.3    15  LEU15       0.1728
     12  C         22.2040   13.7470   11.8670 C.2    15  LEU15       0.2617
     13  O         21.2850   13.1720   12.4490 O.2    15  LEU15      -0.2715
     14  CB        21.4810   14.3630    9.5620 C.3    15  LEU15       0.0311
     15  CG        21.0500   15.3910    8.5060 C.3    15  LEU15       0.0022
     16  CD1       20.5630   14.6790    7.2440 C.3    15  LEU15       0.0001
     17  CD2       19.9580   16.3070    9.0290 C.3    15  LEU15       0.0001
     18  N         23.4800   13.3980   11.9700 N.am   16  GLY16      -0.1940
     19  CA        23.9570   12.2930   12.7950 C.3    16  GLY16       0.2014
     20  C         25.4560   12.1060   12.7650 C.2    16  GLY16       0.2638
     21  O         26.1240   12.5170   11.8050 O.2    16  GLY16      -0.2714
     22  N         26.0000   11.4890   13.8310 N.am   17  LYS17      -0.1977
     23  CA        27.4370   11.2190   13.9690 C.3    17  LYS17       0.1596
     24  C         27.6820    9.8850   14.6580 C.2    17  LYS17       0.2287
     25  O         27.1160    9.6190   15.7150 O.2    17  LYS17      -0.2864
     26  CB        28.1520   12.3550   14.7200 C.3    17  LYS17       0.0298
     27  CG        29.6560   12.1390   14.8740 C.3    17  LYS17       0.0038
     28  CD        30.3700   13.4330   15.2110 C.3    17  LYS17       0.0206
     29  CE        31.8400   13.2200   15.5430 C.3    17  LYS17       0.1093
     30  NZ        32.5470   12.2800   14.6200 N.3    17  LYS17      -0.1314
     31  N         26.6870   12.1590    8.9840 N.3    20  VAL20      -0.1245
     32  CA        25.6970   12.5380    7.9750 C.3    20  VAL20       0.1561
     33  C         25.3500   14.0000    8.1840 C.2    20  VAL20       0.2260
     34  O         25.0340   14.4060    9.2940 O.2    20  VAL20      -0.2867
     35  CB        24.4240   11.6330    7.9430 C.3    20  VAL20       0.0252
     36  CG1       23.4710   12.0530    6.8240 C.3    20  VAL20       0.0019
     37  CG2       24.7780   10.1520    7.8010 C.3    20  VAL20       0.0019
     38  N         20.8840   14.6620    1.8920 N.3    37  ALA37      -0.1245
     39  CA        21.6140   14.1200    3.0350 C.3    37  ALA37       0.1562
     40  C         22.9470   13.5950    2.4510 C.2    37  ALA37       0.2260
     41  O         22.9470   12.9320    1.4080 O.2    37  ALA37      -0.2867
     42  CB        20.8280   12.9970    3.7070 C.3    37  ALA37       0.0290
     43  N         15.5530    4.5580    1.5940 N.3    68  VAL68      -0.1245
     44  CA        16.0840    5.8710    1.2370 C.3    68  VAL68       0.1561
     45  C         16.7100    5.8850   -0.1510 C.2    68  VAL68       0.2260
     46  O         17.3970    4.9390   -0.5100 O.2    68  VAL68      -0.2867
     47  CB        17.0250    6.4710    2.2990 C.3    68  VAL68       0.0252
     48  CG1       16.2100    7.0580    3.4340 C.3    68  VAL68       0.0019
     49  CG2       18.1040    5.4960    2.7730 C.3    68  VAL68       0.0019
     50  N         22.4200   11.2740   -0.8160 N.3    80  MET80      -0.1230
     51  CA        21.0950   10.6330   -0.6880 C.3    80  MET80       0.1702
     52  C         19.9690   11.6560   -0.5210 C.2    80  MET80       0.2592
     53  O         20.2210   12.8490   -0.3280 O.2    80  MET80      -0.2718
     54  CB        21.0540    9.6820    0.5320 C.3    80  MET80       0.0401
     55  CG        22.0810    8.5800    0.4860 C.3    80  MET80       0.0596
     56  SD        22.2660    7.6830    2.0440 S.3    80  MET80      -0.1393
     57  CE        23.0300    8.9760    3.1270 C.3    80  MET80       0.0692
     58  N         18.7230   11.1700   -0.5230 N.am   81  GLU81      -0.1966
     59  CA        17.5810   12.0390   -0.3140 C.3    81  GLU81       0.1733
     60  C         17.4910   12.4410    1.1470 C.2    81  GLU81       0.2616
     61  O         17.9880   11.7430    2.0230 O.2    81  GLU81      -0.2715
     62  CB        16.2770   11.4040   -0.8180 C.3    81  GLU81       0.0429
     63  CG        15.7320   10.2940    0.0630 C.3    81  GLU81       0.1163
     64  CD        14.3250    9.8310   -0.2540 C.2    81  GLU81       0.3649
     65  OE1       13.4350   10.6800   -0.4920 O.co2  81  GLU81      -0.2457
     66  OE2       14.1040    8.6040   -0.2100 O.co2  81  GLU81      -0.2457
     67  N         16.8610   13.5790    1.4030 N.am   82  TYR82      -0.1960
     68  CA        16.6960   14.0940    2.7490 C.3    82  TYR82       0.1771
     69  C         15.2510   13.9090    3.1680 C.2    82  TYR82       0.2619
     70  O         14.3390   14.2980    2.4360 O.2    82  TYR82      -0.2715
     71  CB        17.1350   15.5760    2.7970 C.3    82  TYR82       0.0574
     72  CG        16.8780   16.2620    4.1170 C.ar   82  TYR82      -0.0198
     73  CD1       17.5310   15.8570    5.2690 C.ar   82  TYR82      -0.0009
     74  CD2       15.9870   17.3260    4.2110 C.ar   82  TYR82      -0.0009
     75  CE1       17.2750   16.4600    6.4940 C.ar   82  TYR82       0.0417
     76  CE2       15.7260   17.9420    5.4340 C.ar   82  TYR82       0.0417
     77  CZ        16.3790   17.5080    6.5720 C.ar   82  TYR82       0.1957
     78  OH        16.1500   18.1000    7.7850 O.3    82  TYR82      -0.2866
     79  N         15.0450   13.2560    4.3200 N.am   83  LEU83      -0.1964
     80  CA        13.7440   13.0240    4.9630 C.3    83  LEU83       0.1713
     81  C         13.7350   13.9720    6.1710 C.2    83  LEU83       0.2458
     82  O         14.5070   13.7980    7.1170 O.2    83  LEU83      -0.2730
     83  CB        13.5860   11.5620    5.3960 C.3    83  LEU83       0.0310
     84  CG        13.0570   10.5670    4.3660 C.3    83  LEU83       0.0022
     85  CD1       14.1340   10.1010    3.4530 C.3    83  LEU83       0.0001
     86  CD2       12.5650    9.3390    5.0350 C.3    83  LEU83       0.0001
     87  N         12.9500   15.0630    6.0920 N.am   84  PRO84      -0.2727
     88  CA        13.0070   16.0990    7.1460 C.3    84  PRO84       0.1402
     89  C         12.5380   15.7120    8.5530 C.2    84  PRO84       0.2269
     90  O         13.1110   16.2180    9.5240 O.2    84  PRO84      -0.2865
     91  CB        12.1220   17.2050    6.5740 C.3    84  PRO84       0.0296
     92  CG        11.1510   16.4610    5.6660 C.3    84  PRO84       0.0237
     93  CD        11.9790   15.4170    5.0300 C.3    84  PRO84       0.0939
     94  N         12.9470   13.2480   10.4120 N.3    86  GLY86      -0.1210
     95  CA        13.9210   12.5700   11.2450 C.3    86  GLY86       0.1956
     96  C         13.6590   11.1180   11.5400 C.2    86  GLY86       0.2612
     97  O         12.9520   10.4300   10.8160 O.2    86  GLY86      -0.2717
     98  N         14.2600   10.6640   12.6140 N.am   87  CYS87      -0.1970
     99  CA        14.2670    9.3020   13.0970 C.3    87  CYS87       0.1712
    100  C         12.9160    8.8620   13.6430 C.2    87  CYS87       0.2296
    101  O         12.2800    9.6120   14.3860 O.2    87  CYS87      -0.2864
    102  CB        15.3780    9.1600   14.1350 C.3    87  CYS87       0.0983
    103  SG        15.5560    7.5030   14.8230 S.3    87  CYS87      -0.0798
    104  N         12.6160    8.9350   17.5940 N.3    90  ASP90      -0.1239
    105  CA        12.3050   10.2700   18.1010 C.3    90  ASP90       0.1674
    106  C         10.8290   10.6360   17.8320 C.2    90  ASP90       0.2266
    107  O         10.1330   11.1050   18.7410 O.2    90  ASP90      -0.2867
    108  CB        13.2290   11.3180   17.4430 C.3    90  ASP90       0.1410
    109  CG        14.7350   11.1380   17.6850 C.2    90  ASP90       0.3668
    110  OD1       15.1460   10.0540   18.1680 O.co2  90  ASP90      -0.2456
    111  OD2       15.4990   12.0770   17.3820 O.co2  90  ASP90      -0.2456
    112  N         15.8760    3.1460   15.4340 N.3   131  ARG131     -0.1231
    113  CA        16.9140    4.1750   15.3240 C.3   131  ARG131      0.1694
    114  C         17.3770    4.3930   13.8580 C.2   131  ARG131      0.2592
    115  O         17.8320    5.4940   13.5450 O.2   131  ARG131     -0.2718
    116  CB        18.0910    3.8810   16.2540 C.3   131  ARG131      0.0321
    117  CG        18.7920    2.5910   15.9140 C.3   131  ARG131      0.0489
    118  CD        20.0970    2.3480   16.6450 C.3   131  ARG131      0.2205
    119  NE        20.5770    1.0040   16.3290 N.pl3 131  ARG131     -0.0865
    120  CZ        20.1960   -0.0960   16.9730 C.cat 131  ARG131      0.5346
    121  NH1       19.3510   -0.0180   17.9930 N.pl3 131  ARG131      0.1354
    122  NH2       20.6490   -1.2840   16.5960 N.pl3 131  ARG131      0.1354
    123  N         17.2560    3.3580   12.9680 N.am  132  ASN132     -0.1960
    124  CA        17.6600    3.4340   11.5590 C.3   132  ASN132      0.1819
    125  C         16.4750    3.5410   10.5750 C.2   132  ASN132      0.2621
    126  O         16.6640    3.4410    9.3610 O.2   132  ASN132     -0.2715
    127  CB        18.5860    2.2880   11.1970 C.3   132  ASN132      0.1195
    128  CG        19.9190    2.3950   11.8440 C.2   132  ASN132      0.2630
    129  OD1       20.6040    3.4240   11.7750 O.2   132  ASN132     -0.2716
    130  ND2       20.3030    1.3460   12.5150 N.am  132  ASN132     -0.0877
    131  N         15.2600    3.7690   11.1050 N.am  133  ILE133     -0.1963
    132  CA        14.0660    4.0130   10.3130 C.3   133  ILE133      0.1727
    133  C         13.8530    5.5200   10.3530 C.2   133  ILE133      0.2616
    134  O         13.9620    6.1350   11.4180 O.2   133  ILE133     -0.2715
    135  CB        12.7900    3.2250   10.7880 C.3   133  ILE133      0.0290
    136  CG1       13.0770    1.7190   11.0580 C.3   133  ILE133      0.0022
    137  CG2       11.5750    3.4180    9.8150 C.3   133  ILE133      0.0023
    138  CD1       13.5520    0.8960    9.8820 C.3   133  ILE133      0.0001
    139  N         13.5680    6.1160    9.1830 N.am  134  LEU134     -0.1977
    140  CA        13.3250    7.5570    9.0660 C.3   134  LEU134      0.1596
    141  C         11.8640    7.8150    8.7500 C.2   134  LEU134      0.2287
    142  O         11.1930    6.9160    8.2450 O.2   134  LEU134     -0.2864
    143  CB        14.1990    8.1510    7.9520 C.3   134  LEU134      0.0297
    144  CG        15.6910    8.1270    8.1620 C.3   134  LEU134      0.0022
    145  CD1       16.3880    8.2620    6.8500 C.3   134  LEU134      0.0001
    146  CD2       16.1250    9.2230    9.1520 C.3   134  LEU134      0.0001
    147  N         16.7560    3.1410    6.5260 N.3   144  ALA144     -0.1231
    148  CA        18.0610    3.7740    6.2920 C.3   144  ALA144      0.1694
    149  C         19.2390    2.9610    6.9080 C.2   144  ALA144      0.2592
    150  O         19.0170    1.8930    7.4750 O.2   144  ALA144     -0.2718
    151  CB        18.0450    5.1890    6.8390 C.3   144  ALA144      0.0304
    152  N         20.4860    3.4850    6.7810 N.am  145  ASP145     -0.1974
    153  CA        21.7530    2.9250    7.2670 C.3   145  ASP145      0.1709
    154  C         22.0230    1.5050    6.7720 C.2   145  ASP145      0.2293
    155  O         21.7330    0.5240    7.4640 O.2   145  ASP145     -0.2864
    156  CB        21.9060    3.0210    8.8000 C.3   145  ASP145      0.1436
    157  CG        23.2160    2.4490    9.3060 C.2   145  ASP145      0.3671
    158  OD1       24.2480    3.1130    9.1410 O.co2 145  ASP145     -0.2456
    159  OD2       23.2220    1.2730    9.7670 O.co2 145  ASP145     -0.2456
@<TRIPOS>BOND
     1    62    59    1
     2    62    63    1
     3    50    51    1
     4    51    52    1
     5    51    54    1
     6    58    52   am
     7    58    59    1
     8    52    53    2
     9    46    45    2
    10    65    64   ar
    11    59    60    1
    12    64    66   ar
    13    64    63    1
    14    45    44    1
    15    55    54    1
    16    55    56    1
    17    60    67   am
    18    60    61    2
    19    44    43    1
    20    44    47    1
    21    67    68    1
    22    41    40    2
    23    38    39    1
    24    56    57    1
    25    47    49    1
    26    47    48    1
    27    70    69    2
    28    40    39    1
    29    68    71    1
    30    68    69    1
    31    71    72    1
    32    39    42    1
    33    69    79   am
    34    85    84    1
    35    72    74   ar
    36    72    73   ar
    37    74    76   ar
    38    79    80    1
    39    84    86    1
    40    84    83    1
    41    80    83    1
    42    80    81    1
    43    93    92    1
    44    93    87    1
    45    73    75   ar
    46    76    77   ar
    47    92    91    1
    48    87    81   am
    49    87    88    1
    50    81    82    2
    51   148   147    1
    52   148   151    1
    53   148   149    1
    54    75    77   ar
    55    77    78    1
    56    91    88    1
    57   154   153    1
    58   154   155    2
    59   152   149   am
    60   152   153    1
    61    36    35    1
    62   145   144    1
    63   149   150    2
    64    88    89    1
    65    16    15    1
    66   153   156    1
    67    37    35    1
    68    35    32    1
    69   143   144    1
    70   143   140    1
    71    32    33    1
    72    32    31    1
    73   144   146    1
    74    33    34    2
    75   142   141    2
    76    15    17    1
    77    15    14    1
    78    89    90    2
    79   141   140    1
    80   156   157    1
    81   140   139    1
    82   158   157   ar
    83   139   133   am
    84   157   159   ar
    85   126   125    2
    86    14    11    1
    87   137   135    1
    88   138   136    1
    89   132   133    1
    90   132   135    1
    91   132   131    1
    92   133   134    2
    93    94    95    1
    94   125   131   am
    95   125   124    1
    96   135   136    1
    97    10    11    1
    98    10     3   am
    99    97    96    2
   100     1     2    1
   101    11    12    1
   102     2     3    1
   103     2     5    1
   104   127   124    1
   105   127   128    1
   106    95    96    1
   107     3     4    2
   108    96    98   am
   109   124   123    1
   110     8     7    2
   111   129   128    2
   112    21    20    2
   113   128   130   am
   114    12    18   am
   115    12    13    2
   116    18    19    1
   117     5     6    1
   118     6     7    1
   119    98    99    1
   120     7     9   am
   121    20    19    1
   122    20    22   am
   123   123   114   am
   124    99   100    1
   125    99   102    1
   126   115   114    2
   127   100   101    2
   128    22    23    1
   129   114   113    1
   130    23    24    1
   131    23    26    1
   132   102   103    1
   133    30    29    1
   134    24    25    2
   135    26    27    1
   136    27    28    1
   137    28    29    1
   138   113   112    1
   139   113   116    1
   140   117   116    1
   141   117   118    1
   142   119   118    1
   143   119   120    2
   144   122   120    1
   145   120   121    1
   146   111   109   ar
   147   108   109    1
   148   108   105    1
   149   104   105    1
   150   109   110   ar
   151   106   105    1
   152   106   107    2
