@<TRIPOS>MOLECULE
tmp/5w8bA01.pdb
 115 111 0 0 0
SMALL
GASTEIGER

@<TRIPOS>ATOM
      1  N          8.2190    0.0040   10.3850 N.3     2  TRP2       -0.1241
      2  CA         7.6520   -1.0150   11.2440 C.3     2  TRP2        0.1605
      3  C          6.6310   -1.8480   10.4830 C.2     2  TRP2        0.2264
      4  O          6.0620   -1.4180    9.4730 O.2     2  TRP2       -0.2867
      5  CB         7.0070   -0.3710   12.4700 C.3     2  TRP2        0.0550
      6  CG         5.8140    0.4660   12.1640 C.ar    2  TRP2        0.0003
      7  CD1        5.7860    1.8110   11.9150 C.ar    2  TRP2        0.0946
      8  CD2        4.4550    0.0190   12.1080 C.ar    2  TRP2        0.0152
      9  NE1        4.4940    2.2240   11.6920 N.ar    2  TRP2       -0.2442
     10  CE2        3.6590    1.1420   11.8000 C.ar    2  TRP2        0.0810
     11  CE3        3.8340   -1.2270   12.2810 C.ar    2  TRP2        0.0012
     12  CZ2        2.2720    1.0610   11.6680 C.ar    2  TRP2        0.0191
     13  CZ3        2.4570   -1.3010   12.1390 C.ar    2  TRP2        0.0001
     14  CH2        1.6950   -0.1630   11.8480 C.ar    2  TRP2        0.0015
     15  N         -8.3980    0.7760    5.9040 N.3    64  ASN64      -0.1240
     16  CA        -9.2010    1.7200    6.6650 C.3    64  ASN64       0.1653
     17  C        -10.3950    2.1270    5.8240 C.2    64  ASN64       0.2266
     18  O        -10.2290    2.5220    4.6650 O.2    64  ASN64      -0.2867
     19  CB        -8.4260    2.9900    7.0250 C.3    64  ASN64       0.1155
     20  CG        -7.3720    2.7740    8.0750 C.2    64  ASN64       0.2627
     21  OD1       -7.2160    1.6800    8.6030 O.2    64  ASN64      -0.2716
     22  ND2       -6.6100    3.8250    8.3590 N.am   64  ASN64      -0.0877
     23  N        -13.7620    8.4420   12.7990 N.3    88  ILE88      -0.1231
     24  CA       -12.8800    8.8340   11.7110 C.3    88  ILE88       0.1692
     25  C        -12.6120    7.6760   10.7550 C.2    88  ILE88       0.2591
     26  O        -12.5740    7.8710    9.5380 O.2    88  ILE88      -0.2718
     27  CB       -11.5630    9.4420   12.2450 C.3    88  ILE88       0.0266
     28  CG1      -10.6070    9.7300   11.0820 C.3    88  ILE88       0.0019
     29  CG2      -10.8890    8.5340   13.2570 C.3    88  ILE88       0.0020
     30  CD1       -9.4250   10.5980   11.4890 C.3    88  ILE88       0.0001
     31  N        -12.4620    6.4580   11.2690 N.am   89  GLN89      -0.1979
     32  CA       -12.2510    5.3100   10.3940 C.3    89  GLN89       0.1601
     33  C        -12.4820    4.0530   11.2050 C.2    89  GLN89       0.2287
     34  O        -12.4680    4.0890   12.4360 O.2    89  GLN89      -0.2864
     35  CB       -10.8390    5.2780    9.7880 C.3    89  GLN89       0.0394
     36  CG        -9.7150    5.4470   10.8140 C.3    89  GLN89       0.0908
     37  CD        -9.0280    4.1700   11.2270 C.2    89  GLN89       0.2608
     38  OE1       -9.5510    3.0700   11.1360 O.2    89  GLN89      -0.2717
     39  NE2       -7.8340    4.3290   11.7020 N.am   89  GLN89      -0.0878
     40  N        -11.0690   -0.2560   10.9740 N.3    91  HIS91      -0.1241
     41  CA       -10.1770   -1.2090   10.3400 C.3    91  HIS91       0.1621
     42  C        -10.2350   -2.4800   11.1620 C.2    91  HIS91       0.2264
     43  O        -10.8200   -2.5140   12.2500 O.2    91  HIS91      -0.2867
     44  CB        -8.7290   -0.7020   10.2600 C.3    91  HIS91       0.0745
     45  CG        -8.1450   -0.4260   11.6060 C.ar   91  HIS91       0.0817
     46  ND1       -8.2880    0.7920   12.2320 N.ar   91  HIS91      -0.2268
     47  CD2       -7.4990   -1.2320   12.4840 C.ar   91  HIS91       0.1154
     48  CE1       -7.7460    0.7280   13.4370 C.ar   91  HIS91       0.1986
     49  NE2       -7.2430   -0.4850   13.6060 N.ar   91  HIS91      -0.2212
     50  N        -12.6450    3.7450   15.2820 N.3   118  VAL118     -0.1245
     51  CA       -11.7820    4.7360   15.9210 C.3   118  VAL118      0.1561
     52  C        -12.4860    6.0850   15.9470 C.2   118  VAL118      0.2260
     53  O        -12.8800    6.5980   14.8910 O.2   118  VAL118     -0.2867
     54  CB       -10.4450    4.8460   15.1770 C.3   118  VAL118      0.0252
     55  CG1       -9.5530    5.8860   15.8600 C.3   118  VAL118      0.0019
     56  CG2       -9.7460    3.4940   15.1030 C.3   118  VAL118      0.0019
     57  N         -8.0650   15.0880   14.7580 N.3   127  PHE127     -0.1227
     58  CA        -7.5220   13.8050   15.1910 C.3   127  PHE127      0.1736
     59  C         -6.0650   13.9320   15.6060 C.2   127  PHE127      0.2596
     60  O         -5.6470   13.3390   16.6070 O.2   127  PHE127     -0.2718
     61  CB        -7.6760   12.7800   14.0630 C.3   127  PHE127      0.0547
     62  CG        -7.1120   11.4280   14.3770 C.ar  127  PHE127     -0.0202
     63  CD1       -7.8640   10.4910   15.0780 C.ar  127  PHE127     -0.0042
     64  CD2       -5.8340   11.0790   13.9650 C.ar  127  PHE127     -0.0042
     65  CE1       -7.3540    9.2470   15.3620 C.ar  127  PHE127     -0.0003
     66  CE2       -5.3230    9.8420   14.2510 C.ar  127  PHE127     -0.0003
     67  CZ        -6.0770    8.9150   14.9510 C.ar  127  PHE127     -0.0000
     68  N         -5.2710   14.7020   14.8480 N.am  128  GLY128     -0.1957
     69  CA        -3.8670   14.8470   15.1960 C.3   128  GLY128      0.1869
     70  C         -3.6500   15.4540   16.5700 C.2   128  GLY128      0.2309
     71  O         -2.6920   15.1040   17.2670 O.2   128  GLY128     -0.2863
     72  N         -4.8270   12.7020   19.4960 N.3   131  VAL131     -0.1245
     73  CA        -3.9360   11.6010   19.8780 C.3   131  VAL131      0.1561
     74  C         -2.8430   12.0350   20.8430 C.2   131  VAL131      0.2260
     75  O         -2.1670   11.1800   21.4210 O.2   131  VAL131     -0.2867
     76  CB        -3.2630   10.9110   18.6660 C.3   131  VAL131      0.0252
     77  CG1       -4.3060   10.2380   17.7770 C.3   131  VAL131      0.0019
     78  CG2       -2.4080   11.8770   17.8680 C.3   131  VAL131      0.0019
     79  N         -2.9840    3.3900   21.2310 N.3   194  LEU194     -0.1245
     80  CA        -3.0120    2.8580   19.8750 C.3   194  LEU194      0.1561
     81  C         -2.2660    1.5420   19.8750 C.2   194  LEU194      0.2260
     82  O         -1.2770    1.3890   20.5990 O.2   194  LEU194     -0.2867
     83  CB        -2.3380    3.8270   18.9060 C.3   194  LEU194      0.0270
     84  CG        -2.7320    5.2980   18.9460 C.3   194  LEU194      0.0019
     85  CD1       -1.7940    6.0820   18.0410 C.3   194  LEU194      0.0001
     86  CD2       -4.1760    5.4940   18.5190 C.3   194  LEU194      0.0001
     87  N         -0.6840    0.3370   17.3170 N.3   196  THR196     -0.1204
     88  CA         0.1440    0.3470   16.1850 C.3   196  THR196      0.1979
     89  C          0.9650    1.6240   16.3460 C.2   196  THR196      0.2460
     90  O          0.4670    2.5850   16.9450 O.2   196  THR196     -0.2732
     91  CB        -0.8190    0.3280   14.9950 C.3   196  THR196      0.1783
     92  OG1       -0.3030   -0.3950   13.8790 O.3   196  THR196     -0.2211
     93  CG2       -1.2640    1.6650   14.6700 C.3   196  THR196      0.0376
     94  N          2.2500    1.6370   15.9470 N.am  197  PRO197     -0.2718
     95  CA         3.0310    2.8630   16.1430 C.3   197  PRO197      0.1520
     96  C          2.2870    4.0870   15.6320 C.2   197  PRO197      0.2440
     97  O          1.6640    3.9800   14.5750 O.2   197  PRO197     -0.2731
     98  CB         4.3050    2.5790   15.3160 C.3   197  PRO197      0.0310
     99  CG         4.4860    1.1120   15.4600 C.3   197  PRO197      0.0237
    100  CD         3.0600    0.5530   15.3680 C.3   197  PRO197      0.0939
    101  N          2.4010    5.2440   16.3100 N.am  198  PRO198     -0.2727
    102  CA         3.2630    5.5310   17.4480 C.3   198  PRO198      0.1402
    103  C          2.8280    5.0790   18.8270 C.2   198  PRO198      0.2269
    104  O          3.4550    5.5480   19.7700 O.2   198  PRO198     -0.2865
    105  CB         3.3180    7.0690   17.4230 C.3   198  PRO198      0.0296
    106  CG         2.0720    7.4620   16.7970 C.3   198  PRO198      0.0237
    107  CD         2.0850    6.5210   15.6530 C.3   198  PRO198      0.0939
    108  N          0.5830    5.7460   20.8910 N.3   200  LEU200     -0.1245
    109  CA         0.2930    6.8220   21.8340 C.3   200  LEU200      0.1561
    110  C         -0.7700    6.4080   22.8530 C.2   200  LEU200      0.2260
    111  O         -1.7380    5.7160   22.5300 O.2   200  LEU200     -0.2867
    112  CB        -0.1670    8.0670   21.0710 C.3   200  LEU200      0.0270
    113  CG         0.9230    8.6510   20.1710 C.3   200  LEU200      0.0019
    114  CD1        0.3550    9.7720   19.3080 C.3   200  LEU200      0.0001
    115  CD2        2.0810    9.1700   21.0080 C.3   200  LEU200      0.0001
@<TRIPOS>BOND
     1    18    17    2
     2    17    16    1
     3    15    16    1
     4    16    19    1
     5    19    20    1
     6    20    22   am
     7    20    21    2
     8     4     3    2
     9    26    25    2
    10    35    32    1
    11    35    36    1
    12    44    41    1
    13    44    45    1
    14    41    40    1
    15    41    42    1
    16     1     2    1
    17    32    33    1
    18    32    31    1
    19     3     2    1
    20    25    31   am
    21    25    24    1
    22    36    37    1
    23    28    30    1
    24    28    27    1
    25    38    37    2
    26    42    43    2
    27    33    34    2
    28    37    39   am
    29     2     5    1
    30    45    46   ar
    31    45    47   ar
    32    12    10   ar
    33    12    14   ar
    34     9    10   ar
    35     9     7   ar
    36    24    27    1
    37    24    23    1
    38    10     8   ar
    39    14    13   ar
    40     7     6   ar
    41     8     6   ar
    42     8    11   ar
    43    13    11   ar
    44     6     5    1
    45    46    48   ar
    46    27    29    1
    47    47    49   ar
    48    48    49   ar
    49    92    91    1
    50    64    66   ar
    51    64    62   ar
    52    61    62    1
    53    61    58    1
    54    66    67   ar
    55    62    63   ar
    56    97    96    2
    57    93    91    1
    58    57    58    1
    59    68    69    1
    60    68    59   am
    61    53    52    2
    62    67    65   ar
    63    91    88    1
    64    63    65   ar
    65    56    54    1
    66    54    55    1
    67    54    51    1
    68    58    59    1
    69    69    70    1
    70    50    51    1
    71    98    99    1
    72    98    95    1
    73   100    99    1
    74   100    94    1
    75    59    60    2
    76    96    95    1
    77    96   101   am
    78   107   101    1
    79   107   106    1
    80    51    52    1
    81    94    95    1
    82    94    89   am
    83    88    89    1
    84    88    87    1
    85   101   102    1
    86    89    90    2
    87    70    71    2
    88   106   105    1
    89   105   102    1
    90   102   103    1
    91    77    76    1
    92    78    76    1
    93    85    84    1
    94    86    84    1
    95    76    73    1
    96   103   104    2
    97    83    84    1
    98    83    80    1
    99   114   113    1
   100    72    73    1
   101    81    80    1
   102    81    82    2
   103    80    79    1
   104    73    74    1
   105   113   115    1
   106   113   112    1
   107    74    75    2
   108   108   109    1
   109   112   109    1
   110   109   110    1
   111   111   110    2
