@<TRIPOS>MOLECULE
tmp/5w8bA00.pdb
 115 110 0 0 0
SMALL
GASTEIGER

@<TRIPOS>ATOM
      1  N        -12.4620    6.4580   11.2690 N.3    89  GLN89      -0.1245
      2  CA       -12.2510    5.3100   10.3940 C.3    89  GLN89       0.1566
      3  C        -12.4820    4.0530   11.2050 C.2    89  GLN89       0.2260
      4  O        -12.4680    4.0890   12.4360 O.2    89  GLN89      -0.2867
      5  CB       -10.8390    5.2780    9.7880 C.3    89  GLN89       0.0367
      6  CG        -9.7150    5.4470   10.8140 C.3    89  GLN89       0.0905
      7  CD        -9.0280    4.1700   11.2270 C.2    89  GLN89       0.2608
      8  OE1       -9.5510    3.0700   11.1360 O.2    89  GLN89      -0.2717
      9  NE2       -7.8340    4.3290   11.7020 N.am   89  GLN89      -0.0878
     10  N        -11.0690   -0.2560   10.9740 N.3    91  HIS91      -0.1241
     11  CA       -10.1770   -1.2090   10.3400 C.3    91  HIS91       0.1621
     12  C        -10.2350   -2.4800   11.1620 C.2    91  HIS91       0.2264
     13  O        -10.8200   -2.5140   12.2500 O.2    91  HIS91      -0.2867
     14  CB        -8.7290   -0.7020   10.2600 C.3    91  HIS91       0.0745
     15  CG        -8.1450   -0.4260   11.6060 C.ar   91  HIS91       0.0817
     16  ND1       -8.2880    0.7920   12.2320 N.ar   91  HIS91      -0.2268
     17  CD2       -7.4990   -1.2320   12.4840 C.ar   91  HIS91       0.1154
     18  CE1       -7.7460    0.7280   13.4370 C.ar   91  HIS91       0.1986
     19  NE2       -7.2430   -0.4850   13.6060 N.ar   91  HIS91      -0.2212
     20  N         -8.0000   -6.2720   12.3850 N.3    93  HIS93      -0.1241
     21  CA        -6.7990   -7.0800   12.5330 C.3    93  HIS93       0.1621
     22  C         -7.2140   -8.5310   12.3890 C.2    93  HIS93       0.2264
     23  O         -8.2740   -8.9120   12.8780 O.2    93  HIS93      -0.2867
     24  CB        -6.1560   -6.8470   13.8890 C.3    93  HIS93       0.0745
     25  CG        -5.8890   -5.4020   14.1610 C.ar   93  HIS93       0.0817
     26  ND1       -4.6650   -4.8150   13.9130 N.ar   93  HIS93      -0.2268
     27  CD2       -6.7050   -4.4160   14.5990 C.ar   93  HIS93       0.1154
     28  CE1       -4.7300   -3.5310   14.2320 C.ar   93  HIS93       0.1986
     29  NE2       -5.9630   -3.2590   14.6220 N.ar   93  HIS93      -0.2212
     30  N        -11.7490   -2.3720   14.9150 N.3   116  HIS116     -0.1241
     31  CA       -11.5340   -1.1330   15.6690 C.3   116  HIS116      0.1621
     32  C        -12.2650    0.0010   14.9790 C.2   116  HIS116      0.2264
     33  O        -11.8910    0.3920   13.8640 O.2   116  HIS116     -0.2867
     34  CB       -10.0480   -0.8120   15.7800 C.3   116  HIS116      0.0745
     35  CG        -9.3170   -1.7940   16.6230 C.ar  116  HIS116      0.0817
     36  ND1       -7.9480   -1.9470   16.5820 N.ar  116  HIS116     -0.2268
     37  CD2       -9.7750   -2.6780   17.5410 C.ar  116  HIS116      0.1154
     38  CE1       -7.5950   -2.8930   17.4350 C.ar  116  HIS116      0.1986
     39  NE2       -8.6820   -3.3520   18.0290 N.ar  116  HIS116     -0.2212
     40  N        -12.6450    3.7450   15.2820 N.3   118  VAL118     -0.1245
     41  CA       -11.7820    4.7360   15.9210 C.3   118  VAL118      0.1561
     42  C        -12.4860    6.0850   15.9470 C.2   118  VAL118      0.2260
     43  O        -12.8800    6.5980   14.8910 O.2   118  VAL118     -0.2867
     44  CB       -10.4450    4.8460   15.1770 C.3   118  VAL118      0.0252
     45  CG1       -9.5530    5.8860   15.8600 C.3   118  VAL118      0.0019
     46  CG2       -9.7460    3.4940   15.1030 C.3   118  VAL118      0.0019
     47  N         -8.0650   15.0880   14.7580 N.3   127  PHE127     -0.1241
     48  CA        -7.5220   13.8050   15.1910 C.3   127  PHE127      0.1605
     49  C         -6.0650   13.9320   15.6060 C.2   127  PHE127      0.2264
     50  O         -5.6470   13.3390   16.6070 O.2   127  PHE127     -0.2867
     51  CB        -7.6760   12.7800   14.0630 C.3   127  PHE127      0.0534
     52  CG        -7.1120   11.4280   14.3770 C.ar  127  PHE127     -0.0203
     53  CD1       -7.8640   10.4910   15.0780 C.ar  127  PHE127     -0.0042
     54  CD2       -5.8340   11.0790   13.9650 C.ar  127  PHE127     -0.0042
     55  CE1       -7.3540    9.2470   15.3620 C.ar  127  PHE127     -0.0003
     56  CE2       -5.3230    9.8420   14.2510 C.ar  127  PHE127     -0.0003
     57  CZ        -6.0770    8.9150   14.9510 C.ar  127  PHE127     -0.0000
     58  N         -8.9630    9.6990   22.2860 N.3   137  LEU137     -0.1245
     59  CA        -9.5950    8.7280   21.4060 C.3   137  LEU137      0.1561
     60  C        -10.5050    7.8140   22.2070 C.2   137  LEU137      0.2260
     61  O        -10.2770    7.5590   23.3900 O.2   137  LEU137     -0.2867
     62  CB        -8.5700    7.8530   20.6620 C.3   137  LEU137      0.0270
     63  CG        -7.6690    8.4900   19.5910 C.3   137  LEU137      0.0019
     64  CD1       -7.1450    7.4510   18.5980 C.3   137  LEU137      0.0001
     65  CD2       -8.2950    9.6700   18.8700 C.3   137  LEU137      0.0001
     66  N        -12.0490    3.9870   21.2190 N.3   139  VAL139     -0.1245
     67  CA       -12.0860    2.9600   20.1880 C.3   139  VAL139      0.1561
     68  C        -13.0640    1.8880   20.6240 C.2   139  VAL139      0.2260
     69  O        -12.9780    1.3780   21.7490 O.2   139  VAL139     -0.2867
     70  CB       -10.6990    2.3600   19.9070 C.3   139  VAL139      0.0252
     71  CG1      -10.8140    1.2680   18.8370 C.3   139  VAL139      0.0019
     72  CG2       -9.7560    3.4490   19.4400 C.3   139  VAL139      0.0019
     73  N         -2.9840    3.3900   21.2310 N.3   194  LEU194     -0.1231
     74  CA        -3.0120    2.8580   19.8750 C.3   194  LEU194      0.1693
     75  C         -2.2660    1.5420   19.8750 C.2   194  LEU194      0.2593
     76  O         -1.2770    1.3890   20.5990 O.2   194  LEU194     -0.2718
     77  CB        -2.3380    3.8270   18.9060 C.3   194  LEU194      0.0284
     78  CG        -2.7320    5.2980   18.9460 C.3   194  LEU194      0.0019
     79  CD1       -1.7940    6.0820   18.0410 C.3   194  LEU194      0.0001
     80  CD2       -4.1760    5.4940   18.5190 C.3   194  LEU194      0.0001
     81  N         -2.7070    0.5890   19.0450 N.am  195  THR195     -0.1939
     82  CA        -2.0200   -0.7070   19.0280 C.3   195  THR195      0.2028
     83  C         -0.9940   -0.7900   17.9250 C.2   195  THR195      0.2642
     84  O         -0.4380   -1.8620   17.6660 O.2   195  THR195     -0.2714
     85  CB        -2.9970   -1.8750   18.8970 C.3   195  THR195      0.1808
     86  OG1       -3.6410   -1.8320   17.6150 O.3   195  THR195     -0.2208
     87  CG2       -4.0310   -1.8580   20.0290 C.3   195  THR195      0.0379
     88  N         -0.6840    0.3370   17.3170 N.am  196  THR196     -0.1950
     89  CA         0.1440    0.3470   16.1850 C.3   196  THR196      0.1897
     90  C          0.9650    1.6240   16.3460 C.2   196  THR196      0.2313
     91  O          0.4670    2.5850   16.9450 O.2   196  THR196     -0.2863
     92  CB        -0.8190    0.3280   14.9950 C.3   196  THR196      0.1794
     93  OG1       -0.3030   -0.3950   13.8790 O.3   196  THR196     -0.2208
     94  CG2       -1.2640    1.6650   14.6700 C.3   196  THR196      0.0378
     95  N         -6.1140    6.4130   24.3300 N.3   203  VAL203     -0.1245
     96  CA        -7.3390    5.7020   23.9610 C.3   203  VAL203      0.1561
     97  C         -8.0940    5.2590   25.2070 C.2   203  VAL203      0.2260
     98  O         -7.5350    4.5830   26.0750 O.2   203  VAL203     -0.2867
     99  CB        -7.0450    4.4720   23.0770 C.3   203  VAL203      0.0252
    100  CG1       -8.3610    3.7540   22.7330 C.3   203  VAL203      0.0019
    101  CG2       -6.2440    4.8650   21.8030 C.3   203  VAL203      0.0019
    102  N        -10.4540    2.4780   25.7320 N.3   205  TRP205     -0.1241
    103  CA       -10.8800    1.2780   25.0270 C.3   205  TRP205      0.1605
    104  C        -12.2550    0.8580   25.5200 C.2   205  TRP205      0.2264
    105  O        -12.4980    0.7950   26.7300 O.2   205  TRP205     -0.2867
    106  CB        -9.8530    0.1510   25.2350 C.3   205  TRP205      0.0550
    107  CG        -8.7640    0.2720   24.2370 C.ar  205  TRP205      0.0003
    108  CD1       -7.5460    0.8620   24.4050 C.ar  205  TRP205      0.0946
    109  CD2       -8.8210   -0.1620   22.8740 C.ar  205  TRP205      0.0152
    110  NE1       -6.8330    0.8160   23.2180 N.ar  205  TRP205     -0.2442
    111  CE2       -7.5940    0.1750   22.2730 C.ar  205  TRP205      0.0810
    112  CE3       -9.7960   -0.8100   22.1080 C.ar  205  TRP205      0.0012
    113  CZ2       -7.3210   -0.1010   20.9390 C.ar  205  TRP205      0.0191
    114  CZ3       -9.5180   -1.0980   20.7860 C.ar  205  TRP205      0.0001
    115  CH2       -8.2880   -0.7660   20.2220 C.ar  205  TRP205      0.0015
@<TRIPOS>BOND
     1     5     2    1
     2     5     6    1
     3    14    11    1
     4    14    15    1
     5    11    10    1
     6    11    12    1
     7     2     3    1
     8     2     1    1
     9     6     7    1
    10     8     7    2
    11    12    13    2
    12     3     4    2
    13     7     9   am
    14    15    16   ar
    15    15    17   ar
    16    16    18   ar
    17    20    21    1
    18    22    21    1
    19    22    23    2
    20    17    19   ar
    21    21    24    1
    22    18    19   ar
    23    33    32    2
    24    93    92    1
    25    24    25    1
    26    26    25   ar
    27    26    28   ar
    28    54    56   ar
    29    54    52   ar
    30    51    52    1
    31    51    48    1
    32    25    27   ar
    33    28    29   ar
    34    56    57   ar
    35    52    53   ar
    36    27    29   ar
    37    94    92    1
    38    47    48    1
    39    43    42    2
    40    30    31    1
    41    57    55   ar
    42    32    31    1
    43    92    89    1
    44    53    55   ar
    45    46    44    1
    46    44    45    1
    47    44    41    1
    48    48    49    1
    49    40    41    1
    50    49    50    2
    51    31    34    1
    52    34    35    1
    53    41    42    1
    54    89    90    1
    55    89    88    1
    56    90    91    2
    57    36    35   ar
    58    36    38   ar
    59    35    37   ar
    60    88    83   am
    61    38    39   ar
    62    37    39   ar
    63    86    85    1
    64    84    83    2
    65    83    82    1
    66    79    78    1
    67    80    78    1
    68    64    63    1
    69    71    70    1
    70    65    63    1
    71    85    82    1
    72    85    87    1
    73    77    78    1
    74    77    74    1
    75    82    81    1
    76    81    75   am
    77    72    70    1
    78    63    62    1
    79    75    74    1
    80    75    76    2
    81    74    73    1
    82    70    67    1
    83    67    68    1
    84    67    66    1
    85   115   114   ar
    86   115   113   ar
    87    68    69    2
    88    62    59    1
    89   114   112   ar
    90   113   111   ar
    91    59    60    1
    92    59    58    1
    93   101    99    1
    94   112   109   ar
    95    60    61    2
    96   111   109   ar
    97   111   110   ar
    98   100    99    1
    99   109   107   ar
   100    99    96    1
   101   110   108   ar
   102    96    95    1
   103    96    97    1
   104   107   108   ar
   105   107   106    1
   106   103   106    1
   107   103   104    1
   108   103   102    1
   109    97    98    2
   110   104   105    2
