@<TRIPOS>MOLECULE
tmp/5w8dA00.pdb
 146 141 0 0 0
SMALL
GASTEIGER

@<TRIPOS>ATOM
      1  N        -26.6960   22.4520   -1.6630 N.3    36  TRP36      -0.1241
      2  CA       -27.6050   23.5950   -1.6590 C.3    36  TRP36       0.1605
      3  C        -28.4840   23.4540   -0.4160 C.2    36  TRP36       0.2264
      4  O        -29.6590   23.0760   -0.5040 O.2    36  TRP36      -0.2867
      5  CB       -28.4450   23.6400   -2.9410 C.3    36  TRP36       0.0550
      6  CG       -27.6740   23.9660   -4.2040 C.ar   36  TRP36       0.0003
      7  CD1      -26.3150   24.0960   -4.3390 C.ar   36  TRP36       0.0946
      8  CD2      -28.2230   24.1700   -5.5120 C.ar   36  TRP36       0.0152
      9  NE1      -25.9890   24.3820   -5.6460 N.ar   36  TRP36      -0.2442
     10  CE2      -27.1390   24.4260   -6.3890 C.ar   36  TRP36       0.0810
     11  CE3      -29.5260   24.1610   -6.0310 C.ar   36  TRP36       0.0012
     12  CZ2      -27.3210   24.6780   -7.7550 C.ar   36  TRP36       0.0191
     13  CZ3      -29.7050   24.4130   -7.3930 C.ar   36  TRP36       0.0001
     14  CH2      -28.6090   24.6640   -8.2350 C.ar   36  TRP36       0.0015
     15  N        -30.0720   25.3260    1.6920 N.3    38  THR38      -0.1203
     16  CA       -31.3570   26.0090    1.8830 C.3    38  THR38       0.1994
     17  C        -32.5300   25.1320    1.4330 C.2    38  THR38       0.2617
     18  O        -33.6590   25.3660    1.8420 O.2    38  THR38      -0.2717
     19  CB       -31.4440   27.3790    1.1680 C.3    38  THR38       0.1784
     20  OG1      -31.5180   27.1850   -0.2510 O.3    38  THR38      -0.2211
     21  CG2      -30.2480   28.2670    1.5090 C.3    38  THR38       0.0376
     22  N        -32.2480   24.1230    0.6040 N.am   39  LEU39      -0.1979
     23  CA       -33.2840   23.2410    0.0600 C.3    39  LEU39       0.1596
     24  C        -33.4540   21.9110    0.8150 C.2    39  LEU39       0.2287
     25  O        -34.3050   21.0890    0.4500 O.2    39  LEU39      -0.2864
     26  CB       -33.0180   22.9700   -1.4300 C.3    39  LEU39       0.0297
     27  CG       -32.9390   24.1930   -2.3530 C.3    39  LEU39       0.0022
     28  CD1      -32.4770   23.7740   -3.7430 C.3    39  LEU39       0.0001
     29  CD2      -34.2760   24.9230   -2.4120 C.3    39  LEU39       0.0001
     30  N        -39.9270   22.8180   -3.5860 N.3    48  ASP48      -0.1225
     31  CA       -39.9540   24.2320   -3.2120 C.3    48  ASP48       0.1805
     32  C        -41.2860   24.8850   -3.6080 C.2    48  ASP48       0.2598
     33  O        -42.2160   24.1890   -4.0210 O.2    48  ASP48      -0.2718
     34  CB       -38.7120   24.9830   -3.7560 C.3    48  ASP48       0.1424
     35  CG       -38.7300   25.1770   -5.2770 C.2    48  ASP48       0.3668
     36  OD1      -39.7690   24.9190   -5.9250 O.co2  48  ASP48      -0.2456
     37  OD2      -37.6820   25.6080   -5.8260 O.co2  48  ASP48      -0.2456
     38  N        -41.3710   26.2100   -3.4790 N.am   49  SER49      -0.1938
     39  CA       -42.5980   26.9650   -3.7730 C.3    49  SER49       0.2055
     40  C        -43.0190   26.9390   -5.2390 C.2    49  SER49       0.2643
     41  O        -44.1250   27.3610   -5.5640 O.2    49  SER49      -0.2714
     42  CB       -42.4290   28.4280   -3.3540 C.3    49  SER49       0.2130
     43  OG       -42.1550   28.5160   -1.9710 O.3    49  SER49      -0.2179
     44  N        -42.1370   26.4710   -6.1230 N.am   50  TYR50      -0.1973
     45  CA       -42.4200   26.4650   -7.5670 C.3    50  TYR50       0.1639
     46  C        -42.7120   25.0510   -8.0750 C.2    50  TYR50       0.2290
     47  O        -42.7410   24.7970   -9.2820 O.2    50  TYR50      -0.2864
     48  CB       -41.2790   27.1580   -8.3320 C.3    50  TYR50       0.0560
     49  CG       -40.8990   28.4300   -7.6180 C.ar   50  TYR50      -0.0198
     50  CD1      -41.7530   29.5320   -7.6330 C.ar   50  TYR50      -0.0009
     51  CD2      -39.7390   28.5020   -6.8420 C.ar   50  TYR50      -0.0009
     52  CE1      -41.4380   30.6890   -6.9370 C.ar   50  TYR50       0.0417
     53  CE2      -39.4160   29.6560   -6.1430 C.ar   50  TYR50       0.0417
     54  CZ       -40.2730   30.7410   -6.1970 C.ar   50  TYR50       0.1957
     55  OH       -39.9720   31.8840   -5.5090 O.3    50  TYR50      -0.2866
     56  N        -39.0540   32.2130   -9.0380 N.3    80  MET80      -0.1245
     57  CA       -37.7890   32.2460   -8.3160 C.3    80  MET80       0.1570
     58  C        -37.0610   33.5590   -8.6030 C.2    80  MET80       0.2261
     59  O        -36.5080   34.1810   -7.6850 O.2    80  MET80      -0.2867
     60  CB       -36.9070   31.0490   -8.6860 C.3    80  MET80       0.0387
     61  CG       -35.7910   30.7740   -7.6860 C.3    80  MET80       0.0595
     62  SD       -34.5590   29.5940   -8.2890 S.3    80  MET80      -0.1393
     63  CE       -35.6040   28.2350   -8.8320 C.3    80  MET80       0.0692
     64  N        -36.9280   35.5590   -5.3200 N.3    84  VAL84      -0.1231
     65  CA       -35.6720   35.2340   -4.6360 C.3    84  VAL84       0.1692
     66  C        -34.4980   36.0370   -5.1810 C.2    84  VAL84       0.2592
     67  O        -33.6450   36.4890   -4.4160 O.2    84  VAL84      -0.2718
     68  CB       -35.3480   33.7210   -4.7060 C.3    84  VAL84       0.0266
     69  CG1      -34.1860   33.3690   -3.7850 C.3    84  VAL84       0.0020
     70  CG2      -36.5700   32.8960   -4.3290 C.3    84  VAL84       0.0020
     71  N        -34.4620   36.2350   -6.4970 N.am   85  PHE85      -0.1976
     72  CA       -33.2930   36.8460   -7.1220 C.3    85  PHE85       0.1639
     73  C        -33.5770   38.0810   -7.9920 C.2    85  PHE85       0.2290
     74  O        -32.9330   38.2370   -9.0400 O.2    85  PHE85      -0.2864
     75  CB       -32.5640   35.7990   -7.9830 C.3    85  PHE85       0.0560
     76  CG       -32.0870   34.5910   -7.2240 C.ar   85  PHE85      -0.0200
     77  CD1      -30.9990   34.6760   -6.3570 C.ar   85  PHE85      -0.0042
     78  CD2      -32.6950   33.3530   -7.4140 C.ar   85  PHE85      -0.0042
     79  CE1      -30.5460   33.5570   -5.6700 C.ar   85  PHE85      -0.0003
     80  CE2      -32.2430   32.2280   -6.7360 C.ar   85  PHE85      -0.0003
     81  CZ       -31.1690   32.3330   -5.8600 C.ar   85  PHE85      -0.0000
     82  N        -35.5110   25.6020  -14.5070 N.3   104  SER104     -0.1202
     83  CA       -34.6680   25.3120  -13.3410 C.3   104  SER104      0.2020
     84  C        -34.5170   23.8220  -13.0930 C.2   104  SER104      0.2618
     85  O        -35.1310   22.9930  -13.7920 O.2   104  SER104     -0.2717
     86  CB       -35.2370   25.9880  -12.0820 C.3   104  SER104      0.2103
     87  OG       -36.5390   25.4860  -11.8020 O.3   104  SER104     -0.2182
     88  N        -33.6860   23.5030  -12.0990 N.am  105  ARG105     -0.1979
     89  CA       -33.5010   22.1410  -11.5800 C.3   105  ARG105      0.1597
     90  C        -32.9830   21.1390  -12.6250 C.2   105  ARG105      0.2287
     91  O        -33.4060   19.9760  -12.6560 O.2   105  ARG105     -0.2864
     92  CB       -34.7780   21.6300  -10.8910 C.3   105  ARG105      0.0334
     93  CG       -35.1630   22.3970   -9.6270 C.3   105  ARG105      0.0492
     94  CD       -34.0810   22.3330   -8.5460 C.3   105  ARG105      0.2205
     95  NE       -34.6490   22.6160   -7.2270 N.pl3 105  ARG105     -0.0865
     96  CZ       -34.9140   23.8340   -6.7540 C.cat 105  ARG105      0.5346
     97  NH1      -34.6460   24.9220   -7.4720 N.pl3 105  ARG105      0.1354
     98  NH2      -35.4540   23.9610   -5.5480 N.pl3 105  ARG105      0.1354
     99  N        -32.0350   31.4630  -13.6550 N.3   140  ILE140     -0.1231
    100  CA       -30.9860   31.9200  -12.7580 C.3   140  ILE140      0.1692
    101  C        -29.9420   30.8170  -12.8310 C.2   140  ILE140      0.2592
    102  O        -30.2340   29.6590  -12.5370 O.2   140  ILE140     -0.2718
    103  CB       -31.4910   32.1190  -11.3120 C.3   140  ILE140      0.0266
    104  CG1      -32.5750   33.1970  -11.2570 C.3   140  ILE140      0.0019
    105  CG2      -30.3520   32.4860  -10.3750 C.3   140  ILE140      0.0020
    106  CD1      -33.9810   32.6340  -11.1750 C.3   140  ILE140      0.0001
    107  N        -28.7270   31.1690  -13.2310 N.am  141  MET141     -0.1965
    108  CA       -27.7060   30.1530  -13.4530 C.3   141  MET141      0.1736
    109  C        -26.3180   30.5750  -13.0100 C.2   141  MET141      0.2616
    110  O        -25.9650   31.7610  -13.0520 O.2   141  MET141     -0.2715
    111  CB       -27.6520   29.8060  -14.9370 C.3   141  MET141      0.0427
    112  CG       -27.1330   30.9470  -15.7920 C.3   141  MET141      0.0599
    113  SD       -27.7410   30.8720  -17.4740 S.3   141  MET141     -0.1393
    114  CE       -26.6130   31.9970  -18.2740 C.3   141  MET141      0.0692
    115  N        -25.5250   29.5960  -12.5900 N.am  142  GLU142     -0.1977
    116  CA       -24.1200   29.8390  -12.3220 C.3   142  GLU142      0.1602
    117  C        -23.4360   30.1490  -13.6510 C.2   142  GLU142      0.2287
    118  O        -23.8240   29.6150  -14.6960 O.2   142  GLU142     -0.2864
    119  CB       -23.4840   28.6470  -11.6030 C.3   142  GLU142      0.0415
    120  CG       -24.1080   28.3900  -10.2370 C.3   142  GLU142      0.1163
    121  CD       -23.2050   27.6150   -9.2960 C.2   142  GLU142      0.3649
    122  OE1      -21.9970   27.4760   -9.5950 O.co2 142  GLU142     -0.2457
    123  OE2      -23.7100   27.1490   -8.2490 O.co2 142  GLU142     -0.2457
    124  N        -23.8190   34.4660   -5.4030 N.3   165  VAL165     -0.1231
    125  CA       -24.9520   33.8910   -4.6860 C.3   165  VAL165      0.1692
    126  C        -24.3440   32.7520   -3.8890 C.2   165  VAL165      0.2591
    127  O        -23.8570   31.7710   -4.4600 O.2   165  VAL165     -0.2718
    128  CB       -26.0730   33.4050   -5.6330 C.3   165  VAL165      0.0266
    129  CG1      -27.0780   32.5250   -4.8890 C.3   165  VAL165      0.0020
    130  CG2      -26.7770   34.5950   -6.2670 C.3   165  VAL165      0.0020
    131  N        -24.3520   32.9140   -2.5690 N.am  166  GLU166     -0.1979
    132  CA       -23.4890   32.1450   -1.6790 C.3   166  GLU166      0.1602
    133  C        -22.0330   32.4060   -2.0670 C.2   166  GLU166      0.2287
    134  O        -21.5380   33.5190   -1.9250 O.2   166  GLU166     -0.2864
    135  CB       -23.8310   30.6480   -1.6970 C.3   166  GLU166      0.0415
    136  CG       -25.2310   30.3230   -1.1870 C.3   166  GLU166      0.1163
    137  CD       -25.4540   30.7270    0.2640 C.2   166  GLU166      0.3649
    138  OE1      -24.5110   30.6210    1.0830 O.co2 166  GLU166     -0.2457
    139  OE2      -26.5830   31.1500    0.5910 O.co2 166  GLU166     -0.2457
    140  N        -23.2060   33.9980  -10.1680 N.3   170  THR170     -0.1218
    141  CA       -24.5300   33.6480  -10.6680 C.3   170  THR170      0.1862
    142  C        -25.0840   34.8210  -11.4840 C.2   170  THR170      0.2287
    143  O        -24.7250   35.9770  -11.2360 O.2   170  THR170     -0.2866
    144  CB       -25.4520   33.3110   -9.4670 C.3   170  THR170      0.1770
    145  OG1      -24.8150   32.3070   -8.6610 O.3   170  THR170     -0.2211
    146  CG2      -26.8140   32.7870   -9.9040 C.3   170  THR170      0.0375
@<TRIPOS>BOND
     1   114   113    1
     2   113   112    1
     3   112   111    1
     4   111   108    1
     5   118   117    2
     6    82    83    1
     7    85    84    2
     8    99   100    1
     9   117   116    1
    10   108   107    1
    11   108   109    1
    12    83    84    1
    13    83    86    1
    14   107   101   am
    15    84    88   am
    16   110   109    2
    17   109   115   am
    18   101   100    1
    19   101   102    2
    20   100   103    1
    21    91    90    2
    22    90    89    1
    23   115   116    1
    24   116   119    1
    25    88    89    1
    26    86    87    1
    27   119   120    1
    28    89    92    1
    29   142   143    2
    30   142   141    1
    31   103   104    1
    32   103   105    1
    33   104   106    1
    34    92    93    1
    35   141   140    1
    36   141   144    1
    37   120   121    1
    38   146   144    1
    39    93    94    1
    40   122   121   ar
    41   144   145    1
    42   121   123   ar
    43    47    46    2
    44    74    73    2
    45    56    57    1
    46    63    62    1
    47    60    57    1
    48    60    61    1
    49    58    57    1
    50    58    59    2
    51    94    95    1
    52    48    49    1
    53    48    45    1
    54    62    61    1
    55    14    12   ar
    56    14    13   ar
    57    46    45    1
    58    73    72    1
    59    75    76    1
    60    75    72    1
    61    12    10   ar
    62    50    49   ar
    63    50    52   ar
    64    49    51   ar
    65    45    44    1
    66    97    96    1
    67    78    76   ar
    68    78    80   ar
    69    13    11   ar
    70    95    96    2
    71    76    77   ar
    72    72    71    1
    73    52    54   ar
    74    51    53   ar
    75    96    98    1
    76    80    81   ar
    77    71    66   am
    78    10     9   ar
    79    10     8   ar
    80    77    79   ar
    81   130   128    1
    82    54    53   ar
    83    54    55    1
    84    44    40   am
    85    11     8   ar
    86    36    35   ar
    87    81    79   ar
    88    37    35   ar
    89     9     7   ar
    90   128   129    1
    91   128   125    1
    92    41    40    2
    93     8     6   ar
    94   124   125    1
    95    64    65    1
    96    35    34    1
    97    40    39    1
    98    66    65    1
    99    66    67    2
   100    68    65    1
   101    68    70    1
   102    68    69    1
   103   125   126    1
   104   127   126    2
   105     7     6   ar
   106     6     5    1
   107    33    32    2
   108   126   131   am
   109    39    38    1
   110    39    42    1
   111    34    31    1
   112    28    27    1
   113    32    38   am
   114    32    31    1
   115    30    31    1
   116    42    43    1
   117     5     2    1
   118   131   132    1
   119    29    27    1
   120    27    26    1
   121   133   134    2
   122   133   132    1
   123   135   132    1
   124   135   136    1
   125     1     2    1
   126     2     3    1
   127    26    23    1
   128   136   137    1
   129     4     3    2
   130    20    19    1
   131    23    22    1
   132    23    24    1
   133   137   139   ar
   134   137   138   ar
   135    25    24    2
   136    22    17   am
   137    19    21    1
   138    19    16    1
   139    17    18    2
   140    17    16    1
   141    15    16    1
