@<TRIPOS>MOLECULE
tmp/5w8gA00.pdb
 202 201 0 0 0
SMALL
GASTEIGER

@<TRIPOS>ATOM
      1  N        -28.8740   17.9280   -5.5880 N.3    30  PHE30      -0.1241
      2  CA       -28.7270   19.3430   -5.2490 C.3    30  PHE30       0.1605
      3  C        -28.3630   19.5800   -3.7890 C.2    30  PHE30       0.2264
      4  O        -27.5970   20.4960   -3.4840 O.2    30  PHE30      -0.2867
      5  CB       -29.9580   20.1460   -5.6730 C.3    30  PHE30       0.0534
      6  CG       -30.1790   20.1450   -7.1580 C.ar   30  PHE30      -0.0203
      7  CD1      -29.3540   20.8920   -7.9980 C.ar   30  PHE30      -0.0042
      8  CD2      -31.1860   19.3720   -7.7240 C.ar   30  PHE30      -0.0042
      9  CE1      -29.5440   20.8800   -9.3760 C.ar   30  PHE30      -0.0003
     10  CE2      -31.3790   19.3550   -9.1000 C.ar   30  PHE30      -0.0003
     11  CZ       -30.5600   20.1130   -9.9240 C.ar   30  PHE30      -0.0000
     12  N        -26.4830   22.5350   -1.7220 N.3    36  TRP36      -0.1241
     13  CA       -27.4000   23.6710   -1.6590 C.3    36  TRP36       0.1605
     14  C        -28.2440   23.5020   -0.4000 C.2    36  TRP36       0.2264
     15  O        -29.3990   23.0720   -0.4570 O.2    36  TRP36      -0.2867
     16  CB       -28.2760   23.7750   -2.9150 C.3    36  TRP36       0.0550
     17  CG       -27.5080   24.0700   -4.1860 C.ar   36  TRP36       0.0003
     18  CD1      -26.1670   24.3280   -4.3020 C.ar   36  TRP36       0.0946
     19  CD2      -28.0480   24.1670   -5.5110 C.ar   36  TRP36       0.0152
     20  NE1      -25.8390   24.5610   -5.6200 N.ar   36  TRP36      -0.2442
     21  CE2      -26.9730   24.4650   -6.3820 C.ar   36  TRP36       0.0810
     22  CE3      -29.3340   24.0210   -6.0490 C.ar   36  TRP36       0.0012
     23  CZ2      -27.1480   24.6250   -7.7590 C.ar   36  TRP36       0.0191
     24  CZ3      -29.5060   24.1810   -7.4220 C.ar   36  TRP36       0.0001
     25  CH2      -28.4190   24.4770   -8.2590 C.ar   36  TRP36       0.0015
     26  N        -29.8390   25.3440    1.6890 N.3    38  THR38      -0.1203
     27  CA       -31.1380   26.0060    1.8840 C.3    38  THR38       0.1994
     28  C        -32.3040   25.1300    1.4050 C.2    38  THR38       0.2617
     29  O        -33.4460   25.3520    1.7980 O.2    38  THR38      -0.2717
     30  CB       -31.2280   27.4140    1.2400 C.3    38  THR38       0.1784
     31  OG1      -31.4750   27.3030   -0.1690 O.3    38  THR38      -0.2211
     32  CG2      -29.9540   28.2230    1.4850 C.3    38  THR38       0.0376
     33  N        -31.9980   24.1260    0.5820 N.am   39  LEU39      -0.1979
     34  CA       -33.0150   23.2300    0.0260 C.3    39  LEU39       0.1596
     35  C        -33.1690   21.9070    0.7880 C.2    39  LEU39       0.2287
     36  O        -33.9960   21.0630    0.4150 O.2    39  LEU39      -0.2864
     37  CB       -32.7160   22.9400   -1.4490 C.3    39  LEU39       0.0297
     38  CG       -32.6410   24.1390   -2.4040 C.3    39  LEU39       0.0022
     39  CD1      -32.2220   23.6670   -3.7930 C.3    39  LEU39       0.0001
     40  CD2      -33.9770   24.8690   -2.4430 C.3    39  LEU39       0.0001
     41  N        -39.7360   22.7270   -3.6410 N.3    48  ASP48      -0.1225
     42  CA       -39.8170   24.1440   -3.2720 C.3    48  ASP48       0.1805
     43  C        -41.1560   24.7860   -3.6730 C.2    48  ASP48       0.2598
     44  O        -42.0780   24.0890   -4.1080 O.2    48  ASP48      -0.2718
     45  CB       -38.5900   24.9360   -3.7900 C.3    48  ASP48       0.1424
     46  CG       -38.5980   25.1510   -5.3070 C.2    48  ASP48       0.3668
     47  OD1      -39.6110   24.8450   -5.9730 O.co2  48  ASP48      -0.2456
     48  OD2      -37.5730   25.6520   -5.8330 O.co2  48  ASP48      -0.2456
     49  N        -41.2500   26.1080   -3.5270 N.am   49  SER49      -0.1938
     50  CA       -42.4810   26.8560   -3.8160 C.3    49  SER49       0.2055
     51  C        -42.9030   26.8120   -5.2820 C.2    49  SER49       0.2643
     52  O        -44.0270   27.1990   -5.6130 O.2    49  SER49      -0.2714
     53  CB       -42.3210   28.3190   -3.3930 C.3    49  SER49       0.2130
     54  OG       -42.0700   28.4010   -2.0020 O.3    49  SER49      -0.2179
     55  N        -42.0020   26.3560   -6.1530 N.am   50  TYR50      -0.1973
     56  CA       -42.2530   26.3230   -7.6020 C.3    50  TYR50       0.1639
     57  C        -42.5280   24.9040   -8.0960 C.2    50  TYR50       0.2290
     58  O        -42.5520   24.6390   -9.2980 O.2    50  TYR50      -0.2864
     59  CB       -41.1050   27.0240   -8.3550 C.3    50  TYR50       0.0560
     60  CG       -40.7760   28.3170   -7.6550 C.ar   50  TYR50      -0.0198
     61  CD1      -41.6510   29.4070   -7.7220 C.ar   50  TYR50      -0.0009
     62  CD2      -39.6450   28.4250   -6.8430 C.ar   50  TYR50      -0.0009
     63  CE1      -41.3850   30.5800   -7.0300 C.ar   50  TYR50       0.0417
     64  CE2      -39.3700   29.5970   -6.1530 C.ar   50  TYR50       0.0417
     65  CZ       -40.2400   30.6660   -6.2490 C.ar   50  TYR50       0.1957
     66  OH       -39.9690   31.8240   -5.5560 O.3    50  TYR50      -0.2866
     67  N        -39.0070   32.1630   -9.1100 N.3    80  MET80      -0.1245
     68  CA       -37.7560   32.2160   -8.3630 C.3    80  MET80       0.1570
     69  C        -37.0130   33.5200   -8.6350 C.2    80  MET80       0.2261
     70  O        -36.4620   34.1280   -7.7110 O.2    80  MET80      -0.2867
     71  CB       -36.8680   31.0210   -8.6890 C.3    80  MET80       0.0387
     72  CG       -35.7970   30.7620   -7.6420 C.3    80  MET80       0.0595
     73  SD       -34.4950   29.6870   -8.2610 S.3    80  MET80      -0.1393
     74  CE       -35.4120   28.1830   -8.6130 C.3    80  MET80       0.0692
     75  N        -36.9530   35.5070   -5.3330 N.3    84  VAL84      -0.1231
     76  CA       -35.6940   35.2010   -4.6540 C.3    84  VAL84       0.1692
     77  C        -34.5310   36.0350   -5.1890 C.2    84  VAL84       0.2592
     78  O        -33.7230   36.5560   -4.4090 O.2    84  VAL84      -0.2718
     79  CB       -35.3590   33.6940   -4.7200 C.3    84  VAL84       0.0266
     80  CG1      -34.1630   33.3650   -3.8390 C.3    84  VAL84       0.0020
     81  CG2      -36.5620   32.8610   -4.2870 C.3    84  VAL84       0.0020
     82  N        -34.4500   36.1800   -6.5100 N.am   85  PHE85      -0.1976
     83  CA       -33.2920   36.8360   -7.1180 C.3    85  PHE85       0.1639
     84  C        -33.5980   38.0660   -7.9970 C.2    85  PHE85       0.2290
     85  O        -32.9610   38.2300   -9.0460 O.2    85  PHE85      -0.2864
     86  CB       -32.4940   35.8160   -7.9470 C.3    85  PHE85       0.0560
     87  CG       -32.0220   34.6190   -7.1690 C.ar   85  PHE85      -0.0200
     88  CD1      -30.9520   34.7210   -6.2900 C.ar   85  PHE85      -0.0042
     89  CD2      -32.6290   33.3770   -7.3400 C.ar   85  PHE85      -0.0042
     90  CE1      -30.5050   33.6130   -5.5800 C.ar   85  PHE85      -0.0003
     91  CE2      -32.1800   32.2630   -6.6400 C.ar   85  PHE85      -0.0003
     92  CZ       -31.1180   32.3830   -5.7580 C.ar   85  PHE85      -0.0000
     93  N        -36.7810   28.1630  -16.1540 N.3   103  TRP103     -0.1227
     94  CA       -36.1570   26.8490  -16.3140 C.3   103  TRP103      0.1737
     95  C        -35.1830   26.5980  -15.1670 C.2   103  TRP103      0.2596
     96  O        -34.3180   27.4360  -14.8980 O.2   103  TRP103     -0.2718
     97  CB       -35.4160   26.8360  -17.6530 C.3   103  TRP103      0.0564
     98  CG       -34.9230   25.5100  -18.1390 C.ar  103  TRP103      0.0003
     99  CD1      -35.5430   24.2920  -18.0150 C.ar  103  TRP103      0.0946
    100  CD2      -33.7220   25.2750  -18.8840 C.ar  103  TRP103      0.0152
    101  NE1      -34.7900   23.3170  -18.6280 N.ar  103  TRP103     -0.2442
    102  CE2      -33.6670   23.8900  -19.1650 C.ar  103  TRP103      0.0810
    103  CE3      -32.6860   26.1020  -19.3390 C.ar  103  TRP103      0.0012
    104  CZ2      -32.6080   23.3090  -19.8750 C.ar  103  TRP103      0.0191
    105  CZ3      -31.6270   25.5210  -20.0490 C.ar  103  TRP103      0.0001
    106  CH2      -31.5990   24.1390  -20.3050 C.ar  103  TRP103      0.0015
    107  N        -35.3240   25.4600  -14.4860 N.am  104  SER104     -0.1938
    108  CA       -34.4910   25.1560  -13.3120 C.3   104  SER104      0.2055
    109  C        -34.3270   23.6580  -13.0510 C.2   104  SER104      0.2643
    110  O        -34.9430   22.8250  -13.7240 O.2   104  SER104     -0.2714
    111  CB       -35.0480   25.8450  -12.0550 C.3   104  SER104      0.2130
    112  OG       -36.3300   25.3350  -11.7180 O.3   104  SER104     -0.2179
    113  N        -33.4660   23.3400  -12.0820 N.am  105  ARG105     -0.1963
    114  CA       -33.2770   21.9760  -11.5630 C.3   105  ARG105      0.1729
    115  C        -32.8200   20.9710  -12.6240 C.2   105  ARG105      0.2616
    116  O        -33.3150   19.8410  -12.6900 O.2   105  ARG105     -0.2715
    117  CB       -34.5300   21.4850  -10.8190 C.3   105  ARG105      0.0348
    118  CG       -34.8790   22.3050   -9.5790 C.3   105  ARG105      0.0492
    119  CD       -33.7680   22.3100   -8.5250 C.3   105  ARG105      0.2205
    120  NE       -34.3470   22.6120   -7.2140 N.pl3 105  ARG105     -0.0865
    121  CZ       -34.6540   23.8320   -6.7770 C.cat 105  ARG105      0.5346
    122  NH1      -34.4030   24.9140   -7.5200 N.pl3 105  ARG105      0.1354
    123  NH2      -35.2120   23.9720   -5.5800 N.pl3 105  ARG105      0.1354
    124  N        -31.8590   21.4030  -13.4390 N.am  106  TYR106     -0.1974
    125  CA       -31.2300   20.5530  -14.4580 C.3   106  TYR106      0.1639
    126  C        -30.2920   19.5740  -13.7700 C.2   106  TYR106      0.2290
    127  O        -29.3810   19.9870  -13.0440 O.2   106  TYR106     -0.2864
    128  CB       -30.4410   21.4440  -15.4140 C.3   106  TYR106      0.0560
    129  CG       -29.9440   20.8060  -16.6980 C.ar  106  TYR106     -0.0198
    130  CD1      -28.9170   19.8570  -16.6950 C.ar  106  TYR106     -0.0009
    131  CD2      -30.4610   21.2130  -17.9310 C.ar  106  TYR106     -0.0009
    132  CE1      -28.4520   19.3030  -17.8860 C.ar  106  TYR106      0.0417
    133  CE2      -30.0020   20.6700  -19.1200 C.ar  106  TYR106      0.0417
    134  CZ       -29.0030   19.7170  -19.0930 C.ar  106  TYR106      0.1957
    135  OH       -28.5660   19.2010  -20.2920 O.3   106  TYR106     -0.2866
    136  N        -33.6720   31.8550  -16.6950 N.3   139  ALA139     -0.1231
    137  CA       -32.9020   31.0450  -15.7710 C.3   139  ALA139      0.1694
    138  C        -32.0570   31.9240  -14.8640 C.2   139  ALA139      0.2592
    139  O        -31.6280   33.0110  -15.2540 O.2   139  ALA139     -0.2718
    140  CB       -32.0180   30.0710  -16.5390 C.3   139  ALA139      0.0304
    141  N        -31.8550   31.4520  -13.6400 N.am  140  ILE140     -0.1966
    142  CA       -30.8390   32.0040  -12.7630 C.3   140  ILE140      0.1727
    143  C        -29.7970   30.9080  -12.7480 C.2   140  ILE140      0.2616
    144  O        -30.0410   29.8190  -12.2210 O.2   140  ILE140     -0.2715
    145  CB       -31.3550   32.2610  -11.3300 C.3   140  ILE140      0.0290
    146  CG1      -32.5730   33.1800  -11.3300 C.3   140  ILE140      0.0022
    147  CG2      -30.2580   32.8650  -10.4650 C.3   140  ILE140      0.0023
    148  CD1      -33.9000   32.4400  -11.2840 C.3   140  ILE140      0.0001
    149  N        -28.6510   31.1560  -13.3630 N.am  141  MET141     -0.1963
    150  CA       -27.6790   30.0860  -13.4510 C.3   141  MET141      0.1736
    151  C        -26.2650   30.4990  -13.1100 C.2   141  MET141      0.2616
    152  O        -25.8740   31.6730  -13.2510 O.2   141  MET141     -0.2715
    153  CB       -27.7320   29.3980  -14.8220 C.3   141  MET141      0.0427
    154  CG       -26.9630   30.1000  -15.9220 C.3   141  MET141      0.0599
    155  SD       -27.9250   31.3430  -16.7860 S.3   141  MET141     -0.1393
    156  CE       -26.8400   31.6480  -18.1760 C.3   141  MET141      0.0692
    157  N        -25.5170   29.5110  -12.6330 N.am  142  GLU142     -0.1977
    158  CA       -24.0990   29.6890  -12.3880 C.3   142  GLU142      0.1602
    159  C        -23.4290   30.0320  -13.7080 C.2   142  GLU142      0.2287
    160  O        -23.8000   29.5100  -14.7580 O.2   142  GLU142     -0.2864
    161  CB       -23.4950   28.4300  -11.7730 C.3   142  GLU142      0.0415
    162  CG       -23.9570   28.1860  -10.3460 C.3   142  GLU142      0.1163
    163  CD       -23.7450   26.7560   -9.8960 C.2   142  GLU142      0.3649
    164  OE1      -22.9970   26.5560   -8.9230 O.co2 142  GLU142     -0.2457
    165  OE2      -24.3260   25.8340  -10.5090 O.co2 142  GLU142     -0.2457
    166  N        -22.4450   27.8670  -16.8240 N.3   145  TRP145     -0.1241
    167  CA       -23.4350   27.4520  -17.8190 C.3   145  TRP145      0.1605
    168  C        -23.2900   28.1530  -19.1700 C.2   145  TRP145      0.2264
    169  O        -23.7090   27.6090  -20.1920 O.2   145  TRP145     -0.2867
    170  CB       -24.8550   27.6320  -17.2830 C.3   145  TRP145      0.0550
    171  CG       -25.2980   26.4640  -16.4800 C.ar  145  TRP145      0.0003
    172  CD1      -25.3040   26.3520  -15.1210 C.ar  145  TRP145      0.0946
    173  CD2      -25.7750   25.2180  -16.9910 C.ar  145  TRP145      0.0152
    174  NE1      -25.7800   25.1120  -14.7490 N.ar  145  TRP145     -0.2442
    175  CE2      -26.0720   24.3950  -15.8800 C.ar  145  TRP145      0.0810
    176  CE3      -25.9890   24.7180  -18.2830 C.ar  145  TRP145      0.0012
    177  CZ2      -26.5680   23.0960  -16.0210 C.ar  145  TRP145      0.0191
    178  CZ3      -26.4900   23.4230  -18.4240 C.ar  145  TRP145      0.0001
    179  CH2      -26.7700   22.6290  -17.2950 C.ar  145  TRP145      0.0015
    180  N        -23.7820   34.2860   -5.3940 N.3   165  VAL165     -0.1231
    181  CA       -24.8880   33.6880   -4.6530 C.3   165  VAL165      0.1692
    182  C        -24.2750   32.5180   -3.9030 C.2   165  VAL165      0.2591
    183  O        -23.8020   31.5610   -4.5200 O.2   165  VAL165     -0.2718
    184  CB       -26.0270   33.2150   -5.5880 C.3   165  VAL165      0.0266
    185  CG1      -27.0560   32.3770   -4.8290 C.3   165  VAL165      0.0020
    186  CG2      -26.7030   34.4090   -6.2500 C.3   165  VAL165      0.0020
    187  N        -24.2500   32.6210   -2.5750 N.am  166  GLU166     -0.1979
    188  CA       -23.6510   31.5920   -1.7170 C.3   166  GLU166      0.1602
    189  C        -22.3290   31.0600   -2.2810 C.2   166  GLU166      0.2287
    190  O        -22.2150   29.8690   -2.5860 O.2   166  GLU166     -0.2864
    191  CB       -24.6400   30.4330   -1.4920 C.3   166  GLU166      0.0415
    192  CG       -25.8700   30.7930   -0.6700 C.3   166  GLU166      0.1163
    193  CD       -25.5590   31.0700    0.7950 C.2   166  GLU166      0.3649
    194  OE1      -24.6060   30.4720    1.3410 O.co2 166  GLU166     -0.2457
    195  OE2      -26.2760   31.8910    1.4050 O.co2 166  GLU166     -0.2457
    196  N        -23.1800   33.8520  -10.3050 N.3   170  THR170     -0.1218
    197  CA       -24.5140   33.4990  -10.7800 C.3   170  THR170      0.1862
    198  C        -25.0720   34.6840  -11.5740 C.2   170  THR170      0.2287
    199  O        -24.7230   35.8360  -11.3000 O.2   170  THR170     -0.2866
    200  CB       -25.4240   33.1620   -9.5720 C.3   170  THR170      0.1770
    201  OG1      -24.7600   32.2050   -8.7320 O.3   170  THR170     -0.2211
    202  CG2      -26.7460   32.5760  -10.0110 C.3   170  THR170      0.0375
@<TRIPOS>BOND
     1   106   105   ar
     2   106   104   ar
     3   135   134    1
     4   169   168    2
     5   105   103   ar
     6   104   102   ar
     7   103   100   ar
     8   168   167    1
     9   102   100   ar
    10   102   101   ar
    11   133   134   ar
    12   133   131   ar
    13   134   132   ar
    14   100    98   ar
    15   101    99   ar
    16   178   176   ar
    17   178   179   ar
    18   176   173   ar
    19   156   155    1
    20    98    99   ar
    21    98    97    1
    22   131   129   ar
    23   132   130   ar
    24   167   170    1
    25   167   166    1
    26    97    94    1
    27   179   177   ar
    28   170   171    1
    29   173   171   ar
    30   173   175   ar
    31   155   154    1
    32   129   130   ar
    33   129   128    1
    34   136   137    1
    35   140   137    1
    36   171   172   ar
    37    94    93    1
    38    94    95    1
    39   177   175   ar
    40   154   153    1
    41   175   174   ar
    42   137   138    1
    43   128   125    1
    44   139   138    2
    45    95    96    2
    46    95   107   am
    47   172   174   ar
    48   138   141   am
    49   153   150    1
    50   160   159    2
    51   107   108    1
    52   125   126    1
    53   125   124    1
    54   126   127    2
    55   110   109    2
    56   159   158    1
    57   141   142    1
    58   150   149    1
    59   150   151    1
    60   124   115   am
    61   149   143   am
    62   108   109    1
    63   108   111    1
    64   152   151    2
    65   151   157   am
    66   109   113   am
    67   142   143    1
    68   142   145    1
    69   143   144    2
    70   116   115    2
    71   157   158    1
    72   115   114    1
    73   158   161    1
    74   113   114    1
    75   111   112    1
    76   161   162    1
    77   198   199    2
    78   198   197    1
    79   114   117    1
    80   146   145    1
    81   146   148    1
    82   145   147    1
    83   117   118    1
    84   197   196    1
    85   197   200    1
    86   165   163   ar
    87   162   163    1
    88   202   200    1
    89    11     9   ar
    90    11    10   ar
    91   163   164   ar
    92   118   119    1
    93   200   201    1
    94     9     7   ar
    95    58    57    2
    96    67    68    1
    97    10     8   ar
    98    85    84    2
    99    71    68    1
   100    71    72    1
   101    69    68    1
   102    69    70    2
   103    74    73    1
   104   119   120    1
   105    59    60    1
   106    59    56    1
   107    73    72    1
   108    25    23   ar
   109    25    24   ar
   110    57    56    1
   111     7     6   ar
   112    84    83    1
   113    86    87    1
   114    86    83    1
   115    23    21   ar
   116     8     6   ar
   117    61    60   ar
   118    61    63   ar
   119    60    62   ar
   120    56    55    1
   121   122   121    1
   122    24    22   ar
   123    89    87   ar
   124    89    91   ar
   125   120   121    2
   126    87    88   ar
   127     6     5    1
   128    83    82    1
   129    63    65   ar
   130    62    64   ar
   131   121   123    1
   132    91    92   ar
   133    82    77   am
   134    21    20   ar
   135    21    19   ar
   136    88    90   ar
   137   186   184    1
   138    65    64   ar
   139    65    66    1
   140    55    51   am
   141    22    19   ar
   142    47    46   ar
   143    48    46   ar
   144    92    90   ar
   145     5     2    1
   146    20    18   ar
   147    52    51    2
   148     1     2    1
   149   184   185    1
   150   184   181    1
   151    19    17   ar
   152   180   181    1
   153    75    76    1
   154    46    45    1
   155    51    50    1
   156     2     3    1
   157    77    76    1
   158    77    78    2
   159    79    76    1
   160    79    81    1
   161    79    80    1
   162   181   182    1
   163   183   182    2
   164    18    17   ar
   165    17    16    1
   166    44    43    2
   167   182   187   am
   168    50    49    1
   169    50    53    1
   170    39    38    1
   171    45    42    1
   172     3     4    2
   173    43    49   am
   174    43    42    1
   175    41    42    1
   176    53    54    1
   177    16    13    1
   178   190   189    2
   179   187   188    1
   180    40    38    1
   181    38    37    1
   182   189   188    1
   183    12    13    1
   184   188   191    1
   185    13    14    1
   186   191   192    1
   187    37    34    1
   188   192   193    1
   189    15    14    2
   190    31    30    1
   191    34    33    1
   192    34    35    1
   193    36    35    2
   194    33    28   am
   195   193   194   ar
   196   193   195   ar
   197    30    32    1
   198    30    27    1
   199    28    29    2
   200    28    27    1
   201    26    27    1
