@<TRIPOS>MOLECULE
tmp/5w8hC00.pdb
 150 141 0 0 0
SMALL
GASTEIGER

@<TRIPOS>ATOM
      1  N         -6.3500   -3.8190   17.1300 N.3    96  ARG96      -0.1231
      2  CA        -6.4120   -2.3910   16.8050 C.3    96  ARG96       0.1694
      3  C         -7.8290   -1.9090   16.5300 C.2    96  ARG96       0.2591
      4  O         -8.6360   -2.6480   15.9500 O.2    96  ARG96      -0.2718
      5  CB        -5.5810   -2.0900   15.5580 C.3    96  ARG96       0.0321
      6  CG        -4.1310   -2.5750   15.6040 C.3    96  ARG96       0.0489
      7  CD        -3.1780   -1.4990   16.1090 C.3    96  ARG96       0.2205
      8  NE        -3.3930   -1.1770   17.5160 N.pl3  96  ARG96      -0.0865
      9  CZ        -2.9750   -1.9230   18.5270 C.cat  96  ARG96       0.5346
     10  NH1       -2.3080   -3.0420   18.2950 N.pl3  96  ARG96       0.1354
     11  NH2       -3.1950   -1.5400   19.7760 N.pl3  96  ARG96       0.1354
     12  N         -8.1390   -0.6700   16.9030 N.am   97  GLN97      -0.1979
     13  CA        -9.4790   -0.1200   16.6200 C.3    97  GLN97       0.1601
     14  C         -9.7530   -0.0650   15.1350 C.2    97  GLN97       0.2287
     15  O         -8.9540    0.4870   14.3800 O.2    97  GLN97      -0.2864
     16  CB        -9.6320    1.2740   17.2080 C.3    97  GLN97       0.0394
     17  CG       -11.0890    1.7000   17.4170 C.3    97  GLN97       0.0908
     18  CD       -11.2030    3.0320   18.1370 C.2    97  GLN97       0.2608
     19  OE1      -10.1920    3.6680   18.4210 O.2    97  GLN97      -0.2717
     20  NE2      -12.4260    3.4610   18.4300 N.am   97  GLN97      -0.0878
     21  N        -14.7960    2.4570   21.3160 N.3   103  ARG103     -0.1245
     22  CA       -13.7560    2.1070   22.2920 C.3   103  ARG103      0.1563
     23  C        -14.1770    0.9110   23.1510 C.2   103  ARG103      0.2260
     24  O        -13.3800    0.0170   23.4070 O.2   103  ARG103     -0.2867
     25  CB       -13.4330    3.2980   23.2000 C.3   103  ARG103      0.0307
     26  CG       -12.7710    4.4730   22.5030 C.3   103  ARG103      0.0489
     27  CD       -12.5960    5.6330   23.4830 C.3   103  ARG103      0.2205
     28  NE       -11.6500    5.3060   24.5570 N.pl3 103  ARG103     -0.0865
     29  CZ       -11.4680    6.0450   25.6480 C.cat 103  ARG103      0.5346
     30  NH1      -12.1710    7.1560   25.8180 N.pl3 103  ARG103      0.1354
     31  NH2      -10.5890    5.6700   26.5700 N.pl3 103  ARG103      0.1354
     32  N        -13.8530   -2.3160   21.1440 N.3   106  LEU106     -0.1245
     33  CA       -12.4430   -2.6030   20.8920 C.3   106  LEU106      0.1561
     34  C        -11.8030   -3.1560   22.1620 C.2   106  LEU106      0.2260
     35  O        -11.0540   -4.1350   22.1240 O.2   106  LEU106     -0.2867
     36  CB       -11.7010   -1.3500   20.3940 C.3   106  LEU106      0.0270
     37  CG       -10.1780   -1.4500   20.1580 C.3   106  LEU106      0.0019
     38  CD1       -9.3670   -1.3490   21.4600 C.3   106  LEU106      0.0001
     39  CD2       -9.7650   -2.7110   19.3690 C.3   106  LEU106      0.0001
     40  N         -2.3480   -1.1100   23.3330 N.3   135  ASN135     -0.1226
     41  CA        -3.2840    0.0090   23.5140 C.3   135  ASN135      0.1770
     42  C         -4.7310   -0.4280   23.4280 C.2   135  ASN135      0.2439
     43  O         -5.0310   -1.3730   22.7000 O.2   135  ASN135     -0.2733
     44  CB        -3.0130    1.0940   22.4670 C.3   135  ASN135      0.1168
     45  CG        -1.8700    1.9950   22.8660 C.2   135  ASN135      0.2627
     46  OD1       -1.7750    2.4240   24.0330 O.2   135  ASN135     -0.2716
     47  ND2       -0.9890    2.2780   21.9250 N.am  135  ASN135     -0.0877
     48  N         -5.6420    0.2550   24.1560 N.am  136  PRO136     -0.2729
     49  CA        -5.4040    1.4120   25.0380 C.3   136  PRO136      0.1401
     50  C         -4.7980    0.9740   26.3660 C.2   136  PRO136      0.2269
     51  O         -5.3960    0.2050   27.1290 O.2   136  PRO136     -0.2865
     52  CB        -6.8000    2.0190   25.2300 C.3   136  PRO136      0.0296
     53  CG        -7.7240    0.8850   24.9990 C.3   136  PRO136      0.0237
     54  CD        -7.0800   -0.0470   24.0230 C.3   136  PRO136      0.0939
     55  N          6.6350    6.9260   27.1100 N.3   162  LEU162     -0.1231
     56  CA         7.0960    7.4870   25.8210 C.3   162  LEU162      0.1693
     57  C          6.6070    8.9210   25.5940 C.2   162  LEU162      0.2592
     58  O          7.3600    9.7560   25.0680 O.2   162  LEU162     -0.2718
     59  CB         6.6560    6.6010   24.6510 C.3   162  LEU162      0.0284
     60  CG         7.0510    7.0800   23.2420 C.3   162  LEU162      0.0019
     61  CD1        8.5440    7.4360   23.1050 C.3   162  LEU162      0.0001
     62  CD2        6.7510    6.0020   22.2550 C.3   162  LEU162      0.0001
     63  N          5.3610    9.2020   25.9810 N.am  163  ASP163     -0.1974
     64  CA         4.8340   10.5690   25.9210 C.3   163  ASP163      0.1709
     65  C          5.8040   11.5420   26.5850 C.2   163  ASP163      0.2293
     66  O          6.0660   12.6330   26.0690 O.2   163  ASP163     -0.2864
     67  CB         3.4740   10.6670   26.6030 C.3   163  ASP163      0.1436
     68  CG         2.3700    9.9860   25.8180 C.2   163  ASP163      0.3671
     69  OD1        2.5830    9.6660   24.6150 O.co2 163  ASP163     -0.2456
     70  OD2        1.2830    9.7860   26.4070 O.co2 163  ASP163     -0.2456
     71  N          8.9530   11.8590   24.5080 N.3   166  ARG166     -0.1245
     72  CA         8.7440   12.7350   23.3620 C.3   166  ARG166      0.1563
     73  C          8.7580   14.1890   23.8140 C.2   166  ARG166      0.2260
     74  O          9.2980   15.0770   23.1390 O.2   166  ARG166     -0.2867
     75  CB         7.4100   12.4290   22.6510 C.3   166  ARG166      0.0307
     76  CG         7.3900   11.0740   21.9260 C.3   166  ARG166      0.0489
     77  CD         6.0680   10.8810   21.1600 C.3   166  ARG166      0.2205
     78  NE         6.0860    9.7360   20.2380 N.pl3 166  ARG166     -0.0865
     79  CZ         5.2540    8.6970   20.3000 C.cat 166  ARG166      0.5346
     80  NH1        5.3400    7.7260   19.3990 N.pl3 166  ARG166      0.1354
     81  NH2        4.3200    8.6320   21.2480 N.pl3 166  ARG166      0.1354
     82  N         -2.7370    7.9660   28.8020 N.3   190  HIS190     -0.1226
     83  CA        -1.8800    8.0020   27.6290 C.3   190  HIS190      0.1752
     84  C         -2.6870    8.4670   26.4180 C.2   190  HIS190      0.2597
     85  O         -3.7430    7.9300   26.1560 O.2   190  HIS190     -0.2718
     86  CB        -1.2870    6.6240   27.3550 C.3   190  HIS190      0.0759
     87  CG        -0.6270    6.5050   26.0150 C.ar  190  HIS190      0.0818
     88  ND1        0.4490    7.2830   25.6450 N.ar  190  HIS190     -0.2268
     89  CD2       -0.8810    5.6890   24.9640 C.ar  190  HIS190      0.1154
     90  CE1        0.8250    6.9540   24.4210 C.ar  190  HIS190      0.1986
     91  NE2        0.0370    5.9870   23.9870 N.ar  190  HIS190     -0.2212
     92  N         -2.1840    9.4420   25.6770 N.am  191  GLY191     -0.1942
     93  CA        -2.9170    9.8740   24.4930 C.3   191  GLY191      0.2014
     94  C         -3.4280   11.3000   24.5530 C.2   191  GLY191      0.2638
     95  O         -2.7570   12.1760   25.0930 O.2   191  GLY191     -0.2714
     96  N         -4.6100   11.5370   23.9850 N.am  192  ASP192     -0.1971
     97  CA        -5.1010   12.9020   23.8050 C.3   192  ASP192      0.1709
     98  C         -5.4020   13.6100   25.1230 C.2   192  ASP192      0.2293
     99  O         -5.3780   14.8320   25.1810 O.2   192  ASP192     -0.2864
    100  CB        -6.3530   12.9070   22.9230 C.3   192  ASP192      0.1436
    101  CG        -6.1160   12.2690   21.5570 C.2   192  ASP192      0.3671
    102  OD1       -5.1550   11.4830   21.4050 O.co2 192  ASP192     -0.2456
    103  OD2       -6.9090   12.5390   20.6320 O.co2 192  ASP192     -0.2456
    104  N          1.0590   14.7360   21.5210 N.3   232  VAL232     -0.1245
    105  CA        -0.1760   13.9800   21.3340 C.3   232  VAL232      0.1561
    106  C         -0.3400   13.5450   19.8870 C.2   232  VAL232      0.2260
    107  O         -0.8970   12.4840   19.5860 O.2   232  VAL232     -0.2867
    108  CB        -1.3940   14.8240   21.7600 C.3   232  VAL232      0.0252
    109  CG1       -2.6890   14.1530   21.3640 C.3   232  VAL232      0.0019
    110  CG2       -1.3470   15.0740   23.2600 C.3   232  VAL232      0.0019
    111  N          2.5710   10.8920   17.4700 N.3   235  ALA235     -0.1231
    112  CA         2.2400    9.4880   17.2650 C.3   235  ALA235      0.1694
    113  C          1.4000    9.3370   15.9980 C.2   235  ALA235      0.2592
    114  O          1.6780    8.4970   15.1280 O.2   235  ALA235     -0.2718
    115  CB         1.5050    8.9370   18.4560 C.3   235  ALA235      0.0304
    116  N          0.3680   10.1690   15.8900 N.am  236  TYR236     -0.1976
    117  CA        -0.4920   10.1370   14.7160 C.3   236  TYR236      0.1639
    118  C          0.2890   10.4920   13.4640 C.2   236  TYR236      0.2290
    119  O          0.0710    9.9100   12.3910 O.2   236  TYR236     -0.2864
    120  CB        -1.6690   11.1030   14.8920 C.3   236  TYR236      0.0560
    121  CG        -2.6320   10.6800   15.9640 C.ar  236  TYR236     -0.0198
    122  CD1       -3.4830    9.5920   15.7650 C.ar  236  TYR236     -0.0009
    123  CD2       -2.7100   11.3660   17.1710 C.ar  236  TYR236     -0.0009
    124  CE1       -4.3800    9.1920   16.7420 C.ar  236  TYR236      0.0417
    125  CE2       -3.6060   10.9760   18.1550 C.ar  236  TYR236      0.0417
    126  CZ        -4.4340    9.8830   17.9360 C.ar  236  TYR236      0.1957
    127  OH        -5.3240    9.4790   18.9070 O.3   236  TYR236     -0.2866
    128  N          2.4080    7.5050   12.3490 N.3   239  ILE239     -0.1245
    129  CA         1.5080    6.5190   11.7580 C.3   239  ILE239      0.1561
    130  C          1.0700    6.9200   10.3590 C.2   239  ILE239      0.2260
    131  O          1.0260    6.0880    9.4530 O.2   239  ILE239     -0.2867
    132  CB         0.2650    6.3000   12.6530 C.3   239  ILE239      0.0252
    133  CG1        0.6920    5.6310   13.9660 C.3   239  ILE239      0.0019
    134  CG2       -0.8040    5.4880   11.9200 C.3   239  ILE239      0.0019
    135  CD1       -0.2320    5.9330   15.1400 C.3   239  ILE239      0.0001
    136  N          4.0580    3.1470   14.6090 N.3   245  THR245     -0.1218
    137  CA         5.2770    3.4900   15.3290 C.3   245  THR245      0.1862
    138  C          5.8590    2.2360   15.9810 C.2   245  THR245      0.2287
    139  O          5.1200    1.2900   16.3180 O.2   245  THR245     -0.2866
    140  CB         5.0470    4.5660   16.3940 C.3   245  THR245      0.1770
    141  OG1        4.7020    3.9490   17.6430 O.3   245  THR245     -0.2211
    142  CG2        3.9260    5.5000   15.9600 C.3   245  THR245      0.0375
    143  N          8.9030    3.3060   20.8930 N.3   249  ILE249     -0.1245
    144  CA         8.2700    2.5130   21.9460 C.3   249  ILE249      0.1561
    145  C          9.1940    1.3700   22.3800 C.2   249  ILE249      0.2260
    146  O          9.2940    1.0680   23.5650 O.2   249  ILE249     -0.2867
    147  CB         6.8610    1.9720   21.5130 C.3   249  ILE249      0.0252
    148  CG1        6.2480    1.0990   22.6060 C.3   249  ILE249      0.0019
    149  CG2        6.9270    1.1580   20.2710 C.3   249  ILE249      0.0019
    150  CD1        5.8580    1.8900   23.8160 C.3   249  ILE249      0.0001
@<TRIPOS>BOND
     1   131   130    2
     2   130   129    1
     3   129   128    1
     4   129   132    1
     5   134   132    1
     6   119   118    2
     7   132   133    1
     8   118   117    1
     9   133   135    1
    10    15    14    2
    11   136   137    1
    12   117   120    1
    13   117   116    1
    14   120   121    1
    15   114   113    2
    16    14    13    1
    17   137   138    1
    18   137   140    1
    19     5     6    1
    20     5     2    1
    21     6     7    1
    22   122   121   ar
    23   122   124   ar
    24   116   113   am
    25     4     3    2
    26   142   140    1
    27   121   123   ar
    28   138   139    2
    29   113   112    1
    30     7     8    1
    31   140   141    1
    32     3     2    1
    33     3    12   am
    34    13    12    1
    35    13    16    1
    36   124   126   ar
    37     2     1    1
    38   123   125   ar
    39    16    17    1
    40   112   111    1
    41   112   115    1
    42    17    18    1
    43     8     9    2
    44   126   125   ar
    45   126   127    1
    46    18    19    2
    47    18    20   am
    48    10     9    1
    49     9    11    1
    50    39    37    1
    51    80    79    1
    52   107   106    2
    53   106   105    1
    54    37    36    1
    55    37    38    1
    56    78    79    2
    57    78    77    1
    58   149   147    1
    59    79    81    1
    60    36    33    1
    61   103   101   ar
    62    33    32    1
    63    33    34    1
    64   143   144    1
    65    77    76    1
    66    21    22    1
    67   105   104    1
    68   105   108    1
    69   109   108    1
    70   102   101   ar
    71   147   144    1
    72   147   148    1
    73   101   100    1
    74   108   110    1
    75    47    45   am
    76    76    75    1
    77   144   145    1
    78    35    34    2
    79    62    60    1
    80    22    23    1
    81    22    25    1
    82   145   146    2
    83    44    45    1
    84    44    41    1
    85    26    25    1
    86    26    27    1
    87   148   150    1
    88    75    72    1
    89    43    42    2
    90    45    46    2
    91   100    97    1
    92    61    60    1
    93    74    73    2
    94    23    24    2
    95    60    59    1
    96    40    41    1
    97    72    73    1
    98    72    71    1
    99    42    41    1
   100    42    48   am
   101    27    28    1
   102    97    96    1
   103    97    98    1
   104    96    94   am
   105    91    90   ar
   106    91    89   ar
   107    54    48    1
   108    54    53    1
   109    48    49    1
   110    90    88   ar
   111    93    94    1
   112    93    92    1
   113    94    95    2
   114    28    29    2
   115    69    68   ar
   116    59    56    1
   117    89    87   ar
   118    53    52    1
   119    49    52    1
   120    49    50    1
   121    58    57    2
   122    98    99    2
   123    57    56    1
   124    57    63   am
   125    88    87   ar
   126    29    30    1
   127    29    31    1
   128    92    84   am
   129    68    70   ar
   130    68    67    1
   131    56    55    1
   132    64    63    1
   133    64    65    1
   134    64    67    1
   135    87    86    1
   136    66    65    2
   137    85    84    2
   138    50    51    2
   139    84    83    1
   140    86    83    1
   141    83    82    1
