@<TRIPOS>MOLECULE
tmp/5w8hC01.pdb
 100 95 0 0 0
SMALL
GASTEIGER

@<TRIPOS>ATOM
      1  N          5.3070  -11.0070   24.2180 N.3    23  VAL23      -0.1231
      2  CA         4.1260  -11.5920   23.5880 C.3    23  VAL23       0.1692
      3  C          3.6720  -10.6830   22.4600 C.2    23  VAL23       0.2592
      4  O          3.3870   -9.5070   22.6930 O.2    23  VAL23      -0.2718
      5  CB         2.9830  -11.7500   24.5800 C.3    23  VAL23       0.0266
      6  CG1        1.7500  -12.3750   23.8700 C.3    23  VAL23       0.0020
      7  CG2        3.4290  -12.6040   25.7650 C.3    23  VAL23       0.0020
      8  N          3.5920  -11.2350   21.2570 N.am   24  GLY24      -0.1957
      9  CA         3.3030  -10.4430   20.0820 C.3    24  GLY24       0.1869
     10  C          4.5660  -10.0840   19.3320 C.2    24  GLY24       0.2309
     11  O          5.4340   -9.4140   19.8780 O.2    24  GLY24      -0.2863
     12  N          6.3240  -15.1600   21.7700 N.3    48  VAL48      -0.1231
     13  CA         5.0750  -15.9030   21.6010 C.3    48  VAL48       0.1692
     14  C          4.1740  -15.1140   20.6900 C.2    48  VAL48       0.2592
     15  O          4.1160  -13.8900   20.7880 O.2    48  VAL48      -0.2718
     16  CB         4.3290  -16.1340   22.9400 C.3    48  VAL48       0.0266
     17  CG1        2.9710  -16.8350   22.6690 C.3    48  VAL48       0.0020
     18  CG2        5.1630  -16.9620   23.8220 C.3    48  VAL48       0.0020
     19  N          3.5060  -15.7960   19.7710 N.am   49  ASP49      -0.1960
     20  CA         2.4500  -15.1610   18.9710 C.3    49  ASP49       0.1840
     21  C          1.5490  -16.2910   18.4630 C.2    49  ASP49       0.2621
     22  O          1.7630  -17.4530   18.8100 O.2    49  ASP49      -0.2715
     23  CB         3.0530  -14.3300   17.8120 C.3    49  ASP49       0.1450
     24  CG         2.0780  -13.2830   17.2570 C.2    49  ASP49       0.3671
     25  OD1        0.9550  -13.6660   16.8160 O.co2  49  ASP49      -0.2456
     26  OD2        2.4300  -12.0800   17.2620 O.co2  49  ASP49      -0.2456
     27  N          0.5330  -15.9750   17.6630 N.am   50  VAL50      -0.1977
     28  CA        -0.3290  -17.0350   17.1520 C.3    50  VAL50       0.1596
     29  C         -0.1050  -17.3410   15.6870 C.2    50  VAL50       0.2287
     30  O         -0.6110  -18.3340   15.1850 O.2    50  VAL50      -0.2864
     31  CB        -1.8170  -16.6950   17.3310 C.3    50  VAL50       0.0276
     32  CG1       -2.1620  -16.6310   18.7970 C.3    50  VAL50       0.0022
     33  CG2       -2.1440  -15.3800   16.6400 C.3    50  VAL50       0.0022
     34  N          2.6680  -21.6710   25.3920 N.3    80  TYR80      -0.1241
     35  CA         3.2540  -20.8070   26.4150 C.3    80  TYR80       0.1605
     36  C          4.2660  -21.5190   27.3400 C.2    80  TYR80       0.2264
     37  O          4.9410  -20.8600   28.1570 O.2    80  TYR80      -0.2867
     38  CB         2.1390  -20.1580   27.2410 C.3    80  TYR80       0.0534
     39  CG         1.5340  -18.9740   26.5330 C.ar   80  TYR80      -0.0201
     40  CD1        0.6010  -19.1520   25.5190 C.ar   80  TYR80      -0.0009
     41  CD2        1.8960  -17.6870   26.8710 C.ar   80  TYR80      -0.0009
     42  CE1        0.0550  -18.0740   24.8630 C.ar   80  TYR80       0.0417
     43  CE2        1.3600  -16.6030   26.2190 C.ar   80  TYR80       0.0417
     44  CZ         0.4460  -16.8000   25.2170 C.ar   80  TYR80       0.1957
     45  OH        -0.0890  -15.7110   24.5670 O.3    80  TYR80      -0.2866
     46  N          0.6110   -7.7510   22.1880 N.3    93  ALA93      -0.1231
     47  CA        -0.4260   -8.2740   21.2970 C.3    93  ALA93       0.1694
     48  C         -1.7630   -7.6340   21.5660 C.2    93  ALA93       0.2592
     49  O         -1.9920   -7.0600   22.6360 O.2    93  ALA93      -0.2718
     50  CB        -0.5610   -9.7880   21.4430 C.3    93  ALA93       0.0304
     51  N         -2.6770   -7.7800   20.6080 N.am   94  GLY94      -0.1957
     52  CA        -4.0360   -7.3380   20.8310 C.3    94  GLY94       0.1869
     53  C         -4.6410   -6.7650   19.5610 C.2    94  GLY94       0.2309
     54  O         -3.9900   -6.6890   18.5110 O.2    94  GLY94      -0.2863
     55  N        -12.8790   -6.7510   22.7230 N.3   109  ARG109     -0.1245
     56  CA       -12.1180   -7.6860   21.9010 C.3   109  ARG109      0.1563
     57  C        -10.7530   -7.9910   22.5060 C.2   109  ARG109      0.2260
     58  O        -10.2980   -9.1190   22.4440 O.2   109  ARG109     -0.2867
     59  CB       -11.9400   -7.1540   20.4870 C.3   109  ARG109      0.0307
     60  CG       -13.2340   -7.1950   19.6920 C.3   109  ARG109      0.0489
     61  CD       -12.9270   -7.2610   18.2000 C.3   109  ARG109      0.2205
     62  NE       -12.3110   -6.0370   17.6840 N.pl3 109  ARG109     -0.0865
     63  CZ       -11.2490   -6.0100   16.8870 C.cat 109  ARG109      0.5346
     64  NH1      -10.6430   -7.1390   16.5330 N.pl3 109  ARG109      0.1354
     65  NH2      -10.7830   -4.8410   16.4440 N.pl3 109  ARG109      0.1354
     66  N        -11.0940  -10.3370   25.4590 N.3   112  ASN112     -0.1225
     67  CA       -11.2570  -11.7000   24.9850 C.3   112  ASN112      0.1785
     68  C         -9.9300  -12.3210   24.5850 C.2   112  ASN112      0.2597
     69  O         -9.7030  -13.4960   24.8540 O.2   112  ASN112     -0.2718
     70  CB       -12.2570  -11.7380   23.8210 C.3   112  ASN112      0.1169
     71  CG       -13.6640  -11.3730   24.2770 C.2   112  ASN112      0.2627
     72  OD1      -13.9650  -11.4460   25.4680 O.2   112  ASN112     -0.2716
     73  ND2      -14.5120  -10.9450   23.3460 N.am  112  ASN112     -0.0877
     74  N         -9.0400  -11.5230   23.9910 N.am  113  ILE113     -0.1980
     75  CA        -7.6650  -11.9800   23.7260 C.3   113  ILE113      0.1595
     76  C         -6.8580  -12.1670   25.0310 C.2   113  ILE113      0.2287
     77  O         -6.1660  -13.1750   25.1740 O.2   113  ILE113     -0.2864
     78  CB        -6.9170  -11.0100   22.7780 C.3   113  ILE113      0.0276
     79  CG1       -7.5990  -11.0190   21.4070 C.3   113  ILE113      0.0022
     80  CG2       -5.4220  -11.3930   22.6640 C.3   113  ILE113      0.0022
     81  CD1       -7.2130   -9.8470   20.5170 C.3   113  ILE113      0.0001
     82  N         -7.0960  -15.3340   27.0410 N.3   116  PHE116     -0.1227
     83  CA        -6.3190  -16.4620   26.5750 C.3   116  PHE116      0.1736
     84  C         -4.8480  -16.2510   26.9590 C.2   116  PHE116      0.2595
     85  O         -4.2180  -17.1320   27.5510 O.2   116  PHE116     -0.2718
     86  CB        -6.4780  -16.6290   25.0670 C.3   116  PHE116      0.0547
     87  CG        -5.4520  -17.5270   24.4430 C.ar  116  PHE116     -0.0202
     88  CD1       -5.5620  -18.9080   24.5430 C.ar  116  PHE116     -0.0042
     89  CD2       -4.3740  -16.9890   23.7460 C.ar  116  PHE116     -0.0042
     90  CE1       -4.6090  -19.7390   23.9610 C.ar  116  PHE116     -0.0003
     91  CE2       -3.4190  -17.8170   23.1580 C.ar  116  PHE116     -0.0003
     92  CZ        -3.5410  -19.1900   23.2690 C.ar  116  PHE116     -0.0000
     93  N         -4.3150  -15.0760   26.6410 N.am  117  ILE117     -0.1980
     94  CA        -2.8940  -14.8120   26.9210 C.3   117  ILE117      0.1595
     95  C         -2.5270  -14.8580   28.4080 C.2   117  ILE117      0.2287
     96  O         -1.5830  -15.5510   28.8380 O.2   117  ILE117     -0.2864
     97  CB        -2.4710  -13.4290   26.3760 C.3   117  ILE117      0.0276
     98  CG1       -2.5350  -13.4020   24.8500 C.3   117  ILE117      0.0022
     99  CG2       -1.0410  -13.0920   26.8070 C.3   117  ILE117      0.0022
    100  CD1       -2.2940  -12.0080   24.2930 C.3   117  ILE117      0.0001
@<TRIPOS>BOND
     1    30    29    2
     2    29    28    1
     3    65    63    1
     4    64    63    1
     5    33    31    1
     6    25    24   ar
     7    63    62    2
     8    28    31    1
     9    28    27    1
    10    24    26   ar
    11    24    23    1
    12    31    32    1
    13    27    21   am
    14    62    61    1
    15    23    20    1
    16    61    60    1
    17    21    22    2
    18    21    20    1
    19    54    53    2
    20    20    19    1
    21    10    11    2
    22    10     9    1
    23    53    52    1
    24    60    59    1
    25    19    14   am
    26     9     8    1
    27    59    56    1
    28    81    79    1
    29    51    52    1
    30    51    48   am
    31    14    15    2
    32    14    13    1
    33     8     3   am
    34    47    50    1
    35    47    48    1
    36    47    46    1
    37    79    78    1
    38    48    49    2
    39    13    12    1
    40    13    16    1
    41    56    57    1
    42    56    55    1
    43    58    57    2
    44     3     4    2
    45     3     2    1
    46    80    78    1
    47    17    16    1
    48    78    75    1
    49    16    18    1
    50    91    92   ar
    51    91    89   ar
    52    92    90   ar
    53    73    71   am
    54     2     1    1
    55     2     5    1
    56    75    74    1
    57    75    76    1
    58    89    87   ar
    59    70    71    1
    60    70    67    1
    61     6     5    1
    62    90    88   ar
    63    74    68   am
    64    71    72    2
    65   100    98    1
    66    87    88   ar
    67    87    86    1
    68    45    44    1
    69     5     7    1
    70    68    69    2
    71    68    67    1
    72    98    97    1
    73    42    44   ar
    74    42    40   ar
    75    67    66    1
    76    76    77    2
    77    86    83    1
    78    44    43   ar
    79    34    35    1
    80    40    39   ar
    81    43    41   ar
    82    97    99    1
    83    97    94    1
    84    35    38    1
    85    35    36    1
    86    39    41   ar
    87    39    38    1
    88    83    84    1
    89    83    82    1
    90    93    94    1
    91    93    84   am
    92    94    95    1
    93    84    85    2
    94    36    37    2
    95    95    96    2
