@<TRIPOS>MOLECULE
tmp/5w8hC02.pdb
 79 74 0 0 0
SMALL
GASTEIGER

@<TRIPOS>ATOM
      1  N        -16.4040    1.1470   18.3390 N.3   102  SER102     -0.1202
      2  CA       -16.4080    1.9160   19.5650 C.3   102  SER102      0.2020
      3  C        -15.2070    1.5420   20.4360 C.2   102  SER102      0.2619
      4  O        -14.6170    0.4510   20.2930 O.2   102  SER102     -0.2717
      5  CB       -17.7200    1.6930   20.3210 C.3   102  SER102      0.2103
      6  OG       -17.7850    0.3630   20.8030 O.3   102  SER102     -0.2182
      7  N        -14.7960    2.4570   21.3160 N.am  103  ARG103     -0.1965
      8  CA       -13.7560    2.1070   22.2920 C.3   103  ARG103      0.1729
      9  C        -14.1770    0.9110   23.1510 C.2   103  ARG103      0.2616
     10  O        -13.3800    0.0170   23.4070 O.2   103  ARG103     -0.2715
     11  CB       -13.4330    3.2980   23.2000 C.3   103  ARG103      0.0348
     12  CG       -12.7710    4.4730   22.5030 C.3   103  ARG103      0.0492
     13  CD       -12.5960    5.6330   23.4830 C.3   103  ARG103      0.2205
     14  NE       -11.6500    5.3060   24.5570 N.pl3 103  ARG103     -0.0865
     15  CZ       -11.4680    6.0450   25.6480 C.cat 103  ARG103      0.5346
     16  NH1      -12.1710    7.1560   25.8180 N.pl3 103  ARG103      0.1354
     17  NH2      -10.5890    5.6700   26.5700 N.pl3 103  ARG103      0.1354
     18  N        -15.4340    0.8970   23.5990 N.am  104  LEU104     -0.1977
     19  CA       -15.9250   -0.2240   24.4180 C.3   104  LEU104      0.1596
     20  C        -15.7490   -1.5710   23.7130 C.2   104  LEU104      0.2287
     21  O        -15.1980   -2.5050   24.2800 O.2   104  LEU104     -0.2864
     22  CB       -17.3870   -0.0360   24.7990 C.3   104  LEU104      0.0297
     23  CG       -18.0210   -1.1920   25.5700 C.3   104  LEU104      0.0022
     24  CD1      -17.1600   -1.4800   26.7990 C.3   104  LEU104      0.0001
     25  CD2      -19.4380   -0.8050   25.9610 C.3   104  LEU104      0.0001
     26  N        -11.3700   13.3500   35.3160 N.3   315  LYS315     -0.1245
     27  CA       -12.2340   13.1690   34.1490 C.3   315  LYS315      0.1561
     28  C        -11.8360   11.9230   33.3580 C.2   315  LYS315      0.2260
     29  O        -12.6930   11.1700   32.8740 O.2   315  LYS315     -0.2867
     30  CB       -12.1840   14.4010   33.2450 C.3   315  LYS315      0.0271
     31  CG       -13.0300   14.2820   31.9860 C.3   315  LYS315      0.0035
     32  CD       -12.7260   15.4150   31.0180 C.3   315  LYS315      0.0206
     33  CE       -13.8880   15.6510   30.0600 C.3   315  LYS315      0.1093
     34  NZ       -13.7340   16.9370   29.3020 N.3   315  LYS315     -0.1314
     35  N        -12.9620    8.8530   35.4010 N.3   318  ASP318     -0.1225
     36  CA       -14.3910    8.6240   35.2580 C.3   318  ASP318      0.1805
     37  C        -14.7340    7.9240   33.9400 C.2   318  ASP318      0.2598
     38  O        -15.5880    7.0370   33.8980 O.2   318  ASP318     -0.2718
     39  CB       -15.1470    9.9450   35.3630 C.3   318  ASP318      0.1424
     40  CG       -15.0830   10.5370   36.7490 C.2   318  ASP318      0.3668
     41  OD1      -14.7020    9.8070   37.6890 O.co2 318  ASP318     -0.2456
     42  OD2      -15.4210   11.7260   36.9010 O.co2 318  ASP318     -0.2456
     43  N        -14.0690    8.3330   32.8710 N.am  319  THR319     -0.1953
     44  CA       -14.2890    7.7400   31.5510 C.3   319  THR319      0.1897
     45  C        -13.8050    6.2930   31.5090 C.2   319  THR319      0.2313
     46  O        -14.5320    5.3950   31.0560 O.2   319  THR319     -0.2863
     47  CB       -13.5900    8.5630   30.4580 C.3   319  THR319      0.1794
     48  OG1      -14.1760    9.8710   30.4230 O.3   319  THR319     -0.2208
     49  CG2      -13.7770    7.9170   29.1010 C.3   319  THR319      0.0378
     50  N        -16.0410    4.1530   33.3840 N.3   322  GLY322     -0.1210
     51  CA       -17.3120    4.0770   32.6690 C.3   322  GLY322      0.1956
     52  C        -17.2640    2.9770   31.6270 C.2   322  GLY322      0.2611
     53  O        -18.2460    2.2460   31.4320 O.2   322  GLY322     -0.2717
     54  N        -16.1170    2.8470   30.9710 N.am  323  ILE323     -0.1979
     55  CA       -15.8830    1.7630   30.0270 C.3   323  ILE323      0.1595
     56  C        -15.6690    0.4320   30.7570 C.2   323  ILE323      0.2287
     57  O        -16.3100   -0.5820   30.4450 O.2   323  ILE323     -0.2864
     58  CB       -14.6700    2.0650   29.1330 C.3   323  ILE323      0.0276
     59  CG1      -14.9850    3.2560   28.2250 C.3   323  ILE323      0.0022
     60  CG2      -14.2650    0.8360   28.3650 C.3   323  ILE323      0.0022
     61  CD1      -13.8050    3.8750   27.5490 C.3   323  ILE323      0.0001
     62  N        -16.6350   -0.7180   33.5830 N.3   325  LYS325     -0.1231
     63  CA       -17.7380   -1.3880   34.2570 C.3   325  LYS325      0.1693
     64  C        -18.7000   -2.0420   33.2600 C.2   325  LYS325      0.2591
     65  O        -19.5750   -2.8070   33.6620 O.2   325  LYS325     -0.2718
     66  CB       -18.4730   -0.4300   35.1970 C.3   325  LYS325      0.0285
     67  CG       -19.3460    0.6170   34.5550 C.3   325  LYS325      0.0035
     68  CD       -20.0080    1.4120   35.6700 C.3   325  LYS325      0.0206
     69  CE       -20.8400    2.5510   35.1320 C.3   325  LYS325      0.1093
     70  NZ       -21.5230    3.2470   36.2630 N.3   325  LYS325     -0.1314
     71  N        -18.5140   -1.7870   31.9630 N.am  326  GLU326     -0.1979
     72  CA       -19.3400   -2.4300   30.9500 C.3   326  GLU326      0.1602
     73  C        -18.6760   -3.6570   30.3430 C.2   326  GLU326      0.2287
     74  O        -19.2920   -4.3400   29.5240 O.2   326  GLU326     -0.2864
     75  CB       -19.6980   -1.4430   29.8310 C.3   326  GLU326      0.0415
     76  CG       -20.4920   -0.2230   30.3030 C.3   326  GLU326      0.1163
     77  CD       -21.8910   -0.5680   30.7650 C.2   326  GLU326      0.3649
     78  OE1      -22.4490   -1.5920   30.3010 O.co2 326  GLU326     -0.2457
     79  OE2      -22.4450    0.2000   31.5850 O.co2 326  GLU326     -0.2457
@<TRIPOS>BOND
     1     1     2    1
     2     2     5    1
     3     2     3    1
     4     4     3    2
     5     5     6    1
     6     3     7   am
     7     7     8    1
     8     8     9    1
     9     8    11    1
    10    12    11    1
    11    12    13    1
    12     9    10    2
    13     9    18   am
    14    13    14    1
    15    18    19    1
    16    20    21    2
    17    20    19    1
    18    19    22    1
    19    14    15    2
    20    22    23    1
    21    23    25    1
    22    23    24    1
    23    15    16    1
    24    15    17    1
    25    61    59    1
    26    59    58    1
    27    60    58    1
    28    49    47    1
    29    58    55    1
    30    34    33    1
    31    74    73    2
    32    75    76    1
    33    75    72    1
    34    55    56    1
    35    55    54    1
    36    33    32    1
    37    78    77   ar
    38    76    77    1
    39    73    72    1
    40    48    47    1
    41    57    56    2
    42    47    44    1
    43    77    79   ar
    44    72    71    1
    45    54    52   am
    46    32    31    1
    47    46    45    2
    48    53    52    2
    49    45    44    1
    50    44    43    1
    51    52    51    1
    52    71    64   am
    53    31    30    1
    54    51    50    1
    55    43    37   am
    56    29    28    2
    57    30    27    1
    58    64    65    2
    59    64    63    1
    60    28    27    1
    61    62    63    1
    62    38    37    2
    63    37    36    1
    64    27    26    1
    65    63    66    1
    66    67    66    1
    67    67    68    1
    68    69    68    1
    69    69    70    1
    70    36    39    1
    71    36    35    1
    72    39    40    1
    73    40    42   ar
    74    40    41   ar
