@<TRIPOS>MOLECULE
tmp/5w8iA00.pdb
 128 119 0 0 0
SMALL
GASTEIGER

@<TRIPOS>ATOM
      1  N         51.5610   18.9810   42.4670 N.3    95  ALA95      -0.1231
      2  CA        52.0660   18.7580   43.8160 C.3    95  ALA95       0.1694
      3  C         50.9290   18.6920   44.7900 C.2    95  ALA95       0.2592
      4  O         49.9030   19.3700   44.6240 O.2    95  ALA95      -0.2718
      5  CB        52.9750   19.9130   44.1960 C.3    95  ALA95       0.0304
      6  N         51.1160   17.9060   45.8300 N.am   96  ARG96      -0.1966
      7  CA        50.1510   17.7850   46.9570 C.3    96  ARG96       0.1729
      8  C         50.5320   18.7210   48.1170 C.2    96  ARG96       0.2616
      9  O         51.7210   18.9950   48.3100 O.2    96  ARG96      -0.2715
     10  CB        50.1130   16.3120   47.4280 C.3    96  ARG96       0.0348
     11  CG        49.8390   15.2800   46.3320 C.3    96  ARG96       0.0492
     12  CD        48.3580   14.9460   46.2110 C.3    96  ARG96       0.2205
     13  NE        47.5690   16.0700   45.7170 N.pl3  96  ARG96      -0.0865
     14  CZ        47.5160   16.4480   44.4490 C.cat  96  ARG96       0.5346
     15  NH1       48.2040   15.7880   43.5300 N.pl3  96  ARG96       0.1354
     16  NH2       46.7530   17.4680   44.0870 N.pl3  96  ARG96       0.1354
     17  N         49.5370   19.2480   48.8480 N.am   97  GLN97      -0.1977
     18  CA        49.7710   20.1960   49.9100 C.3    97  GLN97       0.1601
     19  C         50.5100   19.5030   51.0240 C.2    97  GLN97       0.2287
     20  O         50.0490   18.4760   51.4660 O.2    97  GLN97      -0.2864
     21  CB        48.4670   20.6990   50.4870 C.3    97  GLN97       0.0394
     22  CG        48.6410   21.8840   51.4300 C.3    97  GLN97       0.0908
     23  CD        47.3150   22.5250   51.8090 C.2    97  GLN97       0.2608
     24  OE1       46.2620   21.9460   51.6280 O.2    97  GLN97      -0.2717
     25  NE2       47.3740   23.7220   52.3620 N.am   97  GLN97      -0.0878
     26  N         48.0230   27.4390   51.2990 N.3   103  ARG103     -0.1245
     27  CA        47.3510   27.2600   50.0300 C.3   103  ARG103      0.1563
     28  C         48.0520   28.0800   48.9330 C.2   103  ARG103      0.2260
     29  O         48.2000   27.6060   47.8050 O.2   103  ARG103     -0.2867
     30  CB        45.9110   27.6680   50.1920 C.3   103  ARG103      0.0307
     31  CG        45.0440   27.3360   49.0080 C.3   103  ARG103      0.0489
     32  CD        43.6070   27.5380   49.4250 C.3   103  ARG103      0.2205
     33  NE        42.7140   27.3030   48.3140 N.pl3 103  ARG103     -0.0865
     34  CZ        41.4580   27.7360   48.2490 C.cat 103  ARG103      0.5346
     35  NH1       40.9200   28.4590   49.2420 N.pl3 103  ARG103      0.1354
     36  NH2       40.7420   27.4530   47.1680 N.pl3 103  ARG103      0.1354
     37  N         51.2810   26.3070   47.9210 N.3   106  LEU106     -0.1245
     38  CA        50.9540   25.0700   47.1690 C.3   106  LEU106      0.1561
     39  C         50.5680   25.4150   45.7000 C.2   106  LEU106      0.2260
     40  O         51.0780   24.8510   44.7460 O.2   106  LEU106     -0.2867
     41  CB        49.8210   24.3090   47.8520 C.3   106  LEU106      0.0270
     42  CG        49.3430   23.0010   47.1760 C.3   106  LEU106      0.0019
     43  CD1       48.3760   23.2530   46.0480 C.3   106  LEU106      0.0001
     44  CD2       50.4930   22.1490   46.6910 C.3   106  LEU106      0.0001
     45  N         43.9810   19.4720   42.0540 N.3   135  ASN135     -0.1226
     46  CA        43.5340   20.3240   43.1740 C.3   135  ASN135      0.1770
     47  C         44.5510   21.4190   43.5100 C.2   135  ASN135      0.2439
     48  O         45.7280   21.1640   43.4060 O.2   135  ASN135     -0.2733
     49  CB        43.4090   19.4700   44.4340 C.3   135  ASN135      0.1168
     50  CG        42.4200   18.3550   44.2720 C.2   135  ASN135      0.2627
     51  OD1       41.1980   18.5750   44.2110 O.2   135  ASN135     -0.2716
     52  ND2       42.9340   17.1300   44.2250 N.am  135  ASN135     -0.0877
     53  N         44.1070   22.6140   43.9170 N.am  136  PRO136     -0.2729
     54  CA        42.7270   23.0750   43.9920 C.3   136  PRO136      0.1401
     55  C         42.1460   23.4330   42.6180 C.2   136  PRO136      0.2269
     56  O         42.6740   24.3180   41.9460 O.2   136  PRO136     -0.2865
     57  CB        42.8190   24.3130   44.9150 C.3   136  PRO136      0.0296
     58  CG        44.2020   24.8250   44.7310 C.3   136  PRO136      0.0237
     59  CD        45.0600   23.6430   44.4180 C.3   136  PRO136      0.0939
     60  N         31.6280   16.1680   40.5590 N.3   162  LEU162     -0.1245
     61  CA        31.7760   15.1370   41.5710 C.3   162  LEU162      0.1561
     62  C         30.9600   15.4720   42.8310 C.2   162  LEU162      0.2260
     63  O         30.3250   14.5830   43.4170 O.2   162  LEU162     -0.2867
     64  CB        33.2470   14.9460   41.9210 C.3   162  LEU162      0.0270
     65  CG        33.6070   14.0920   43.1460 C.3   162  LEU162      0.0019
     66  CD1       33.2420   12.6510   42.9380 C.3   162  LEU162      0.0001
     67  CD2       35.0850   14.1970   43.4300 C.3   162  LEU162      0.0001
     68  N         28.0990   13.1520   44.4720 N.3   166  ARG166     -0.1245
     69  CA        28.0820   12.7650   45.8860 C.3   166  ARG166      0.1563
     70  C         26.7730   13.1340   46.5520 C.2   166  ARG166      0.2260
     71  O         26.2100   12.3400   47.3030 O.2   166  ARG166     -0.2867
     72  CB        29.2370   13.4130   46.6370 C.3   166  ARG166      0.0307
     73  CG        30.5960   12.8390   46.2500 C.3   166  ARG166      0.0489
     74  CD        31.6930   13.5250   47.0460 C.3   166  ARG166      0.2205
     75  NE        32.9600   12.8080   46.9560 N.pl3 166  ARG166     -0.0865
     76  CZ        34.1560   13.3780   46.7800 C.cat 166  ARG166      0.5346
     77  NH1       35.2560   12.5920   46.7410 N.pl3 166  ARG166      0.1354
     78  NH2       34.2760   14.6930   46.7040 N.pl3 166  ARG166      0.1354
     79  N         34.5650   24.0050   44.2360 N.3   190  HIS190     -0.1226
     80  CA        34.5950   22.5920   44.6220 C.3   190  HIS190      0.1752
     81  C         34.9650   22.4080   46.0960 C.2   190  HIS190      0.2597
     82  O         35.8850   23.0350   46.5690 O.2   190  HIS190     -0.2718
     83  CB        35.6260   21.8100   43.8170 C.3   190  HIS190      0.0759
     84  CG        35.8990   20.4660   44.3720 C.ar  190  HIS190      0.0818
     85  ND1       35.0240   19.4120   44.2270 N.ar  190  HIS190     -0.2268
     86  CD2       36.9130   20.0160   45.1500 C.ar  190  HIS190      0.1154
     87  CE1       35.5070   18.3560   44.8570 C.ar  190  HIS190      0.1986
     88  NE2       36.6610   18.6920   45.4130 N.ar  190  HIS190     -0.2212
     89  N         34.3240   21.4540   46.7580 N.am  191  GLY191     -0.1942
     90  CA        34.7440   20.9950   48.0790 C.3   191  GLY191      0.2014
     91  C         34.1510   21.8330   49.2200 C.2   191  GLY191      0.2638
     92  O         32.9390   22.0140   49.2890 O.2   191  GLY191     -0.2714
     93  N         35.0180   22.3560   50.0820 N.am  192  ASP192     -0.1971
     94  CA        34.6140   23.0220   51.3620 C.3   192  ASP192      0.1709
     95  C         33.5390   24.0820   51.2260 C.2   192  ASP192      0.2293
     96  O         32.5930   24.1090   52.0200 O.2   192  ASP192     -0.2864
     97  CB        35.7940   23.7640   52.0130 C.3   192  ASP192      0.1436
     98  CG        36.8540   22.8330   52.5380 C.2   192  ASP192      0.3671
     99  OD1       36.5550   21.6200   52.6480 O.co2 192  ASP192     -0.2456
    100  OD2       37.9850   23.3270   52.8340 O.co2 192  ASP192     -0.2456
    101  N         35.0270   13.5410   51.3430 N.3   235  ALA235     -0.1245
    102  CA        36.3770   13.4820   50.8200 C.3   235  ALA235      0.1562
    103  C         37.4080   13.3340   51.9190 C.2   235  ALA235      0.2260
    104  O         38.3870   12.5700   51.8120 O.2   235  ALA235     -0.2867
    105  CB        36.6810   14.7410   50.0590 C.3   235  ALA235      0.0290
    106  N         39.9640   10.2650   52.3680 N.3   239  ILE239     -0.1245
    107  CA        41.3820   10.5270   52.4760 C.3   239  ILE239      0.1561
    108  C         41.9980    9.9580   53.7590 C.2   239  ILE239      0.2260
    109  O         43.0060    9.2740   53.7010 O.2   239  ILE239     -0.2867
    110  CB        41.6410   12.0300   52.3730 C.3   239  ILE239      0.0252
    111  CG1       41.3700   12.4880   50.9150 C.3   239  ILE239      0.0019
    112  CG2       43.0800   12.3410   52.7710 C.3   239  ILE239      0.0019
    113  CD1       41.2670   13.9980   50.7080 C.3   239  ILE239      0.0001
    114  N         41.4200   10.0860   47.3610 N.3   245  THR245     -0.1218
    115  CA        40.2620    9.6220   46.5950 C.3   245  THR245      0.1862
    116  C         40.6960    9.3590   45.1190 C.2   245  THR245      0.2287
    117  O         41.6310    9.9940   44.5880 O.2   245  THR245     -0.2866
    118  CB        39.0350   10.5720   46.6500 C.3   245  THR245      0.1770
    119  OG1       39.2020   11.6430   45.7200 O.3   245  THR245     -0.2211
    120  CG2       38.8280   11.1580   48.0300 C.3   245  THR245      0.0375
    121  N         36.2300   10.3350   41.3010 N.3   249  ILE249     -0.1245
    122  CA        36.7570   11.4030   40.4440 C.3   249  ILE249      0.1561
    123  C         36.9050   10.8370   39.0420 C.2   249  ILE249      0.2260
    124  O         36.5440   11.5190   38.0700 O.2   249  ILE249     -0.2867
    125  CB        38.1320   11.9400   40.8830 C.3   249  ILE249      0.0252
    126  CG1       38.0210   12.6460   42.2100 C.3   249  ILE249      0.0019
    127  CG2       38.6440   12.9580   39.8630 C.3   249  ILE249      0.0019
    128  CD1       39.3690   12.9350   42.8810 C.3   249  ILE249      0.0001
@<TRIPOS>BOND
     1   124   123    2
     2   123   122    1
     3   127   125    1
     4   122   125    1
     5   122   121    1
     6    60    61    1
     7   125   126    1
     8    61    64    1
     9    61    62    1
    10    64    65    1
    11    56    55    2
    12    45    46    1
    13   126   128    1
    14     1     2    1
    15    55    54    1
    16    62    63    2
    17    66    65    1
    18    65    67    1
    19    46    47    1
    20    46    49    1
    21    48    47    2
    22    47    53   am
    23    15    14    1
    24     2     5    1
    25     2     3    1
    26    83    84    1
    27    83    80    1
    28    53    54    1
    29    53    59    1
    30    54    57    1
    31    16    14    1
    32    51    50    2
    33    52    50   am
    34    85    84   ar
    35    85    87   ar
    36    79    80    1
    37    50    49    1
    38    84    86   ar
    39    59    58    1
    40    14    13    2
    41    68    69    1
    42   117   116    2
    43    80    81    1
    44     4     3    2
    45    58    57    1
    46    40    39    2
    47     3     6   am
    48    87    88   ar
    49   116   115    1
    50    86    88   ar
    51    39    38    1
    52    13    12    1
    53   119   118    1
    54     6     7    1
    55    69    70    1
    56    69    72    1
    57    43    42    1
    58    81    82    2
    59    81    89   am
    60    12    11    1
    61    73    72    1
    62    73    74    1
    63    11    10    1
    64    70    71    2
    65   115   118    1
    66   115   114    1
    67   118   120    1
    68    44    42    1
    69    78    76    1
    70    77    76    1
    71    89    90    1
    72    76    75    2
    73    75    74    1
    74     7    10    1
    75     7     8    1
    76    36    34    1
    77    38    41    1
    78    38    37    1
    79    42    41    1
    80    29    28    2
    81    90    91    1
    82     8     9    2
    83     8    17   am
    84    34    33    2
    85    34    35    1
    86    33    32    1
    87    17    18    1
    88    28    27    1
    89    31    32    1
    90    31    30    1
    91    91    92    2
    92    91    93   am
    93    18    21    1
    94    18    19    1
    95    27    30    1
    96    27    26    1
    97   105   102    1
    98    93    94    1
    99    21    22    1
   100   113   111    1
   101   102   101    1
   102   102   103    1
   103   111   110    1
   104    19    20    2
   105    95    94    1
   106    95    96    2
   107    94    97    1
   108    22    23    1
   109    24    23    2
   110    23    25   am
   111   104   103    2
   112    97    98    1
   113   106   107    1
   114   110   107    1
   115   110   112    1
   116   107   108    1
   117    98    99   ar
   118    98   100   ar
   119   109   108    2
