@<TRIPOS>MOLECULE
tmp/5w8jC02.pdb
 126 119 0 0 0
SMALL
GASTEIGER

@<TRIPOS>ATOM
      1  N          5.4480  -11.0090   24.2480 N.3    25  VAL25      -0.1231
      2  CA         4.2590  -11.5860   23.6040 C.3    25  VAL25       0.1692
      3  C          3.8040  -10.6550   22.4790 C.2    25  VAL25       0.2592
      4  O          3.5390   -9.4610   22.7140 O.2    25  VAL25      -0.2718
      5  CB         3.1210  -11.7650   24.6350 C.3    25  VAL25       0.0266
      6  CG1        1.8640  -12.3500   23.9330 C.3    25  VAL25       0.0020
      7  CG2        3.5790  -12.7040   25.7350 C.3    25  VAL25       0.0020
      8  N          3.7730  -11.1940   21.2570 N.am   26  GLY26      -0.1957
      9  CA         3.4320  -10.3970   20.0730 C.3    26  GLY26       0.1869
     10  C          4.6830  -10.0680   19.3120 C.2    26  GLY26       0.2309
     11  O          5.5890   -9.4420   19.8800 O.2    26  GLY26      -0.2863
     12  N          6.4880  -15.1610   21.9100 N.3    50  VAL50      -0.1231
     13  CA         5.2450  -15.8910   21.7290 C.3    50  VAL50       0.1692
     14  C          4.3170  -15.1540   20.7920 C.2    50  VAL50       0.2592
     15  O          4.1940  -13.9270   20.8730 O.2    50  VAL50      -0.2718
     16  CB         4.5370  -16.0760   23.0760 C.3    50  VAL50       0.0266
     17  CG1        3.1980  -16.7600   22.9000 C.3    50  VAL50       0.0020
     18  CG2        5.4180  -16.9570   23.9470 C.3    50  VAL50       0.0020
     19  N          3.6400  -15.8850   19.9060 N.am   51  ASP51      -0.1960
     20  CA         2.5510  -15.3120   19.1080 C.3    51  ASP51       0.1840
     21  C          1.8000  -16.5170   18.5630 C.2    51  ASP51       0.2621
     22  O          2.1900  -17.6660   18.7950 O.2    51  ASP51      -0.2715
     23  CB         3.0560  -14.4040   17.9650 C.3    51  ASP51       0.1450
     24  CG         2.0430  -13.3140   17.5860 C.2    51  ASP51       0.3671
     25  OD1        0.8130  -13.6040   17.4650 O.co2  51  ASP51      -0.2456
     26  OD2        2.4720  -12.1680   17.3530 O.co2  51  ASP51      -0.2456
     27  N          0.7110  -16.2420   17.8610 N.am   52  VAL52      -0.1977
     28  CA        -0.0820  -17.3100   17.2480 C.3    52  VAL52       0.1596
     29  C          0.0790  -17.3850   15.7480 C.2    52  VAL52       0.2287
     30  O         -0.4250  -18.3300   15.1460 O.2    52  VAL52      -0.2864
     31  CB        -1.5900  -17.1490   17.5910 C.3    52  VAL52       0.0276
     32  CG1       -1.8190  -17.4460   19.0860 C.3    52  VAL52       0.0022
     33  CG2       -2.1300  -15.7450   17.1730 C.3    52  VAL52       0.0022
     34  N          4.2070  -21.0440   20.0290 N.3    80  LYS80      -0.1245
     35  CA         2.8130  -20.7900   20.3270 C.3    80  LYS80       0.1561
     36  C          2.4510  -21.3430   21.6900 C.2    80  LYS80       0.2260
     37  O          1.5360  -20.8300   22.3430 O.2    80  LYS80      -0.2867
     38  CB         1.9550  -21.4170   19.2310 C.3    80  LYS80       0.0271
     39  CG         0.5030  -21.0500   19.2310 C.3    80  LYS80       0.0035
     40  CD        -0.1490  -21.7140   18.0110 C.3    80  LYS80       0.0206
     41  CE        -1.2820  -22.6430   18.4180 C.3    80  LYS80       0.1093
     42  NZ        -2.0500  -23.0090   17.1610 N.3    80  LYS80      -0.1314
     43  N          2.9150  -21.8290   25.5770 N.3    82  TYR82      -0.1241
     44  CA         3.5010  -20.9440   26.6010 C.3    82  TYR82       0.1605
     45  C          4.5240  -21.6140   27.4910 C.2    82  TYR82       0.2264
     46  O          5.1740  -20.9460   28.3240 O.2    82  TYR82      -0.2867
     47  CB         2.4080  -20.3320   27.4780 C.3    82  TYR82       0.0534
     48  CG         1.6480  -19.2960   26.7210 C.ar   82  TYR82      -0.0201
     49  CD1        0.6640  -19.6730   25.8200 C.ar   82  TYR82      -0.0009
     50  CD2        1.9140  -17.9600   26.8960 C.ar   82  TYR82      -0.0009
     51  CE1       -0.0250  -18.7260   25.0970 C.ar   82  TYR82       0.0417
     52  CE2        1.2450  -16.9980   26.1600 C.ar   82  TYR82       0.0417
     53  CZ         0.2760  -17.3990   25.2740 C.ar   82  TYR82       0.1957
     54  OH        -0.4240  -16.4730   24.5490 O.3    82  TYR82      -0.2866
     55  N          0.6510   -7.7280   22.2070 N.3    95  ALA95      -0.1231
     56  CA        -0.3770   -8.2710   21.3380 C.3    95  ALA95       0.1694
     57  C         -1.6800   -7.5500   21.5460 C.2    95  ALA95       0.2593
     58  O         -1.9220   -6.9470   22.6010 O.2    95  ALA95      -0.2718
     59  CB        -0.5410   -9.7730   21.6010 C.3    95  ALA95       0.0304
     60  N         -2.5140   -7.6150   20.5160 N.am   96  GLY96      -0.1942
     61  CA        -3.8470   -7.0630   20.6070 C.3    96  GLY96       0.2014
     62  C         -4.2860   -6.4830   19.2860 C.2    96  GLY96       0.2639
     63  O         -3.4710   -6.2360   18.3840 O.2    96  GLY96      -0.2714
     64  N         -5.5800   -6.2120   19.2170 N.am   97  ALA97      -0.1963
     65  CA        -6.1860   -5.6910   18.0090 C.3    97  ALA97       0.1728
     66  C         -6.1650   -4.1790   18.0140 C.2    97  ALA97       0.2616
     67  O         -6.2660   -3.5590   19.0710 O.2    97  ALA97      -0.2715
     68  CB        -7.6300   -6.1920   17.9000 C.3    97  ALA97       0.0334
     69  N         -6.0630   -3.5950   16.8230 N.am   98  ARG98      -0.1977
     70  CA        -6.1920   -2.1560   16.6180 C.3    98  ARG98       0.1597
     71  C         -7.6600   -1.7700   16.3430 C.2    98  ARG98       0.2287
     72  O         -8.4260   -2.5810   15.8110 O.2    98  ARG98      -0.2864
     73  CB        -5.3340   -1.7120   15.4390 C.3    98  ARG98       0.0334
     74  CG        -3.8630   -2.1260   15.5070 C.3    98  ARG98       0.0492
     75  CD        -2.9890   -1.0490   16.1370 C.3    98  ARG98       0.2205
     76  NE        -3.2740   -0.8560   17.5560 N.pl3  98  ARG98      -0.0865
     77  CZ        -2.8550   -1.6620   18.5190 C.cat  98  ARG98       0.5346
     78  NH1       -2.1210   -2.7230   18.2250 N.pl3  98  ARG98       0.1354
     79  NH2       -3.1430   -1.3960   19.7840 N.pl3  98  ARG98       0.1354
     80  N        -10.8130   -0.4920   14.5670 N.3   100  GLN100     -0.1245
     81  CA       -11.1800   -0.4900   13.1590 C.3   100  GLN100      0.1566
     82  C        -12.2090    0.5670   12.8310 C.2   100  GLN100      0.2260
     83  O        -12.7900    1.1820   13.7310 O.2   100  GLN100     -0.2867
     84  CB       -11.7120   -1.8720   12.7590 C.3   100  GLN100      0.0367
     85  CG       -10.7300   -2.9740   13.0420 C.3   100  GLN100      0.0905
     86  CD        -9.4620   -2.8440   12.2050 C.2   100  GLN100      0.2608
     87  OE1       -9.5270   -2.6190   10.9870 O.2   100  GLN100     -0.2717
     88  NE2       -8.3050   -2.9630   12.8580 N.am  100  GLN100     -0.0878
     89  N        -12.7580   -6.6250   22.5050 N.3   111  ARG111     -0.1245
     90  CA       -12.0270   -7.5730   21.6700 C.3   111  ARG111      0.1563
     91  C        -10.6350   -7.8430   22.2650 C.2   111  ARG111      0.2260
     92  O        -10.1370   -8.9750   22.1740 O.2   111  ARG111     -0.2867
     93  CB       -11.8950   -7.0820   20.2230 C.3   111  ARG111      0.0307
     94  CG       -13.2000   -7.1020   19.4670 C.3   111  ARG111      0.0489
     95  CD       -12.8990   -7.0680   17.9530 C.3   111  ARG111      0.2205
     96  NE       -12.2490   -5.8500   17.4620 N.pl3 111  ARG111     -0.0865
     97  CZ       -11.2040   -5.8330   16.6380 C.cat 111  ARG111      0.5346
     98  NH1      -10.6440   -6.9830   16.2680 N.pl3 111  ARG111      0.1354
     99  NH2      -10.7190   -4.6740   16.1920 N.pl3 111  ARG111      0.1354
    100  N         -8.8290  -11.3650   23.6830 N.3   115  ILE115     -0.1245
    101  CA        -7.4480  -11.8140   23.3930 C.3   115  ILE115      0.1561
    102  C         -6.6370  -12.0440   24.6670 C.2   115  ILE115      0.2260
    103  O         -5.9290  -13.0670   24.8140 O.2   115  ILE115     -0.2867
    104  CB        -6.7120  -10.7900   22.4840 C.3   115  ILE115      0.0252
    105  CG1       -7.3920  -10.7690   21.1150 C.3   115  ILE115      0.0019
    106  CG2       -5.2330  -11.1580   22.3060 C.3   115  ILE115      0.0019
    107  CD1       -6.9340   -9.6080   20.2290 C.3   115  ILE115      0.0001
    108  N         -6.9280  -15.3770   26.5860 N.3   118  PHE118     -0.1227
    109  CA        -6.0910  -16.4760   26.1110 C.3   118  PHE118      0.1736
    110  C         -4.6800  -16.3080   26.6900 C.2   118  PHE118      0.2595
    111  O         -4.1050  -17.2360   27.2630 O.2   118  PHE118     -0.2718
    112  CB        -6.0300  -16.5330   24.5700 C.3   118  PHE118      0.0547
    113  CG        -7.3120  -17.0000   23.8960 C.ar  118  PHE118     -0.0202
    114  CD1       -7.6470  -18.3460   23.8670 C.ar  118  PHE118     -0.0042
    115  CD2       -8.1420  -16.0930   23.2410 C.ar  118  PHE118     -0.0042
    116  CE1       -8.8110  -18.7770   23.2220 C.ar  118  PHE118     -0.0003
    117  CE2       -9.3060  -16.5190   22.5970 C.ar  118  PHE118     -0.0003
    118  CZ        -9.6360  -17.8600   22.5910 C.ar  118  PHE118     -0.0000
    119  N         -4.1380  -15.1020   26.5780 N.am  119  ILE119     -0.1980
    120  CA        -2.7390  -14.8760   26.8650 C.3   119  ILE119      0.1595
    121  C         -2.4060  -14.9260   28.3500 C.2   119  ILE119      0.2287
    122  O         -1.5010  -15.6760   28.7820 O.2   119  ILE119     -0.2864
    123  CB        -2.3060  -13.5170   26.2970 C.3   119  ILE119      0.0276
    124  CG1       -2.3780  -13.5340   24.7600 C.3   119  ILE119      0.0022
    125  CG2       -0.8290  -13.1600   26.7470 C.3   119  ILE119      0.0022
    126  CD1       -2.1540  -12.1440   24.1580 C.3   119  ILE119      0.0001
@<TRIPOS>BOND
     1    87    86    2
     2    86    88   am
     3    86    85    1
     4    84    85    1
     5    84    81    1
     6    82    81    1
     7    82    83    2
     8    81    80    1
     9    30    29    2
    10    73    74    1
    11    73    70    1
    12    74    75    1
    13    29    28    1
    14    72    71    2
    15    75    76    1
    16    99    97    1
    17    98    97    1
    18    71    70    1
    19    70    69    1
    20    97    96    2
    21    69    66   am
    22    42    41    1
    23    33    31    1
    24    28    31    1
    25    28    27    1
    26    26    24   ar
    27    96    95    1
    28    25    24   ar
    29    76    77    2
    30    24    23    1
    31    31    32    1
    32    27    21   am
    33    68    65    1
    34    95    94    1
    35    23    20    1
    36    65    66    1
    37    65    64    1
    38    40    41    1
    39    40    39    1
    40    66    67    2
    41    78    77    1
    42    63    62    2
    43    77    79    1
    44    21    22    2
    45    21    20    1
    46    20    19    1
    47    64    62   am
    48    39    38    1
    49    38    35    1
    50    62    61    1
    51    10    11    2
    52    10     9    1
    53    94    93    1
    54    19    14   am
    55    34    35    1
    56     9     8    1
    57    93    90    1
    58   107   105    1
    59    35    36    1
    60    60    61    1
    61    60    57   am
    62    14    15    2
    63    14    13    1
    64   105   104    1
    65     8     3   am
    66    56    57    1
    67    56    59    1
    68    56    55    1
    69    57    58    2
    70    90    91    1
    71    90    89    1
    72    36    37    2
    73    13    12    1
    74    13    16    1
    75    92    91    2
    76   106   104    1
    77     3     4    2
    78     3     2    1
    79   104   101    1
    80   118   117   ar
    81   118   116   ar
    82   117   115   ar
    83    17    16    1
    84    16    18    1
    85   116   114   ar
    86   115   113   ar
    87   101   100    1
    88   101   102    1
    89     2     1    1
    90     2     5    1
    91   114   113   ar
    92   113   112    1
    93     6     5    1
    94   126   124    1
    95    54    53    1
    96   112   109    1
    97     5     7    1
    98   102   103    2
    99   124   123    1
   100    51    53   ar
   101    51    49   ar
   102    53    52   ar
   103    43    44    1
   104    49    48   ar
   105   109   108    1
   106   109   110    1
   107    52    50   ar
   108   123   125    1
   109   123   120    1
   110   119   110   am
   111   119   120    1
   112    44    47    1
   113    44    45    1
   114   110   111    2
   115    48    50   ar
   116    48    47    1
   117   120   121    1
   118    45    46    2
   119   121   122    2
