@<TRIPOS>MOLECULE
tmp/5w8kC00.pdb
 187 176 0 0 0
SMALL
GASTEIGER

@<TRIPOS>ATOM
      1  N         -6.3890   -2.6690   14.6740 N.3    96  GLN96      -0.1245
      2  CA        -7.5120   -1.7550   14.3310 C.3    96  GLN96       0.1566
      3  C         -8.2630   -2.2440   13.1070 C.2    96  GLN96       0.2260
      4  O         -7.6720   -2.7270   12.1130 O.2    96  GLN96      -0.2867
      5  CB        -7.0270   -0.3200   14.0710 C.3    96  GLN96       0.0367
      6  CG        -6.2570    0.2550   15.2090 C.3    96  GLN96       0.0905
      7  CD        -4.7750    0.2550   14.9350 C.2    96  GLN96       0.2608
      8  OE1       -4.1780   -0.7730   14.5720 O.2    96  GLN96      -0.2717
      9  NE2       -4.1600    1.4180   15.1040 N.am   96  GLN96      -0.0878
     10  N        -14.1840    2.8500   19.3490 N.3   102  ARG102     -0.1245
     11  CA       -13.0700    2.8760   20.3270 C.3   102  ARG102      0.1563
     12  C        -13.2920    1.8240   21.4180 C.2   102  ARG102      0.2260
     13  O        -12.3900    1.0130   21.6930 O.2   102  ARG102     -0.2867
     14  CB       -12.9440    4.2730   20.9560 C.3   102  ARG102      0.0307
     15  CG       -11.6070    4.5310   21.5840 C.3   102  ARG102      0.0489
     16  CD       -11.6070    5.8490   22.3420 C.3   102  ARG102      0.2205
     17  NE       -12.4590    5.7980   23.5320 N.pl3 102  ARG102     -0.0865
     18  CZ       -12.1240    5.1990   24.6730 C.cat 102  ARG102      0.5346
     19  NH1      -10.9320    4.6190   24.8030 N.pl3 102  ARG102      0.1354
     20  NH2      -12.9760    5.2010   25.6900 N.pl3 102  ARG102      0.1354
     21  N        -12.6040   -1.7250   20.2940 N.3   105  LEU105     -0.1231
     22  CA       -11.1730   -2.0150   20.2140 C.3   105  LEU105      0.1693
     23  C        -10.5900   -2.2900   21.5940 C.2   105  LEU105      0.2591
     24  O         -9.8270   -3.2560   21.7880 O.2   105  LEU105     -0.2718
     25  CB       -10.4430   -0.8570   19.5330 C.3   105  LEU105      0.0284
     26  CG        -8.9340   -1.0010   19.3210 C.3   105  LEU105      0.0019
     27  CD1       -8.5530   -2.2610   18.5980 C.3   105  LEU105      0.0001
     28  CD2       -8.4230    0.2500   18.5660 C.3   105  LEU105      0.0001
     29  N        -11.0080   -1.5010   22.5670 N.am  106  VAL106     -0.1980
     30  CA       -10.5440   -1.6960   23.9170 C.3   106  VAL106      0.1595
     31  C        -10.9570   -3.0850   24.3710 C.2   106  VAL106      0.2287
     32  O        -10.1550   -3.8230   24.9440 O.2   106  VAL106     -0.2864
     33  CB       -11.0630   -0.6010   24.8810 C.3   106  VAL106      0.0276
     34  CG1      -10.6630   -0.8920   26.3080 C.3   106  VAL106      0.0022
     35  CG2      -10.5480    0.7700   24.4460 C.3   106  VAL106      0.0022
     36  N         -8.8040   -5.8860   22.9560 N.3   109  ASN109     -0.1240
     37  CA        -7.5060   -5.9580   23.6640 C.3   109  ASN109      0.1653
     38  C         -7.7000   -6.5760   25.0510 C.2   109  ASN109      0.2266
     39  O         -6.8720   -7.3850   25.5040 O.2   109  ASN109     -0.2867
     40  CB        -6.8750   -4.5680   23.7450 C.3   109  ASN109      0.1155
     41  CG        -6.2550   -4.1030   22.4230 C.2   109  ASN109      0.2627
     42  OD1       -5.2960   -4.6600   22.0060 O.2   109  ASN109     -0.2716
     43  ND2       -6.8390   -3.0870   21.7570 N.am  109  ASN109     -0.0877
     44  N         -1.7170   -0.7560   24.3640 N.3   134  ASN134     -0.1226
     45  CA        -2.6920    0.3050   24.5850 C.3   134  ASN134      0.1770
     46  C         -4.1290   -0.2200   24.4960 C.2   134  ASN134      0.2439
     47  O         -4.3740   -1.1440   23.7450 O.2   134  ASN134     -0.2733
     48  CB        -2.4800    1.4990   23.6580 C.3   134  ASN134      0.1168
     49  CG        -1.4830    2.4840   24.2080 C.2   134  ASN134      0.2627
     50  OD1       -1.6330    3.0110   25.3090 O.2   134  ASN134     -0.2716
     51  ND2       -0.4310    2.7770   23.4000 N.am  134  ASN134     -0.0877
     52  N         -5.0750    0.3830   25.2490 N.am  135  PRO135     -0.2718
     53  CA        -4.8880    1.5840   26.0680 C.3   135  PRO135      0.1535
     54  C         -4.1850    1.2410   27.3700 C.2   135  PRO135      0.2598
     55  O         -4.7040    0.4610   28.1720 O.2   135  PRO135     -0.2715
     56  CB        -6.3320    2.0780   26.3000 C.3   135  PRO135      0.0310
     57  CG        -7.1310    0.8110   26.2550 C.3   135  PRO135      0.0237
     58  CD        -6.4980   -0.0030   25.1700 C.3   135  PRO135      0.0939
     59  N         -2.9960    1.8000   27.5940 N.am  136  VAL136     -0.1964
     60  CA        -2.0880    1.2100   28.5730 C.3   136  VAL136      0.1727
     61  C         -2.5570    1.3110   30.0370 C.2   136  VAL136      0.2616
     62  O         -2.3770    0.3870   30.8370 O.2   136  VAL136     -0.2715
     63  CB        -0.6280    1.7270   28.3700 C.3   136  VAL136      0.0290
     64  CG1       -0.5400    3.2300   28.6290 C.3   136  VAL136      0.0023
     65  CG2        0.3480    0.9560   29.2200 C.3   136  VAL136      0.0023
     66  N         -3.2320    2.4040   30.3830 N.am  137  ASP137     -0.1957
     67  CA        -3.6390    2.5590   31.7700 C.3   137  ASP137      0.1840
     68  C         -4.7900    1.5930   32.0700 C.2   137  ASP137      0.2621
     69  O         -4.8380    0.9880   33.1350 O.2   137  ASP137     -0.2715
     70  CB        -4.0010    4.0180   32.0350 C.3   137  ASP137      0.1450
     71  CG        -2.8440    4.9560   31.6770 C.2   137  ASP137      0.3671
     72  OD1       -1.7080    4.7500   32.2330 O.co2 137  ASP137     -0.2456
     73  OD2       -2.9970    5.8510   30.7920 O.co2 137  ASP137     -0.2456
     74  N         -5.7010    1.4430   31.1130 N.am  138  ILE138     -0.1977
     75  CA        -6.7800    0.4660   31.2580 C.3   138  ILE138      0.1596
     76  C         -6.2710   -0.9470   31.2900 C.2   138  ILE138      0.2287
     77  O         -6.6390   -1.7480   32.1370 O.2   138  ILE138     -0.2864
     78  CB        -7.8230    0.6380   30.1320 C.3   138  ILE138      0.0276
     79  CG1       -8.5290    1.9610   30.3210 C.3   138  ILE138      0.0022
     80  CG2       -8.8290   -0.5190   30.1290 C.3   138  ILE138      0.0022
     81  CD1       -9.4690    2.3310   29.2040 C.3   138  ILE138      0.0001
     82  N          7.2820    7.0150   27.9580 N.3   161  LEU161     -0.1245
     83  CA         7.6080    7.4960   26.6250 C.3   161  LEU161      0.1561
     84  C          7.2440    8.9650   26.4290 C.2   161  LEU161      0.2260
     85  O          8.0170    9.7590   25.8590 O.2   161  LEU161     -0.2867
     86  CB         6.9580    6.6560   25.5580 C.3   161  LEU161      0.0270
     87  CG         7.2150    7.0770   24.1280 C.3   161  LEU161      0.0019
     88  CD1        8.6830    7.1500   23.7620 C.3   161  LEU161      0.0001
     89  CD2        6.4600    6.1220   23.2070 C.3   161  LEU161      0.0001
     90  N          9.7800   11.9720   25.2090 N.3   165  ARG165     -0.1245
     91  CA         9.5070   12.8810   24.1130 C.3   165  ARG165      0.1563
     92  C          9.5470   14.3190   24.5820 C.2   165  ARG165      0.2260
     93  O         10.0810   15.1830   23.9060 O.2   165  ARG165     -0.2867
     94  CB         8.1590   12.5490   23.4740 C.3   165  ARG165      0.0307
     95  CG         8.1410   11.2300   22.6960 C.3   165  ARG165      0.0489
     96  CD         6.8120   11.1180   21.9850 C.3   165  ARG165      0.2205
     97  NE         6.7270    9.9900   21.0490 N.pl3 165  ARG165     -0.0865
     98  CZ         5.8730    8.9830   21.1570 C.cat 165  ARG165      0.5346
     99  NH1        5.9150    8.0090   20.2600 N.pl3 165  ARG165      0.1354
    100  NH2        4.9100    8.9820   22.0740 N.pl3 165  ARG165      0.1354
    101  N         -2.5650   10.1620   32.2390 N.3   188  GLU188     -0.1231
    102  CA        -2.8070    9.2120   31.1500 C.3   188  GLU188      0.1699
    103  C         -1.7770    9.3170   30.0400 C.2   188  GLU188      0.2592
    104  O         -1.4090   10.4210   29.6460 O.2   188  GLU188     -0.2718
    105  CB        -4.1410    9.5150   30.4880 C.3   188  GLU188      0.0402
    106  CG        -5.3550    9.2050   31.3310 C.3   188  GLU188      0.1161
    107  CD        -6.6430    9.4330   30.5310 C.2   188  GLU188      0.3649
    108  OE1       -7.3730   10.4130   30.8210 O.co2 188  GLU188     -0.2457
    109  OE2       -6.9030    8.6530   29.5960 O.co2 188  GLU188     -0.2457
    110  N         -1.3610    8.1770   29.5030 N.am  189  HIS189     -0.1962
    111  CA        -0.5850    8.1960   28.2650 C.3   189  HIS189      0.1787
    112  C         -1.3990    8.8750   27.1610 C.2   189  HIS189      0.2621
    113  O         -2.6010    8.6750   27.0680 O.2   189  HIS189     -0.2715
    114  CB        -0.2270    6.7580   27.8550 C.3   189  HIS189      0.0785
    115  CG         0.3570    6.6340   26.4820 C.ar  189  HIS189      0.0821
    116  ND1        1.6090    7.1090   26.1460 N.ar  189  HIS189     -0.2267
    117  CD2       -0.1610    6.1080   25.3550 C.ar  189  HIS189      0.1154
    118  CE1        1.8240    6.8840   24.8680 C.ar  189  HIS189      0.1986
    119  NE2        0.7840    6.2320   24.3760 N.ar  189  HIS189     -0.2212
    120  N         -0.7300    9.6170   26.2850 N.am  190  GLY190     -0.1940
    121  CA        -1.4040   10.1890   25.1390 C.3   190  GLY190      0.2014
    122  C         -2.0550   11.5500   25.3470 C.2   190  GLY190      0.2638
    123  O         -1.5270   12.4130   26.0440 O.2   190  GLY190     -0.2714
    124  N         -3.1740   11.7740   24.6550 N.am  191  ASP191     -0.1971
    125  CA        -3.7880   13.0870   24.5900 C.3   191  ASP191      0.1709
    126  C         -4.0890   13.7760   25.9340 C.2   191  ASP191      0.2293
    127  O         -3.9000   14.9830   26.0590 O.2   191  ASP191     -0.2864
    128  CB        -5.0930   12.9970   23.7840 C.3   191  ASP191      0.1436
    129  CG        -5.2430   14.1240   22.8330 C.2   191  ASP191      0.3671
    130  OD1       -5.1490   15.3020   23.2770 O.co2 191  ASP191     -0.2456
    131  OD2       -5.4320   13.8260   21.6220 O.co2 191  ASP191     -0.2456
    132  N          3.7360   11.9160   18.1580 N.3   234  ALA234     -0.1231
    133  CA         3.4490   10.4800   18.1170 C.3   234  ALA234      0.1694
    134  C          2.5330   10.0950   16.9560 C.2   234  ALA234      0.2592
    135  O          2.8060    9.1630   16.1820 O.2   234  ALA234     -0.2718
    136  CB         2.8570   10.0290   19.4280 C.3   234  ALA234      0.0304
    137  N          1.4300   10.8230   16.8180 N.am  235  TYR235     -0.1976
    138  CA         0.4670   10.5470   15.8020 C.3   235  TYR235      0.1639
    139  C          1.0380   10.8640   14.4140 C.2   235  TYR235      0.2290
    140  O          0.6600   10.2350   13.4500 O.2   235  TYR235     -0.2864
    141  CB        -0.8500   11.2400   16.1270 C.3   235  TYR235      0.0560
    142  CG        -1.4290   10.6930   17.4820 C.ar  235  TYR235     -0.0198
    143  CD1       -0.8510    9.5520   18.1420 C.ar  235  TYR235     -0.0009
    144  CD2       -2.5180   11.2990   18.0990 C.ar  235  TYR235     -0.0009
    145  CE1       -1.3640    9.0360   19.3480 C.ar  235  TYR235      0.0417
    146  CE2       -3.0600   10.7850   19.2860 C.ar  235  TYR235      0.0417
    147  CZ        -2.4760    9.6620   19.9320 C.ar  235  TYR235      0.1957
    148  OH        -2.9820    9.1620   21.1680 O.3   235  TYR235     -0.2866
    149  N          3.0170    7.8120   13.4620 N.3   238  ILE238     -0.1245
    150  CA         2.1060    6.8210   12.9780 C.3   238  ILE238      0.1561
    151  C          1.6120    7.1280   11.5440 C.2   238  ILE238      0.2260
    152  O          1.5380    6.2290   10.7150 O.2   238  ILE238     -0.2867
    153  CB         0.9260    6.6210   13.9190 C.3   238  ILE238      0.0252
    154  CG1        1.4130    6.1210   15.2950 C.3   238  ILE238      0.0019
    155  CG2       -0.1210    5.6950   13.2680 C.3   238  ILE238      0.0019
    156  CD1        0.4010    6.3000   16.4100 C.3   238  ILE238      0.0001
    157  N          4.6800    3.3090   15.7230 N.3   244  THR244     -0.1218
    158  CA         5.9040    3.7380   16.4090 C.3   244  THR244      0.1862
    159  C          6.5640    2.4990   17.0270 C.2   244  THR244      0.2287
    160  O          5.8920    1.5100   17.3770 O.2   244  THR244     -0.2866
    161  CB         5.7370    4.8610   17.4440 C.3   244  THR244      0.1770
    162  OG1        5.3800    4.2990   18.7300 O.3   244  THR244     -0.2211
    163  CG2        4.7160    5.9310   17.0360 C.3   244  THR244      0.0375
    164  N          9.6710    3.7010   21.8660 N.3   248  ILE248     -0.1245
    165  CA         9.0450    2.8190   22.8710 C.3   248  ILE248      0.1561
    166  C          9.9810    1.6950   23.3000 C.2   248  ILE248      0.2260
    167  O         10.1200    1.4310   24.5010 O.2   248  ILE248     -0.2867
    168  CB         7.6230    2.3570   22.5380 C.3   248  ILE248      0.0252
    169  CG1        7.0150    1.5570   23.6840 C.3   248  ILE248      0.0019
    170  CG2        7.5770    1.5810   21.2230 C.3   248  ILE248      0.0019
    171  CD1        6.7800    2.3290   24.9670 C.3   248  ILE248      0.0001
    172  N        -11.5380    6.8170   33.2340 N.3   319  LEU319     -0.1245
    173  CA       -11.0700    5.4410   33.2780 C.3   319  LEU319      0.1561
    174  C        -11.9960    4.5150   34.0530 C.2   319  LEU319      0.2260
    175  O        -12.2520    3.4180   33.6200 O.2   319  LEU319     -0.2867
    176  CB        -9.6650    5.3620   33.9360 C.3   319  LEU319      0.0270
    177  CG        -8.5010    5.9200   33.1440 C.3   319  LEU319      0.0019
    178  CD1       -7.2340    6.0800   34.0020 C.3   319  LEU319      0.0001
    179  CD2       -8.1950    4.9920   32.0190 C.3   319  LEU319      0.0001
    180  N        -15.0650    3.6780   32.0370 N.3   322  ILE322     -0.1245
    181  CA       -14.8220    2.7060   30.9830 C.3   322  ILE322      0.1561
    182  C        -14.6530    1.3170   31.5830 C.2   322  ILE322      0.2260
    183  O        -15.2340    0.3480   31.0690 O.2   322  ILE322     -0.2867
    184  CB       -13.5710    3.0870   30.1550 C.3   322  ILE322      0.0252
    185  CG1      -13.8190    4.3710   29.3480 C.3   322  ILE322      0.0019
    186  CG2      -13.1550    1.9250   29.2510 C.3   322  ILE322      0.0019
    187  CD1      -12.5460    5.0840   28.9380 C.3   322  ILE322      0.0001
@<TRIPOS>BOND
     1   152   151    2
     2   151   150    1
     3     4     3    2
     4   150   149    1
     5   150   153    1
     6     3     2    1
     7   155   153    1
     8   140   139    2
     9   153   154    1
    10     5     2    1
    11     5     6    1
    12     2     1    1
    13   139   138    1
    14     8     7    2
    15     7     9   am
    16     7     6    1
    17   154   156    1
    18   157   158    1
    19   138   141    1
    20   138   137    1
    21   141   142    1
    22   135   134    2
    23   158   159    1
    24   158   161    1
    25   137   134   am
    26   134   133    1
    27   159   160    2
    28   163   161    1
    29   161   162    1
    30   142   144   ar
    31   142   143   ar
    32   144   146   ar
    33   133   132    1
    34   133   136    1
    35   143   145   ar
    36    28    26    1
    37    27    26    1
    38   146   147   ar
    39    26    25    1
    40   145   147   ar
    41    10    11    1
    42    25    22    1
    43   147   148    1
    44    22    21    1
    45    22    23    1
    46    99    98    1
    47    11    14    1
    48    11    12    1
    49    14    15    1
    50    97    98    2
    51    97    96    1
    52    98   100    1
    53   170   168    1
    54    12    13    2
    55    15    16    1
    56    23    24    2
    57    23    29   am
    58   131   129   ar
    59    43    41   am
    60   164   165    1
    61    96    95    1
    62    42    41    2
    63    16    17    1
    64    41    40    1
    65   168   165    1
    66   168   169    1
    67    29    30    1
    68    95    94    1
    69   129   130   ar
    70   129   128    1
    71   165   166    1
    72    36    37    1
    73    89    87    1
    74   166   167    2
    75    51    49   am
    76    94    91    1
    77    17    18    2
    78    48    49    1
    79    48    45    1
    80    37    40    1
    81    37    38    1
    82   169   171    1
    83    47    46    2
    84    88    87    1
    85   128   125    1
    86    93    92    2
    87    30    31    1
    88    30    33    1
    89    91    92    1
    90    91    90    1
    91    87    86    1
    92    49    50    2
    93    44    45    1
    94    31    32    2
    95   119   118   ar
    96   119   117   ar
    97    35    33    1
    98    46    45    1
    99    46    52   am
   100   125   124    1
   101   125   126    1
   102   124   122   am
   103    18    19    1
   104    18    20    1
   105   118   116   ar
   106    33    34    1
   107    38    39    2
   108   121   122    1
   109   121   120    1
   110    58    52    1
   111    58    57    1
   112    52    53    1
   113   122   123    2
   114   117   115   ar
   115    86    83    1
   116    85    84    2
   117   126   127    2
   118    53    56    1
   119    53    54    1
   120   116   115   ar
   121    57    56    1
   122   120   112   am
   123    84    83    1
   124   115   114    1
   125    83    82    1
   126   113   112    2
   127   112   111    1
   128    54    59   am
   129    54    55    2
   130    59    60    1
   131   114   111    1
   132   111   110    1
   133    63    60    1
   134    63    64    1
   135    63    65    1
   136    60    61    1
   137   187   185    1
   138    81    79    1
   139   186   184    1
   140   185   184    1
   141   110   103   am
   142   109   107   ar
   143   104   103    2
   144    61    66   am
   145    61    62    2
   146   103   102    1
   147    80    78    1
   148    78    79    1
   149    78    75    1
   150   184   181    1
   151    66    67    1
   152   105   102    1
   153   105   106    1
   154   107   108   ar
   155   107   106    1
   156    73    71   ar
   157   181   182    1
   158   181   180    1
   159   183   182    2
   160    74    75    1
   161    74    68   am
   162   102   101    1
   163    75    76    1
   164    76    77    2
   165    71    70    1
   166    71    72   ar
   167    67    70    1
   168    67    68    1
   169   179   177    1
   170    68    69    2
   171   177   176    1
   172   177   178    1
   173   172   173    1
   174   173   176    1
   175   173   174    1
   176   175   174    2
