@<TRIPOS>MOLECULE
tmp/5w8lC01.pdb
 216 204 0 0 0
SMALL
GASTEIGER

@<TRIPOS>ATOM
      1  N         -1.8470   24.6680  -52.7250 N.3    30  VAL30      -0.1245
      2  CA        -0.7320   25.5310  -53.1040 C.3    30  VAL30       0.1561
      3  C         -1.2170   26.6730  -53.9870 C.2    30  VAL30       0.2260
      4  O         -0.8580   27.8370  -53.7720 O.2    30  VAL30      -0.2867
      5  CB         0.3750   24.7120  -53.7900 C.3    30  VAL30       0.0252
      6  CG1        1.4290   25.6510  -54.3990 C.3    30  VAL30       0.0019
      7  CG2        1.0270   23.7660  -52.7840 C.3    30  VAL30       0.0019
      8  N          0.4480   11.7880  -56.3800 N.3    99  GLN99      -0.1245
      9  CA         1.2700   10.5890  -56.4010 C.3    99  GLN99       0.1566
     10  C          0.5440    9.4700  -55.6740 C.2    99  GLN99       0.2260
     11  O          0.0950    9.6400  -54.5390 O.2    99  GLN99      -0.2867
     12  CB         2.6310   10.8580  -55.7560 C.3    99  GLN99       0.0367
     13  CG         3.6150    9.7050  -55.9010 C.3    99  GLN99       0.0905
     14  CD         5.0020   10.0490  -55.3920 C.2    99  GLN99       0.2608
     15  OE1        5.2690   11.1840  -54.9890 O.2    99  GLN99      -0.2717
     16  NE2        5.8940    9.0630  -55.4020 N.am   99  GLN99      -0.0878
     17  N          8.6940    8.0470  -58.2200 N.3   105  ARG105     -0.1231
     18  CA         8.8930    9.4420  -58.5930 C.3   105  ARG105      0.1694
     19  C          9.0580    9.5950  -60.1040 C.2   105  ARG105      0.2591
     20  O          8.6590   10.6190  -60.6700 O.2   105  ARG105     -0.2718
     21  CB        10.0940   10.0260  -57.8390 C.3   105  ARG105      0.0321
     22  CG         9.8370   10.2870  -56.3450 C.3   105  ARG105      0.0489
     23  CD        10.9880   11.0700  -55.7100 C.3   105  ARG105      0.2205
     24  NE        10.6370   11.6290  -54.4050 N.pl3 105  ARG105     -0.0865
     25  CZ        11.4430   12.4000  -53.6750 C.cat 105  ARG105      0.5346
     26  NH1       11.0410   12.8650  -52.4950 N.pl3 105  ARG105      0.1354
     27  NH2       12.6530   12.7130  -54.1230 N.pl3 105  ARG105      0.1354
     28  N          9.6110    8.5840  -60.7820 N.am  106  LEU106     -0.1980
     29  CA         9.7760    8.6940  -62.2280 C.3   106  LEU106      0.1596
     30  C          8.4420    8.5570  -62.9530 C.2   106  LEU106      0.2287
     31  O          8.1980    9.2500  -63.9520 O.2   106  LEU106     -0.2864
     32  CB        10.7740    7.6510  -62.7300 C.3   106  LEU106      0.0297
     33  CG        12.2230    7.9280  -62.3360 C.3   106  LEU106      0.0022
     34  CD1       13.1170    6.8200  -62.8610 C.3   106  LEU106      0.0001
     35  CD2       12.6670    9.2910  -62.8650 C.3   106  LEU106      0.0001
     36  N          5.6040    9.4070  -61.6370 N.3   108  LEU108     -0.1231
     37  CA         4.8540   10.6020  -61.2710 C.3   108  LEU108      0.1693
     38  C          5.2220   11.7850  -62.1580 C.2   108  LEU108      0.2591
     39  O          4.3400   12.5120  -62.6360 O.2   108  LEU108     -0.2718
     40  CB         5.0960   10.9330  -59.7950 C.3   108  LEU108      0.0284
     41  CG         4.3230   12.0970  -59.1540 C.3   108  LEU108      0.0019
     42  CD1        5.0000   13.4620  -59.3860 C.3   108  LEU108      0.0001
     43  CD2        2.8500   12.1100  -59.5920 C.3   108  LEU108      0.0001
     44  N          6.5200   12.0240  -62.3680 N.am  109  VAL109     -0.1980
     45  CA         6.8940   13.1960  -63.1560 C.3   109  VAL109      0.1595
     46  C          6.3420   13.0780  -64.5720 C.2   109  VAL109      0.2287
     47  O          5.8610   14.0620  -65.1450 O.2   109  VAL109     -0.2864
     48  CB         8.4210   13.4250  -63.1450 C.3   109  VAL109      0.0276
     49  CG1        9.1750   12.2490  -63.7240 C.3   109  VAL109      0.0022
     50  CG2        8.7660   14.7120  -63.9070 C.3   109  VAL109      0.0022
     51  N          6.0010   20.2070  -58.5850 N.3   137  ASN137     -0.1226
     52  CA         7.2070   19.4100  -58.4030 C.3   137  ASN137      0.1770
     53  C          7.1870   18.1570  -59.2710 C.2   137  ASN137      0.2439
     54  O          6.1210   17.5980  -59.5470 O.2   137  ASN137     -0.2733
     55  CB         7.3770   19.0130  -56.9280 C.3   137  ASN137      0.1168
     56  CG         8.2180   20.0120  -56.1690 C.2   137  ASN137      0.2627
     57  OD1        9.3230   20.3480  -56.5920 O.2   137  ASN137     -0.2716
     58  ND2        7.6870   20.5250  -55.0650 N.am  137  ASN137     -0.0877
     59  N          8.3610   17.6800  -59.7270 N.am  138  PRO138     -0.2718
     60  CA         9.6940   18.2450  -59.4650 C.3   138  PRO138      0.1535
     61  C          9.9080   19.5760  -60.1710 C.2   138  PRO138      0.2598
     62  O          9.8870   19.6040  -61.4000 O.2   138  PRO138     -0.2715
     63  CB        10.6500   17.1840  -60.0160 C.3   138  PRO138      0.0310
     64  CG         9.8560   16.4150  -61.0110 C.3   138  PRO138      0.0237
     65  CD         8.4190   16.4720  -60.5670 C.3   138  PRO138      0.0939
     66  N         10.1140   20.6550  -59.4050 N.am  139  VAL139     -0.1964
     67  CA         9.9690   21.9890  -59.9820 C.3   139  VAL139      0.1727
     68  C         11.0800   22.2810  -60.9830 C.2   139  VAL139      0.2616
     69  O         10.8400   22.9010  -62.0260 O.2   139  VAL139     -0.2715
     70  CB         9.8950   23.0570  -58.8740 C.3   139  VAL139      0.0290
     71  CG1       11.1990   23.1260  -58.0780 C.3   139  VAL139      0.0023
     72  CG2        9.5470   24.4120  -59.4880 C.3   139  VAL139      0.0023
     73  N         12.3060   21.8380  -60.7060 N.am  140  ASP140     -0.1957
     74  CA        13.3840   22.1650  -61.6310 C.3   140  ASP140      0.1840
     75  C         13.2110   21.4180  -62.9470 C.2   140  ASP140      0.2621
     76  O         13.3950   21.9990  -64.0260 O.2   140  ASP140     -0.2715
     77  CB        14.7360   21.8650  -60.9850 C.3   140  ASP140      0.1450
     78  CG        14.9120   22.6060  -59.6710 C.2   140  ASP140      0.3671
     79  OD1       14.8310   23.8620  -59.6760 O.co2 140  ASP140     -0.2456
     80  OD2       15.0970   21.9280  -58.6350 O.co2 140  ASP140     -0.2456
     81  N         12.8230   20.1430  -62.8780 N.am  141  ILE141     -0.1977
     82  CA        12.5560   19.3800  -64.0980 C.3   141  ILE141      0.1596
     83  C         11.3660   19.9670  -64.8500 C.2   141  ILE141      0.2287
     84  O         11.4050   20.1370  -66.0770 O.2   141  ILE141     -0.2864
     85  CB        12.3250   17.8970  -63.7660 C.3   141  ILE141      0.0276
     86  CG1       13.6360   17.2230  -63.3560 C.3   141  ILE141      0.0022
     87  CG2       11.6720   17.1680  -64.9510 C.3   141  ILE141      0.0022
     88  CD1       13.4270   15.8600  -62.7190 C.3   141  ILE141      0.0001
     89  N         11.8880   29.5010  -51.6990 N.3   164  LEU164     -0.1231
     90  CA        11.3080   28.9610  -50.4720 C.3   164  LEU164      0.1693
     91  C         12.3740   28.3300  -49.5820 C.2   164  LEU164      0.2592
     92  O         12.3770   28.5490  -48.3650 O.2   164  LEU164     -0.2718
     93  CB        10.2220   27.9310  -50.8050 C.3   164  LEU164      0.0284
     94  CG         9.6230   27.1280  -49.6390 C.3   164  LEU164      0.0019
     95  CD1        9.0360   28.0680  -48.5710 C.3   164  LEU164      0.0001
     96  CD2        8.5520   26.1320  -50.1450 C.3   164  LEU164      0.0001
     97  N         13.2840   27.5400  -50.1650 N.am  165  ASP165     -0.1974
     98  CA        14.3300   26.9080  -49.3590 C.3   165  ASP165      0.1709
     99  C         15.1860   27.9590  -48.6620 C.2   165  ASP165      0.2293
    100  O         15.5510   27.8030  -47.4880 O.2   165  ASP165     -0.2864
    101  CB        15.2040   26.0080  -50.2380 C.3   165  ASP165      0.1436
    102  CG        14.3850   25.0450  -51.0890 C.2   165  ASP165      0.3671
    103  OD1       13.6320   25.5140  -51.9750 O.co2 165  ASP165     -0.2456
    104  OD2       14.4900   23.8230  -50.8650 O.co2 165  ASP165     -0.2456
    105  N         13.3060   29.3790  -45.7690 N.3   168  ARG168     -0.1245
    106  CA        13.3950   28.4790  -44.6200 C.3   168  ARG168      0.1563
    107  C         14.7590   28.5860  -43.9550 C.2   168  ARG168      0.2260
    108  O         14.8660   28.6000  -42.7200 O.2   168  ARG168     -0.2867
    109  CB        13.1290   27.0340  -45.0500 C.3   168  ARG168      0.0307
    110  CG        11.6880   26.7500  -45.4470 C.3   168  ARG168      0.0489
    111  CD        11.4900   25.2810  -45.8120 C.3   168  ARG168      0.2205
    112  NE        10.0720   24.9600  -45.9640 N.pl3 168  ARG168     -0.0865
    113  CZ         9.5280   24.3970  -47.0420 C.cat 168  ARG168      0.5346
    114  NH1        8.2180   24.1520  -47.0630 N.pl3 168  ARG168      0.1354
    115  NH2       10.2770   24.0710  -48.0960 N.pl3 168  ARG168      0.1354
    116  N         19.1550   22.5720  -56.7070 N.3   191  GLU191     -0.1231
    117  CA        17.8390   21.9470  -56.7520 C.3   191  GLU191      0.1699
    118  C         16.9840   22.3730  -55.5700 C.2   191  GLU191      0.2592
    119  O         17.4830   22.5850  -54.4690 O.2   191  GLU191     -0.2718
    120  CB        17.9600   20.4250  -56.7270 C.3   191  GLU191      0.0402
    121  CG        18.6360   19.8040  -57.9370 C.3   191  GLU191      0.1161
    122  CD        18.6550   18.2970  -57.8200 C.2   191  GLU191      0.3649
    123  OE1       19.7560   17.7060  -57.8170 O.co2 191  GLU191     -0.2457
    124  OE2       17.5590   17.7110  -57.6870 O.co2 191  GLU191     -0.2457
    125  N         15.6790   22.4600  -55.8020 N.am  192  HIS192     -0.1962
    126  CA        14.7340   22.5850  -54.7010 C.3   192  HIS192      0.1787
    127  C         14.7410   21.3180  -53.8450 C.2   192  HIS192      0.2621
    128  O         14.8390   20.2040  -54.3600 O.2   192  HIS192     -0.2715
    129  CB        13.3360   22.8490  -55.2520 C.3   192  HIS192      0.0785
    130  CG        12.2500   22.7670  -54.2230 C.ar  192  HIS192      0.0821
    131  ND1       12.1480   23.6590  -53.1760 N.ar  192  HIS192     -0.2267
    132  CD2       11.2140   21.9050  -54.0880 C.ar  192  HIS192      0.1154
    133  CE1       11.1000   23.3430  -52.4310 C.ar  192  HIS192      0.1986
    134  NE2       10.5170   22.2810  -52.9600 N.ar  192  HIS192     -0.2212
    135  N         14.6610   21.4950  -52.5270 N.am  193  GLY193     -0.1940
    136  CA        14.4730   20.3540  -51.6350 C.3   193  GLY193      0.2014
    137  C         15.7420   19.5490  -51.4130 C.2   193  GLY193      0.2638
    138  O         16.8060   20.1040  -51.1080 O.2   193  GLY193     -0.2714
    139  N         15.6180   18.2250  -51.5750 N.am  194  ASP194     -0.1971
    140  CA        16.6130   17.2010  -51.2520 C.3   194  ASP194      0.1709
    141  C         18.0710   17.6080  -51.4520 C.2   194  ASP194      0.2293
    142  O         18.8750   17.5440  -50.5170 O.2   194  ASP194     -0.2864
    143  CB        16.3480   15.9460  -52.0960 C.3   194  ASP194      0.1436
    144  CG        14.9330   15.4070  -51.9320 C.2   194  ASP194      0.3671
    145  OD1       14.1380   15.9910  -51.1730 O.co2 194  ASP194     -0.2456
    146  OD2       14.6070   14.3810  -52.5660 O.co2 194  ASP194     -0.2456
    147  N         16.4530   22.7310  -43.4190 N.3   233  VAL233     -0.1231
    148  CA        15.7930   23.2930  -44.5990 C.3   233  VAL233      0.1692
    149  C         15.0790   22.1920  -45.3670 C.2   233  VAL233      0.2591
    150  O         13.9570   22.3760  -45.8630 O.2   233  VAL233     -0.2718
    151  CB        16.7950   24.0410  -45.5030 C.3   233  VAL233      0.0266
    152  CG1       16.1750   24.3020  -46.8880 C.3   233  VAL233      0.0020
    153  CG2       17.2070   25.3570  -44.8670 C.3   233  VAL233      0.0020
    154  N         15.7120   21.0290  -45.4650 N.am  234  VAL234     -0.1980
    155  CA        15.1340   19.9150  -46.2040 C.3   234  VAL234      0.1595
    156  C         14.1780   19.1280  -45.3190 C.2   234  VAL234      0.2287
    157  O         13.0400   18.8420  -45.7070 O.2   234  VAL234     -0.2864
    158  CB        16.2550   19.0150  -46.7650 C.3   234  VAL234      0.0276
    159  CG1       15.6670   17.8240  -47.5100 C.3   234  VAL234      0.0022
    160  CG2       17.1870   19.8150  -47.6900 C.3   234  VAL234      0.0022
    161  N         10.6150   20.6060  -44.4090 N.3   237  ALA237     -0.1231
    162  CA         9.6080   20.4660  -45.4540 C.3   237  ALA237      0.1694
    163  C          8.9160   19.1140  -45.3520 C.2   237  ALA237      0.2592
    164  O          7.6830   19.0330  -45.3250 O.2   237  ALA237     -0.2718
    165  CB        10.2450   20.6490  -46.8340 C.3   237  ALA237      0.0304
    166  N          9.7040   18.0350  -45.2610 N.am  238  TYR238     -0.1976
    167  CA         9.1250   16.7070  -45.0970 C.3   238  TYR238      0.1639
    168  C          8.3350   16.6020  -43.8000 C.2   238  TYR238      0.2290
    169  O          7.3250   15.8910  -43.7430 O.2   238  TYR238     -0.2864
    170  CB        10.2210   15.6310  -45.1310 C.3   238  TYR238      0.0560
    171  CG        10.7600   15.3410  -46.5180 C.ar  238  TYR238     -0.0198
    172  CD1       10.0890   14.4850  -47.3730 C.ar  238  TYR238     -0.0009
    173  CD2       11.9400   15.9250  -46.9650 C.ar  238  TYR238     -0.0009
    174  CE1       10.5730   14.2080  -48.6430 C.ar  238  TYR238      0.0417
    175  CE2       12.4360   15.6600  -48.2400 C.ar  238  TYR238      0.0417
    176  CZ        11.7460   14.8000  -49.0730 C.ar  238  TYR238      0.1957
    177  OH        12.2290   14.5330  -50.3410 O.3   238  TYR238     -0.2866
    178  N          4.9250   18.1690  -44.2910 N.3   241  ILE241     -0.1245
    179  CA         4.1450   17.2360  -45.1010 C.3   241  ILE241      0.1561
    180  C          3.6260   16.0930  -44.2440 C.2   241  ILE241      0.2260
    181  O          2.4590   15.6960  -44.3500 O.2   241  ILE241     -0.2867
    182  CB         4.9860   16.7090  -46.2810 C.3   241  ILE241      0.0252
    183  CG1        5.2910   17.8490  -47.2630 C.3   241  ILE241      0.0019
    184  CG2        4.2460   15.5710  -46.9820 C.3   241  ILE241      0.0019
    185  CD1        6.3890   17.5140  -48.2830 C.3   241  ILE241      0.0001
    186  N          2.3080   21.1390  -47.8240 N.3   247  THR247     -0.1218
    187  CA         2.6720   22.4950  -47.4210 C.3   247  THR247      0.1862
    188  C          1.9750   23.4850  -48.3390 C.2   247  THR247      0.2287
    189  O          1.6900   23.1800  -49.5030 O.2   247  THR247     -0.2866
    190  CB         4.2030   22.7430  -47.4330 C.3   247  THR247      0.1770
    191  OG1        4.6490   23.0980  -48.7490 O.3   247  THR247     -0.2211
    192  CG2        4.9670   21.5010  -46.9550 C.3   247  THR247      0.0375
    193  N          4.9930   28.4210  -49.3530 N.3   251  ILE251     -0.1245
    194  CA         5.1740   28.5050  -50.8050 C.3   251  ILE251      0.1561
    195  C          4.2660   29.5840  -51.3800 C.2   251  ILE251      0.2260
    196  O          4.6550   30.3200  -52.2970 O.2   251  ILE251     -0.2867
    197  CB         4.9510   27.1290  -51.4740 C.3   251  ILE251      0.0252
    198  CG1        5.1610   27.2230  -52.9980 C.3   251  ILE251      0.0019
    199  CG2        3.5640   26.5280  -51.1430 C.3   251  ILE251      0.0019
    200  CD1        6.5610   27.6970  -53.3810 C.3   251  ILE251      0.0001
    201  N         19.5710   15.6410  -63.3840 N.3   322  LEU322     -0.1245
    202  CA        18.3690   16.1850  -64.0120 C.3   322  LEU322      0.1561
    203  C         18.3260   15.8790  -65.5090 C.2   322  LEU322      0.2260
    204  O         17.2700   15.5140  -66.0440 O.2   322  LEU322     -0.2867
    205  CB        18.2870   17.6950  -63.7690 C.3   322  LEU322      0.0270
    206  CG        17.4630   18.1470  -62.5580 C.3   322  LEU322      0.0019
    207  CD1       17.8910   17.4070  -61.2930 C.3   322  LEU322      0.0001
    208  CD2       17.5410   19.6570  -62.3520 C.3   322  LEU322      0.0001
    209  N         17.2420   12.3180  -66.2650 N.3   325  ILE325     -0.1245
    210  CA        15.7990   12.1380  -66.1530 C.3   325  ILE325      0.1561
    211  C         15.0910   12.7670  -67.3480 C.2   325  ILE325      0.2260
    212  O         14.2300   12.1430  -67.9810 O.2   325  ILE325     -0.2867
    213  CB        15.2910   12.7270  -64.8240 C.3   325  ILE325      0.0252
    214  CG1       15.8660   11.9520  -63.6340 C.3   325  ILE325      0.0019
    215  CG2       13.7720   12.7480  -64.7960 C.3   325  ILE325      0.0019
    216  CD1       15.7020   12.6710  -62.3080 C.3   325  ILE325      0.0001
@<TRIPOS>BOND
     1   212   211    2
     2   211   210    1
     3   209   210    1
     4   210   213    1
     5    84    83    2
     6   204   203    2
     7   203   202    1
     8    47    46    2
     9    87    85    1
    10    83    82    1
    11   213   215    1
    12   213   214    1
    13    46    45    1
    14    82    85    1
    15    82    81    1
    16    76    75    2
    17   202   205    1
    18   202   201    1
    19    31    30    2
    20    50    48    1
    21   205   206    1
    22    85    86    1
    23    49    48    1
    24   214   216    1
    25    86    88    1
    26    45    48    1
    27    45    44    1
    28    30    29    1
    29    75    81   am
    30    75    74    1
    31    35    33    1
    32    34    33    1
    33    32    33    1
    34    32    29    1
    35    39    38    2
    36   206   208    1
    37   206   207    1
    38    44    38   am
    39    29    28    1
    40    38    37    1
    41    69    68    2
    42    36    37    1
    43    74    77    1
    44    74    73    1
    45    62    61    2
    46    37    40    1
    47    64    65    1
    48    64    63    1
    49    77    78    1
    50    68    73   am
    51    68    67    1
    52    28    19   am
    53    20    19    2
    54    65    59    1
    55    61    60    1
    56    61    66   am
    57    19    18    1
    58    63    60    1
    59    67    66    1
    60    67    70    1
    61    40    41    1
    62    59    60    1
    63    59    53   am
    64    79    78   ar
    65    78    80   ar
    66    43    41    1
    67    54    53    2
    68    72    70    1
    69    42    41    1
    70    53    52    1
    71    70    71    1
    72    18    17    1
    73    18    21    1
    74    51    52    1
    75    52    55    1
    76   121   122    1
    77   121   120    1
    78    21    22    1
    79   122   123   ar
    80   122   124   ar
    81    55    56    1
    82   117   120    1
    83   117   116    1
    84   117   118    1
    85    57    56    2
    86     9     8    1
    87     9    12    1
    88     9    10    1
    89    22    23    1
    90    56    58   am
    91    13    12    1
    92    13    14    1
    93   125   118   am
    94   125   126    1
    95    23    24    1
    96    10    11    2
    97   118   119    2
    98    16    14   am
    99    14    15    2
   100   129   126    1
   101   129   130    1
   102   126   127    1
   103    24    25    2
   104     6     5    1
   105   128   127    2
   106   130   132   ar
   107   130   131   ar
   108    27    25    1
   109   132   134   ar
   110     3     4    2
   111     3     2    1
   112   127   135   am
   113     5     2    1
   114     5     7    1
   115    25    26    1
   116   200   198    1
   117   131   133   ar
   118     2     1    1
   119   198   197    1
   120   134   133   ar
   121   146   144   ar
   122   135   136    1
   123   196   195    2
   124   143   144    1
   125   143   140    1
   126   103   102   ar
   127   144   145   ar
   128    89    90    1
   129   136   137    1
   130   139   137   am
   131   139   140    1
   132   197   199    1
   133   197   194    1
   134   141   140    1
   135   141   142    2
   136   137   138    2
   137   195   194    1
   138   102   104   ar
   139   102   101    1
   140   194   193    1
   141    93    90    1
   142    93    94    1
   143    90    91    1
   144   177   176    1
   145   101    98    1
   146    97    91   am
   147    97    98    1
   148    96    94    1
   149    94    95    1
   150    91    92    2
   151   189   188    2
   152    98    99    1
   153   176   174   ar
   154   176   175   ar
   155   191   190    1
   156    99   100    2
   157   174   172   ar
   158   188   187    1
   159   185   183    1
   160   175   173   ar
   161   115   113    1
   162   186   187    1
   163   160   158    1
   164   159   158    1
   165   190   187    1
   166   190   192    1
   167   172   171   ar
   168   183   182    1
   169   114   113    1
   170   113   112    2
   171   184   182    1
   172   173   171   ar
   173   152   151    1
   174   165   162    1
   175   158   155    1
   176   171   170    1
   177   182   179    1
   178   155   154    1
   179   155   156    1
   180   112   111    1
   181   150   149    2
   182   111   110    1
   183   105   106    1
   184   157   156    2
   185   151   153    1
   186   151   148    1
   187   154   149   am
   188   162   163    1
   189   162   161    1
   190   110   109    1
   191   149   148    1
   192   163   164    2
   193   163   166   am
   194   166   167    1
   195   170   167    1
   196   179   178    1
   197   179   180    1
   198   167   168    1
   199   109   106    1
   200   106   107    1
   201   148   147    1
   202   181   180    2
   203   107   108    2
   204   168   169    2
