@<TRIPOS>MOLECULE
tmp/5w8mB00.pdb
 82 78 0 0 0
SMALL
GASTEIGER

@<TRIPOS>ATOM
      1  N         27.5480   32.5680   34.6650 N.3    44  LEU44      -0.1231
      2  CA        26.2980   33.1790   34.2520 C.3    44  LEU44       0.1693
      3  C         25.1540   32.8360   35.2430 C.2    44  LEU44       0.2593
      4  O         24.6070   33.7640   35.8480 O.2    44  LEU44      -0.2718
      5  CB        25.9560   32.7950   32.8100 C.3    44  LEU44       0.0284
      6  CG        26.5220   33.7650   31.7610 C.3    44  LEU44       0.0019
      7  CD1       28.0210   33.8390   31.8350 C.3    44  LEU44       0.0001
      8  CD2       26.0680   33.3890   30.3600 C.3    44  LEU44       0.0001
      9  N         24.7960   31.5770   35.4830 N.am   45  THR45      -0.1939
     10  CA        25.2300   30.3950   34.7730 C.3    45  THR45       0.2028
     11  C         24.1900   29.9090   33.7740 C.2    45  THR45       0.2642
     12  O         24.5090   29.0840   32.9170 O.2    45  THR45      -0.2714
     13  CB        25.5150   29.2240   35.7530 C.3    45  THR45       0.1808
     14  OG1       24.3820   28.9790   36.5990 O.3    45  THR45      -0.2208
     15  CG2       26.7190   29.5150   36.6060 C.3    45  THR45       0.0379
     16  N         22.9350   30.3640   33.8950 N.am   46  ASP46      -0.1957
     17  CA        21.8850   29.7500   33.0980 C.3    46  ASP46       0.1840
     18  C         21.6810   30.4160   31.7290 C.2    46  ASP46       0.2621
     19  O         22.2480   31.4590   31.4210 O.2    46  ASP46      -0.2715
     20  CB        20.5400   29.6780   33.8840 C.3    46  ASP46       0.1450
     21  CG        19.9590   31.0360   34.2710 C.2    46  ASP46       0.3671
     22  OD1       20.4640   32.0690   33.8210 O.co2  46  ASP46      -0.2456
     23  OD2       18.9420   31.0280   35.0230 O.co2  46  ASP46      -0.2456
     24  N         20.8960   29.7430   30.8950 N.am   47  ARG47      -0.1977
     25  CA        20.6410   30.2300   29.5490 C.3    47  ARG47       0.1597
     26  C         19.8820   31.5570   29.5580 C.2    47  ARG47       0.2287
     27  O         20.1200   32.4230   28.7190 O.2    47  ARG47      -0.2864
     28  CB        19.8690   29.1790   28.7600 C.3    47  ARG47       0.0334
     29  CG        19.5180   29.5960   27.3510 C.3    47  ARG47       0.0492
     30  CD        20.6960   29.5750   26.4120 C.3    47  ARG47       0.2205
     31  NE        20.3750   30.2970   25.1820 N.pl3  47  ARG47      -0.0865
     32  CZ        21.1160   30.2810   24.0800 C.cat  47  ARG47       0.5346
     33  NH1       22.2380   29.5730   24.0370 N.pl3  47  ARG47       0.1354
     34  NH2       20.7270   30.9770   23.0190 N.pl3  47  ARG47       0.1354
     35  N         22.4030   34.2340   29.8750 N.3    50  TYR50      -0.1241
     36  CA        23.0770   34.3700   28.5890 C.3    50  TYR50       0.1605
     37  C         22.2410   35.1850   27.6220 C.2    50  TYR50       0.2264
     38  O         22.7400   36.1120   26.9810 O.2    50  TYR50      -0.2867
     39  CB        23.3670   33.0070   27.9850 C.3    50  TYR50       0.0534
     40  CG        23.9540   33.0700   26.5950 C.ar   50  TYR50      -0.0201
     41  CD1       25.2870   33.4060   26.3950 C.ar   50  TYR50      -0.0009
     42  CD2       23.1780   32.7720   25.4850 C.ar   50  TYR50      -0.0009
     43  CE1       25.8270   33.4480   25.1210 C.ar   50  TYR50       0.0417
     44  CE2       23.7100   32.8230   24.2160 C.ar   50  TYR50       0.0417
     45  CZ        25.0290   33.1630   24.0450 C.ar   50  TYR50       0.1957
     46  OH        25.5420   33.1910   22.7680 O.3    50  TYR50      -0.2866
     47  N         30.5670   27.5770   35.1970 N.3    68  ASP68      -0.1239
     48  CA        29.9390   27.3240   33.8970 C.3    68  ASP68       0.1674
     49  C         30.2880   25.9140   33.3940 C.2    68  ASP68       0.2266
     50  O         30.8540   25.7410   32.3060 O.2    68  ASP68      -0.2867
     51  CB        30.3760   28.3640   32.8700 C.3    68  ASP68       0.1410
     52  CG        29.9740   29.8030   33.2540 C.2    68  ASP68       0.3668
     53  OD1       28.7840   30.0380   33.6060 O.co2  68  ASP68      -0.2456
     54  OD2       30.8240   30.7160   33.1400 O.co2  68  ASP68      -0.2456
     55  N         28.5210   23.5540   32.2120 N.3    70  GLU70      -0.1231
     56  CA        27.8040   23.0560   31.0420 C.3    70  GLU70       0.1699
     57  C         28.2290   23.8040   29.7760 C.2    70  GLU70       0.2592
     58  O         27.9360   23.3600   28.6610 O.2    70  GLU70      -0.2718
     59  CB        26.2920   23.1770   31.2510 C.3    70  GLU70       0.0402
     60  CG        25.7890   22.4260   32.4840 C.3    70  GLU70       0.1161
     61  CD        24.2820   22.3130   32.5380 C.2    70  GLU70       0.3649
     62  OE1       23.7130   21.5620   31.7170 O.co2  70  GLU70      -0.2457
     63  OE2       23.6680   22.9710   33.4080 O.co2  70  GLU70      -0.2457
     64  N         28.9300   24.9190   29.9380 N.am   71  ALA71      -0.1980
     65  CA        29.2350   25.7950   28.8080 C.3    71  ALA71       0.1597
     66  C         30.5870   25.4880   28.1640 C.2    71  ALA71       0.2287
     67  O         31.5130   26.2970   28.2260 O.2    71  ALA71      -0.2864
     68  CB        29.1950   27.2570   29.2640 C.3    71  ALA71       0.0319
     69  N         31.6550   25.2200   25.0350 N.3    73  SER73      -0.1202
     70  CA        32.1420   25.8950   23.8470 C.3    73  SER73       0.2020
     71  C         32.8600   27.1980   24.2060 C.2    73  SER73       0.2618
     72  O         33.4420   27.8390   23.3300 O.2    73  SER73      -0.2717
     73  CB        30.9960   26.1790   22.8830 C.3    73  SER73       0.2103
     74  OG        29.9770   26.9420   23.5040 O.3    73  SER73      -0.2182
     75  N         32.8070   27.5990   25.4770 N.am   74  LEU74      -0.1979
     76  CA        33.2960   28.9250   25.8620 C.3    74  LEU74       0.1596
     77  C         34.8060   28.9130   26.0870 C.2    74  LEU74       0.2287
     78  O         35.3340   27.9970   26.7180 O.2    74  LEU74      -0.2864
     79  CB        32.5970   29.4300   27.1350 C.3    74  LEU74       0.0297
     80  CG        31.0980   29.7340   27.0360 C.3    74  LEU74       0.0022
     81  CD1       30.6380   30.4470   28.2950 C.3    74  LEU74       0.0001
     82  CD2       30.7650   30.5570   25.8140 C.3    74  LEU74       0.0001
@<TRIPOS>BOND
     1    46    45    1
     2    73    74    1
     3    73    70    1
     4    34    32    1
     5    72    71    2
     6    70    71    1
     7    70    69    1
     8    33    32    1
     9    45    44   ar
    10    45    43   ar
    11    32    31    2
    12    71    75   am
    13    44    42   ar
    14    43    41   ar
    15    31    30    1
    16    75    76    1
    17    42    40   ar
    18    82    80    1
    19    76    77    1
    20    76    79    1
    21    77    78    2
    22    41    40   ar
    23    30    29    1
    24    40    39    1
    25    38    37    2
    26    80    79    1
    27    80    81    1
    28    29    28    1
    29    37    36    1
    30    39    36    1
    31    66    67    2
    32    66    65    1
    33    36    35    1
    34    58    57    2
    35    27    26    2
    36    28    25    1
    37    65    68    1
    38    65    64    1
    39    25    26    1
    40    25    24    1
    41    57    64   am
    42    57    56    1
    43     8     6    1
    44    24    18   am
    45    56    59    1
    46    56    55    1
    47    59    60    1
    48    19    18    2
    49    62    61   ar
    50    18    17    1
    51     6     7    1
    52     6     5    1
    53    50    49    2
    54    60    61    1
    55    61    63   ar
    56     5     2    1
    57    51    52    1
    58    51    48    1
    59    12    11    2
    60    17    20    1
    61    17    16    1
    62    54    52   ar
    63    52    53   ar
    64    49    48    1
    65    11    16   am
    66    11    10    1
    67    22    21   ar
    68    20    21    1
    69    48    47    1
    70     2     1    1
    71     2     3    1
    72    21    23   ar
    73    10     9    1
    74    10    13    1
    75     3     9   am
    76     3     4    2
    77    13    14    1
    78    13    15    1
