@<TRIPOS>MOLECULE
tmp/5w8rA00.pdb
 159 148 0 0 0
SMALL
GASTEIGER

@<TRIPOS>ATOM
      1  N         -2.5770  -14.5910   99.6100 N.3    14  LEU14      -0.1231
      2  CA        -2.5790  -15.0310   98.2170 C.3    14  LEU14       0.1693
      3  C         -2.6950  -13.8140   97.2720 C.2    14  LEU14       0.2593
      4  O         -2.0220  -13.7780   96.2410 O.2    14  LEU14      -0.2718
      5  CB        -3.7110  -16.0430   97.9710 C.3    14  LEU14       0.0284
      6  CG        -3.5280  -17.3990   98.6880 C.3    14  LEU14       0.0019
      7  CD1       -4.7650  -18.2580   98.5620 C.3    14  LEU14       0.0001
      8  CD2       -2.2830  -18.1560   98.1580 C.3    14  LEU14       0.0001
      9  N         -3.4860  -12.8150   97.6560 N.am   15  GLY15      -0.1942
     10  CA        -3.6370  -11.6010   96.8670 C.3    15  GLY15       0.2014
     11  C         -4.9490  -10.8700   97.0650 C.2    15  GLY15       0.2639
     12  O         -5.8000  -11.2990   97.8470 O.2    15  GLY15      -0.2714
     13  N         -5.1130   -9.7620   96.3310 N.am   16  LYS16      -0.1963
     14  CA        -6.2990   -8.9040   96.3810 C.3    16  LYS16       0.1728
     15  C         -7.3210   -9.3800   95.3470 C.2    16  LYS16       0.2616
     16  O         -6.9660   -9.5850   94.1870 O.2    16  LYS16      -0.2715
     17  CB        -5.8890   -7.4360   96.1040 C.3    16  LYS16       0.0311
     18  CG        -7.0390   -6.4460   95.8670 C.3    16  LYS16       0.0038
     19  CD        -7.9790   -6.3000   97.0590 C.3    16  LYS16       0.0206
     20  CE        -9.1130   -5.3520   96.7470 C.3    16  LYS16       0.1093
     21  NZ       -10.2360   -5.5070   97.6950 N.3    16  LYS16      -0.1314
     22  N         -8.5750   -9.5350   95.7710 N.am   17  GLY17      -0.1955
     23  CA        -9.6600   -9.9300   94.8880 C.3    17  GLY17       0.1869
     24  C        -10.7920   -8.9390   94.9670 C.2    17  GLY17       0.2309
     25  O        -10.7070   -7.9690   95.7260 O.2    17  GLY17      -0.2863
     26  N         -7.5570  -12.1470   99.8200 N.3    22  VAL22      -0.1245
     27  CA        -7.6700  -13.5960   99.8020 C.3    22  VAL22       0.1561
     28  C         -6.4670  -14.1570  100.5450 C.2    22  VAL22       0.2260
     29  O         -5.3250  -13.8340  100.2100 O.2    22  VAL22      -0.2867
     30  CB        -7.7840  -14.1320   98.3630 C.3    22  VAL22       0.0252
     31  CG1       -7.9020  -15.6550   98.3480 C.3    22  VAL22       0.0019
     32  CG2       -8.9660  -13.4940   97.6430 C.3    22  VAL22       0.0019
     33  N         -8.8100  -21.2600  100.5160 N.3    35  ALA35      -0.1231
     34  CA        -8.6250  -19.8680  100.1410 C.3    35  ALA35       0.1694
     35  C         -9.7730  -19.1450  100.8360 C.2    35  ALA35       0.2592
     36  O        -10.9030  -19.6100  100.7650 O.2    35  ALA35      -0.2718
     37  CB        -8.7330  -19.7010   98.6290 C.3    35  ALA35       0.0304
     38  N         -9.4950  -18.0760  101.5720 N.am   36  VAL36      -0.1966
     39  CA       -10.5540  -17.3610  102.2790 C.3    36  VAL36       0.1727
     40  C        -10.5760  -15.9260  101.8350 C.2    36  VAL36       0.2616
     41  O         -9.5700  -15.2380  101.9840 O.2    36  VAL36      -0.2715
     42  CB       -10.3940  -17.4530  103.8120 C.3    36  VAL36       0.0290
     43  CG1      -11.5060  -16.6790  104.5270 C.3    36  VAL36       0.0023
     44  CG2      -10.3870  -18.9070  104.2650 C.3    36  VAL36       0.0023
     45  N        -11.7450  -15.4380  101.3780 N.am   37  LYS37      -0.1977
     46  CA       -11.8940  -14.0400  101.0290 C.3    37  LYS37       0.1596
     47  C        -12.4950  -13.3460  102.2320 C.2    37  LYS37       0.2287
     48  O        -13.5820  -13.7160  102.6870 O.2    37  LYS37      -0.2864
     49  CB       -12.7800  -13.8420   99.7920 C.3    37  LYS37       0.0298
     50  CG       -12.9160  -12.3700   99.3950 C.3    37  LYS37       0.0038
     51  CD       -13.5290  -12.2100   98.0260 C.3    37  LYS37       0.0206
     52  CE       -12.5040  -12.2930   96.9270 C.3    37  LYS37       0.1093
     53  NZ       -13.1360  -12.2810   95.5890 N.3    37  LYS37      -0.1314
     54  N        -15.6430  -22.3130   90.9400 N.3    69  MET69      -0.1245
     55  CA       -14.9640  -22.4450   92.2230 C.3    69  MET69       0.1570
     56  C        -15.8780  -23.0880   93.2680 C.2    69  MET69       0.2261
     57  O        -17.0290  -22.6590   93.4330 O.2    69  MET69      -0.2867
     58  CB       -14.5070  -21.0900   92.7480 C.3    69  MET69       0.0387
     59  CG       -14.1000  -21.1450   94.2170 C.3    69  MET69       0.0595
     60  SD       -13.4720  -19.6260   94.8620 S.3    69  MET69      -0.1393
     61  CE       -13.1150  -20.1320   96.5140 C.3    69  MET69       0.0692
     62  N        -17.1570  -23.5230   96.9950 N.3    71  LEU71      -0.1245
     63  CA       -17.2760  -22.7960   98.2490 C.3    71  LEU71       0.1561
     64  C        -17.5880  -23.8310   99.3230 C.2    71  LEU71       0.2260
     65  O        -18.3460  -24.7590   99.0620 O.2    71  LEU71      -0.2867
     66  CB       -18.4100  -21.7650   98.1380 C.3    71  LEU71       0.0270
     67  CG       -18.5140  -20.7120   99.2510 C.3    71  LEU71       0.0019
     68  CD1      -17.3480  -19.7260   99.2000 C.3    71  LEU71       0.0001
     69  CD2      -19.8210  -19.9250   99.1250 C.3    71  LEU71       0.0001
     70  N        -15.5400  -15.8100  103.2880 N.3    83  LEU83      -0.1245
     71  CA       -16.0010  -16.7910  102.3120 C.3    83  LEU83       0.1561
     72  C        -14.8830  -17.7890  102.1600 C.2    83  LEU83       0.2260
     73  O        -13.8100  -17.4190  101.7050 O.2    83  LEU83      -0.2867
     74  CB       -16.3310  -16.1210  100.9700 C.3    83  LEU83       0.0270
     75  CG       -17.6600  -15.3850  100.9270 C.3    83  LEU83       0.0019
     76  CD1      -17.6960  -14.2610  101.9270 C.3    83  LEU83       0.0001
     77  CD2      -17.9190  -14.8450   99.5650 C.3    83  LEU83       0.0001
     78  N        -12.1880  -23.5020   97.9520 N.3    86  GLU86      -0.1231
     79  CA       -11.0460  -24.2510   97.4430 C.3    86  GLU86       0.1699
     80  C         -9.9540  -23.3410   96.8740 C.2    86  GLU86       0.2592
     81  O        -10.2610  -22.3530   96.2080 O.2    86  GLU86      -0.2718
     82  CB       -11.5220  -25.2210   96.3670 C.3    86  GLU86       0.0402
     83  CG       -10.5180  -26.2970   95.9830 C.3    86  GLU86       0.1161
     84  CD       -11.0670  -27.3050   94.9920 C.2    86  GLU86       0.3649
     85  OE1      -12.1190  -27.0310   94.3700 O.co2  86  GLU86      -0.2457
     86  OE2      -10.4250  -28.3590   94.8130 O.co2  86  GLU86      -0.2457
     87  N         -8.6700  -23.7250   97.1000 N.am   87  VAL87      -0.1966
     88  CA        -7.4930  -23.0020   96.5980 C.3    87  VAL87       0.1727
     89  C         -7.1920  -23.4990   95.2070 C.2    87  VAL87       0.2616
     90  O         -7.1650  -24.7060   94.9920 O.2    87  VAL87      -0.2715
     91  CB        -6.2000  -23.2110   97.4600 C.3    87  VAL87       0.0290
     92  CG1       -5.1050  -22.2220   97.0480 C.3    87  VAL87       0.0023
     93  CG2       -6.4650  -23.0970   98.9440 C.3    87  VAL87       0.0023
     94  N         -6.8180  -22.5910   94.3080 N.am   88  TYR88      -0.1974
     95  CA        -6.3330  -22.9190   92.9650 C.3    88  TYR88       0.1639
     96  C         -4.9590  -22.2770   92.8250 C.2    88  TYR88       0.2290
     97  O         -4.7620  -21.1490   93.2590 O.2    88  TYR88      -0.2864
     98  CB        -7.3280  -22.4570   91.8860 C.3    88  TYR88       0.0560
     99  CG        -8.7100  -23.0280   92.1050 C.ar   88  TYR88      -0.0198
    100  CD1       -8.9100  -24.4010   92.2030 C.ar   88  TYR88      -0.0009
    101  CD2       -9.7960  -22.1980   92.3470 C.ar   88  TYR88      -0.0009
    102  CE1      -10.1670  -24.9330   92.4820 C.ar   88  TYR88       0.0417
    103  CE2      -11.0580  -22.7190   92.6230 C.ar   88  TYR88       0.0417
    104  CZ       -11.2390  -24.0880   92.7010 C.ar   88  TYR88       0.1957
    105  OH       -12.4880  -24.5920   92.9960 O.3    88  TYR88      -0.2866
    106  N         -2.7710  -19.9050   88.8610 N.3    91  GLY91      -0.1210
    107  CA        -2.7380  -18.4800   88.5480 C.3    91  GLY91       0.1956
    108  C         -3.8160  -18.0740   87.5630 C.2    91  GLY91       0.2611
    109  O         -4.6930  -18.8740   87.2230 O.2    91  GLY91      -0.2717
    110  N         -3.7380  -16.8340   87.0730 N.am   92  GLU92      -0.1979
    111  CA        -4.7190  -16.2990   86.1420 C.3    92  GLU92       0.1602
    112  C         -4.4560  -16.8230   84.7330 C.2    92  GLU92       0.2287
    113  O         -3.3030  -16.8820   84.2960 O.2    92  GLU92      -0.2864
    114  CB        -4.6980  -14.7630   86.1650 C.3    92  GLU92       0.0415
    115  CG        -5.1470  -14.1850   87.4910 C.3    92  GLU92       0.1163
    116  CD        -4.8640  -12.7100   87.6720 C.2    92  GLU92       0.3649
    117  OE1       -4.6560  -12.0120   86.6530 O.co2  92  GLU92      -0.2457
    118  OE2       -4.8840  -12.2440   88.8330 O.co2  92  GLU92      -0.2457
    119  N         -9.3120  -11.9290   84.8300 N.3   135  GLU135     -0.1245
    120  CA        -8.7710  -12.0030   86.1990 C.3   135  GLU135      0.1567
    121  C         -9.5740  -13.0050   87.0660 C.2   135  GLU135      0.2260
    122  O         -9.0230  -13.5680   88.0150 O.2   135  GLU135     -0.2867
    123  CB        -8.7950  -10.5940   86.8290 C.3   135  GLU135      0.0388
    124  CG        -8.1860  -10.4730   88.2090 C.3   135  GLU135      0.1160
    125  CD        -7.9800   -9.0250   88.6200 C.2   135  GLU135      0.3649
    126  OE1       -8.8150   -8.5000   89.3930 O.co2 135  GLU135     -0.2457
    127  OE2       -7.0220   -8.3940   88.1150 O.co2 135  GLU135     -0.2457
    128  N         -9.2340  -18.5840   86.8830 N.3   138  LEU138     -0.1245
    129  CA        -8.0420  -19.1540   87.5000 C.3   138  LEU138      0.1561
    130  C         -7.8390  -20.5620   87.0040 C.2   138  LEU138      0.2260
    131  O         -8.8070  -21.2760   86.7550 O.2   138  LEU138     -0.2867
    132  CB        -8.1670  -19.1900   89.0320 C.3   138  LEU138      0.0270
    133  CG        -8.3880  -17.8720   89.7530 C.3   138  LEU138      0.0019
    134  CD1       -8.2040  -18.0560   91.2560 C.3   138  LEU138      0.0001
    135  CD2       -7.4480  -16.7900   89.2400 C.3   138  LEU138      0.0001
    136  N        -14.1450  -17.6640   89.3540 N.3   151  ILE151     -0.1231
    137  CA       -14.2630  -17.2510   90.7620 C.3   151  ILE151      0.1692
    138  C        -15.2570  -16.0870   90.8490 C.2   151  ILE151      0.2592
    139  O        -15.5140  -15.4150   89.8410 O.2   151  ILE151     -0.2718
    140  CB       -12.8670  -16.8850   91.3830 C.3   151  ILE151      0.0266
    141  CG1      -12.1500  -15.7750   90.5720 C.3   151  ILE151      0.0019
    142  CG2      -11.9750  -18.1320   91.4470 C.3   151  ILE151      0.0020
    143  CD1      -10.9640  -15.1140   91.2560 C.3   151  ILE151      0.0001
    144  N        -15.8590  -15.9110   92.0490 N.am  152  ASP152     -0.1974
    145  CA       -16.7810  -14.8260   92.4360 C.3   152  ASP152      0.1709
    146  C        -18.1690  -14.8870   91.7810 C.2   152  ASP152      0.2293
    147  O        -18.8720  -13.8740   91.7950 O.2   152  ASP152     -0.2864
    148  CB       -16.1770  -13.4490   92.1430 C.3   152  ASP152      0.1436
    149  CG       -14.9780  -13.1060   92.9860 C.2   152  ASP152      0.3671
    150  OD1      -14.6960  -13.8490   93.9500 O.co2 152  ASP152     -0.2456
    151  OD2      -14.3600  -12.0630   92.7260 O.co2 152  ASP152     -0.2456
    152  N        -21.4290  -13.0730   93.7310 N.3   155  LEU155     -0.1245
    153  CA       -21.0800  -12.0860   94.7590 C.3   155  LEU155      0.1561
    154  C        -21.5510  -10.6800   94.4150 C.2   155  LEU155      0.2260
    155  O        -21.9270   -9.9510   95.3280 O.2   155  LEU155     -0.2867
    156  CB       -19.5620  -12.0550   95.0030 C.3   155  LEU155      0.0270
    157  CG       -18.9010  -13.3530   95.4850 C.3   155  LEU155      0.0019
    158  CD1      -17.4860  -13.0780   95.9540 C.3   155  LEU155      0.0001
    159  CD2      -19.6920  -14.0070   96.6240 C.3   155  LEU155      0.0001
@<TRIPOS>BOND
     1   113   112    2
     2   112   111    1
     3   119   120    1
     4   111   114    1
     5   111   110    1
     6   114   115    1
     7   120   123    1
     8   120   121    1
     9   117   116   ar
    10   131   130    2
    11   123   124    1
    12   128   129    1
    13   130   129    1
    14   121   122    2
    15   110   108   am
    16   109   108    2
    17   115   116    1
    18   129   132    1
    19   108   107    1
    20   116   118   ar
    21   127   125   ar
    22   124   125    1
    23   107   106    1
    24   125   126   ar
    25   132   133    1
    26   135   133    1
    27   136   137    1
    28   133   134    1
    29   139   138    2
    30   141   143    1
    31   141   140    1
    32   137   138    1
    33   137   140    1
    34   138   144   am
    35    54    55    1
    36   140   142    1
    37   146   147    2
    38   146   145    1
    39    98    99    1
    40    98    95    1
    41   144   145    1
    42    99   100   ar
    43    99   101   ar
    44   148   145    1
    45   148   149    1
    46   100   102   ar
    47    55    58    1
    48    55    56    1
    49   101   103   ar
    50   102   104   ar
    51   103   104   ar
    52   104   105    1
    53   151   149   ar
    54    58    59    1
    55    96    95    1
    56    96    97    2
    57    95    94    1
    58   149   150   ar
    59    56    57    2
    60   152   153    1
    61    16    15    2
    62    59    60    1
    63    94    89   am
    64    85    84   ar
    65   154   153    1
    66   154   155    2
    67   153   156    1
    68    86    84   ar
    69    60    61    1
    70    23    24    1
    71    23    22    1
    72    24    25    2
    73    90    89    2
    74    84    83    1
    75   156   157    1
    76    89    88    1
    77    15    22   am
    78    15    14    1
    79   157   158    1
    80   157   159    1
    81    53    52    1
    82    18    17    1
    83    18    19    1
    84    83    82    1
    85    17    14    1
    86    81    80    2
    87     4     3    2
    88    13    14    1
    89    13    11   am
    90    82    79    1
    91    88    87    1
    92    88    91    1
    93    20    19    1
    94    20    21    1
    95    10    11    1
    96    10     9    1
    97    80    87   am
    98    80    79    1
    99    52    51    1
   100    62    63    1
   101    92    91    1
   102    11    12    2
   103     3     9   am
   104     3     2    1
   105    79    78    1
   106    91    93    1
   107    32    30    1
   108     5     2    1
   109     5     6    1
   110    51    50    1
   111    66    63    1
   112    66    67    1
   113     8     6    1
   114     2     1    1
   115    63    64    1
   116    31    30    1
   117    30    27    1
   118     7     6    1
   119    37    34    1
   120    65    64    2
   121    69    67    1
   122    68    67    1
   123    50    49    1
   124    77    75    1
   125    49    46    1
   126    27    26    1
   127    27    28    1
   128    34    33    1
   129    34    35    1
   130    29    28    2
   131    36    35    2
   132    35    38   am
   133    75    74    1
   134    75    76    1
   135    74    71    1
   136    46    45    1
   137    46    47    1
   138    45    40   am
   139    38    39    1
   140    73    72    2
   141    40    41    2
   142    40    39    1
   143    72    71    1
   144    47    48    2
   145    39    42    1
   146    71    70    1
   147    42    44    1
   148    42    43    1
