@<TRIPOS>MOLECULE
tmp/5w8uA02.pdb
 91 92 0 0 0
SMALL
GASTEIGER

@<TRIPOS>ATOM
      1  N        -45.7990  -33.8720  -18.4460 N.3   121  LEU121     -0.1231
      2  CA       -46.5080  -32.8980  -17.6240 C.3   121  LEU121      0.1693
      3  C        -46.8110  -31.6180  -18.3920 C.2   121  LEU121      0.2592
      4  O        -47.7710  -30.9140  -18.0600 O.2   121  LEU121     -0.2718
      5  CB       -45.6980  -32.5780  -16.3660 C.3   121  LEU121      0.0284
      6  CG       -45.5280  -33.7290  -15.3750 C.3   121  LEU121      0.0019
      7  CD1      -44.2990  -33.5100  -14.5170 C.3   121  LEU121      0.0001
      8  CD2      -46.7630  -33.8720  -14.5090 C.3   121  LEU121      0.0001
      9  N        -46.0070  -31.3000  -19.4050 N.am  122  LEU122     -0.1966
     10  CA       -46.2430  -30.1390  -20.2580 C.3   122  LEU122      0.1728
     11  C        -47.2990  -30.5370  -21.2800 C.2   122  LEU122      0.2616
     12  O        -46.9950  -31.0490  -22.3590 O.2   122  LEU122     -0.2715
     13  CB       -44.9510  -29.6900  -20.9280 C.3   122  LEU122      0.0311
     14  CG       -43.6790  -29.7380  -20.0790 C.3   122  LEU122      0.0022
     15  CD1      -42.4540  -29.4570  -20.9340 C.3   122  LEU122      0.0001
     16  CD2      -43.7640  -28.7510  -18.9330 C.3   122  LEU122      0.0001
     17  N        -48.5650  -30.3080  -20.9320 N.am  123  LYS123     -0.1963
     18  CA       -49.6850  -30.7440  -21.7540 C.3   123  LYS123      0.1728
     19  C        -50.1720  -29.6560  -22.7080 C.2   123  LYS123      0.2616
     20  O        -51.3220  -29.7040  -23.1610 O.2   123  LYS123     -0.2715
     21  CB       -50.8290  -31.2250  -20.8610 C.3   123  LYS123      0.0311
     22  CG       -50.9030  -32.7380  -20.7290 C.3   123  LYS123      0.0038
     23  CD       -51.1320  -33.1650  -19.2820 C.3   123  LYS123      0.0206
     24  CE       -51.0670  -34.6820  -19.1430 C.3   123  LYS123      0.1093
     25  NZ       -51.0020  -35.1190  -17.7180 N.3   123  LYS123     -0.1314
     26  N        -49.3190  -28.6830  -23.0320 N.am  124  ASP124     -0.1971
     27  CA       -49.7110  -27.5840  -23.9050 C.3   124  ASP124      0.1709
     28  C        -48.7210  -27.3840  -25.0450 C.2   124  ASP124      0.2293
     29  O        -48.7180  -26.3210  -25.6770 O.2   124  ASP124     -0.2864
     30  CB       -49.8450  -26.2930  -23.0950 C.3   124  ASP124      0.1436
     31  CG       -48.6960  -26.1040  -22.1290 C.2   124  ASP124      0.3671
     32  OD1      -47.7240  -26.8840  -22.2190 O.co2 124  ASP124     -0.2456
     33  OD2      -48.7660  -25.1950  -21.2770 O.co2 124  ASP124     -0.2456
     34  N        -47.6930  -20.2980  -18.8360 N.3   241  PRO241     -0.2102
     35  CA       -48.5120  -21.3590  -18.2340 C.3   241  PRO241      0.1504
     36  C        -47.7230  -22.2940  -17.3350 C.2   241  PRO241      0.2575
     37  O        -48.3320  -23.0110  -16.5310 O.2   241  PRO241     -0.2718
     38  CB       -49.0670  -22.1040  -19.4540 C.3   241  PRO241      0.0282
     39  CG       -47.9900  -21.9380  -20.4880 C.3   241  PRO241      0.0208
     40  CD       -47.3990  -20.5650  -20.2580 C.3   241  PRO241      0.0893
     41  N        -46.3990  -22.3120  -17.4540 N.am  242  TRP242     -0.1977
     42  CA       -45.5190  -23.0600  -16.5650 C.3   242  TRP242      0.1640
     43  C        -44.1060  -22.5310  -16.7640 C.2   242  TRP242      0.2290
     44  O        -43.8600  -21.6660  -17.6090 O.2   242  TRP242     -0.2864
     45  CB       -45.5940  -24.5690  -16.8180 C.3   242  TRP242      0.0576
     46  CG       -45.5330  -24.9520  -18.2640 C.ar  242  TRP242      0.0006
     47  CD1      -46.5930  -25.1670  -19.0960 C.ar  242  TRP242      0.0946
     48  CD2      -44.3530  -25.1720  -19.0510 C.ar  242  TRP242      0.0152
     49  NE1      -46.1480  -25.5040  -20.3530 N.ar  242  TRP242     -0.2442
     50  CE2      -44.7770  -25.5150  -20.3530 C.ar  242  TRP242      0.0810
     51  CE3      -42.9810  -25.1100  -18.7840 C.ar  242  TRP242      0.0012
     52  CZ2      -43.8790  -25.7940  -21.3840 C.ar  242  TRP242      0.0191
     53  CZ3      -42.0910  -25.3920  -19.8080 C.ar  242  TRP242      0.0001
     54  CH2      -42.5450  -25.7280  -21.0930 C.ar  242  TRP242      0.0015
     55  N        -44.0640  -28.1700   -8.9220 N.3   263  VAL263     -0.1245
     56  CA       -44.9290  -29.3350   -9.0340 C.3   263  VAL263      0.1561
     57  C        -44.1630  -30.6040   -9.3810 C.2   263  VAL263      0.2260
     58  O        -44.6800  -31.7030   -9.1270 O.2   263  VAL263     -0.2867
     59  CB       -46.0570  -29.0970  -10.0600 C.3   263  VAL263      0.0252
     60  CG1      -46.7380  -27.7710   -9.7930 C.3   263  VAL263      0.0019
     61  CG2      -45.5120  -29.1440  -11.4810 C.3   263  VAL263      0.0019
     62  N        -39.8250  -27.9010  -12.2960 N.3   310  LEU310     -0.1231
     63  CA       -41.0040  -27.4370  -13.0190 C.3   310  LEU310      0.1693
     64  C        -41.9090  -26.6640  -12.0670 C.2   310  LEU310      0.2592
     65  O        -42.4350  -27.2340  -11.1070 O.2   310  LEU310     -0.2718
     66  CB       -41.7610  -28.6100  -13.6410 C.3   310  LEU310      0.0284
     67  CG       -42.9440  -28.2640  -14.5530 C.3   310  LEU310      0.0019
     68  CD1      -42.5010  -27.4060  -15.7360 C.3   310  LEU310      0.0001
     69  CD2      -43.6360  -29.5280  -15.0410 C.3   310  LEU310      0.0001
     70  N        -42.0940  -25.3760  -12.3400 N.am  311  PHE311     -0.1963
     71  CA       -42.9560  -24.4840  -11.5820 C.3   311  PHE311      0.1756
     72  C        -44.2770  -24.2720  -12.3060 C.2   311  PHE311      0.2461
     73  O        -44.3790  -24.4980  -13.5140 O.2   311  PHE311     -0.2730
     74  CB       -42.2650  -23.1330  -11.3720 C.3   311  PHE311      0.0574
     75  CG       -41.0620  -23.2010  -10.4820 C.ar  311  PHE311     -0.0200
     76  CD1      -41.1940  -23.0690   -9.1080 C.ar  311  PHE311     -0.0042
     77  CD2      -39.7990  -23.3980  -11.0170 C.ar  311  PHE311     -0.0042
     78  CE1      -40.0880  -23.1320   -8.2810 C.ar  311  PHE311     -0.0003
     79  CE2      -38.6870  -23.4590  -10.1960 C.ar  311  PHE311     -0.0003
     80  CZ       -38.8330  -23.3260   -8.8240 C.ar  311  PHE311     -0.0000
     81  N        -45.3240  -23.8380  -11.5960 N.am  312  PRO312     -0.2716
     82  CA       -46.5990  -23.5640  -12.2730 C.3   312  PRO312      0.1536
     83  C        -46.5520  -22.2900  -13.1010 C.2   312  PRO312      0.2599
     84  O        -45.4780  -21.7350  -13.3540 O.2   312  PRO312     -0.2715
     85  CB       -47.5980  -23.4370  -11.1140 C.3   312  PRO312      0.0310
     86  CG       -46.8970  -24.0000   -9.9190 C.3   312  PRO312      0.0237
     87  CD       -45.4500  -23.7210  -10.1360 C.3   312  PRO312      0.0939
     88  N        -47.7230  -21.8180  -13.5220 N.am  313  GLY313     -0.1955
     89  CA       -47.7760  -20.6160  -14.3310 C.3   313  GLY313      0.1869
     90  C        -47.2270  -19.4090  -13.5940 C.2   313  GLY313      0.2309
     91  O        -47.3230  -19.2980  -12.3700 O.2   313  GLY313     -0.2863
@<TRIPOS>BOND
     1    29    28    2
     2    28    27    1
     3    27    30    1
     4    27    26    1
     5    20    19    2
     6    30    31    1
     7    26    19   am
     8    19    18    1
     9    12    11    2
    10    32    31   ar
    11    31    33   ar
    12    18    17    1
    13    18    21    1
    14    52    54   ar
    15    52    50   ar
    16    11    17   am
    17    11    10    1
    18    54    53   ar
    19    15    14    1
    20    13    10    1
    21    13    14    1
    22    21    22    1
    23    22    23    1
    24    39    40    1
    25    39    38    1
    26    49    50   ar
    27    49    47   ar
    28    50    48   ar
    29    10     9    1
    30    40    34    1
    31    14    16    1
    32    53    51   ar
    33    38    35    1
    34     9     3   am
    35    23    24    1
    36    24    25    1
    37    47    46   ar
    38    48    51   ar
    39    48    46   ar
    40    34    35    1
    41     1     2    1
    42     3     4    2
    43     3     2    1
    44    46    45    1
    45    35    36    1
    46     2     5    1
    47    44    43    2
    48    41    36   am
    49    41    42    1
    50    36    37    2
    51    45    42    1
    52    43    42    1
    53     5     6    1
    54    68    67    1
    55     6     7    1
    56     6     8    1
    57    69    67    1
    58    67    66    1
    59    89    90    1
    60    89    88    1
    61    66    63    1
    62    90    91    2
    63    88    83   am
    64    73    72    2
    65    84    83    2
    66    83    82    1
    67    63    62    1
    68    63    64    1
    69    70    64   am
    70    70    71    1
    71    72    81   am
    72    72    71    1
    73    82    81    1
    74    82    85    1
    75    64    65    2
    76    81    87    1
    77    71    74    1
    78    61    59    1
    79    74    75    1
    80    85    86    1
    81    77    75   ar
    82    77    79   ar
    83    75    76   ar
    84    79    80   ar
    85    87    86    1
    86    59    60    1
    87    59    56    1
    88    57    58    2
    89    57    56    1
    90    76    78   ar
    91    56    55    1
    92    80    78   ar
