@<TRIPOS>MOLECULE
tmp/5w8vC00.pdb
 175 169 0 0 0
SMALL
GASTEIGER

@<TRIPOS>ATOM
      1  N          3.9380   15.4090   94.3840 N.3    62  VAL62      -0.1231
      2  CA         5.1370   15.7890   95.1230 C.3    62  VAL62       0.1692
      3  C          6.3860   15.5860   94.2630 C.2    62  VAL62       0.2592
      4  O          6.9770   14.5060   94.2500 O.2    62  VAL62      -0.2718
      5  CB         5.2660   14.9900   96.4400 C.3    62  VAL62       0.0266
      6  CG1        6.4760   15.4550   97.2370 C.3    62  VAL62       0.0020
      7  CG2        3.9990   15.1330   97.2710 C.3    62  VAL62       0.0020
      8  N          6.7700   16.6330   93.5390 N.am   63  LEU63      -0.1966
      9  CA         7.9560   16.6090   92.6870 C.3    63  LEU63       0.1728
     10  C          9.2210   16.3470   93.5110 C.2    63  LEU63       0.2616
     11  O          9.2830   16.7240   94.6820 O.2    63  LEU63      -0.2715
     12  CB         8.0820   17.9420   91.9430 C.3    63  LEU63       0.0311
     13  CG         6.8790   18.3600   91.0980 C.3    63  LEU63       0.0022
     14  CD1        7.1590   19.6770   90.3870 C.3    63  LEU63       0.0001
     15  CD2        6.5170   17.2720   90.1010 C.3    63  LEU63       0.0001
     16  N         10.2230   15.7000   92.9160 N.am   64  LYS64      -0.1963
     17  CA        10.1640   15.2180   91.5370 C.3    64  LYS64       0.1728
     18  C          9.7720   13.7510   91.4770 C.2    64  LYS64       0.2616
     19  O          9.1890   13.2980   90.4930 O.2    64  LYS64      -0.2715
     20  CB        11.5230   15.3750   90.8500 C.3    64  LYS64       0.0311
     21  CG        12.1020   16.7780   90.8440 C.3    64  LYS64       0.0038
     22  CD        13.4520   16.7580   90.1530 C.3    64  LYS64       0.0206
     23  CE        14.1280   18.1100   90.1870 C.3    64  LYS64       0.1093
     24  NZ        15.5040   18.0250   89.6220 N.3    64  LYS64      -0.1314
     25  N         10.1040   13.0170   92.5350 N.am   65  GLY65      -0.1955
     26  CA         9.9700   11.5700   92.5590 C.3    65  GLY65       0.1869
     27  C          8.5870   11.0180   92.2760 C.2    65  GLY65       0.2309
     28  O          8.4480    9.8630   91.8740 O.2    65  GLY65      -0.2863
     29  N          8.9880   20.0920   98.1050 N.3    97  LEU97      -0.1245
     30  CA         9.0370   20.2290   99.5550 C.3    97  LEU97       0.1561
     31  C         10.4300   20.6340  100.0300 C.2    97  LEU97       0.2260
     32  O         11.4330   20.1280   99.5320 O.2    97  LEU97      -0.2867
     33  CB         8.5970   18.9220  100.2260 C.3    97  LEU97       0.0270
     34  CG         7.1020   18.6430  100.4450 C.3    97  LEU97       0.0019
     35  CD1        6.2490   18.9550   99.2250 C.3    97  LEU97       0.0001
     36  CD2        6.9050   17.1940  100.8450 C.3    97  LEU97       0.0001
     37  N          2.7220   10.4970   96.3500 N.3   121  GLU121     -0.1231
     38  CA         4.1410   10.3960   96.6640 C.3   121  GLU121      0.1699
     39  C          4.8090    9.2070   95.9940 C.2   121  GLU121      0.2592
     40  O          4.1480    8.2690   95.5400 O.2   121  GLU121     -0.2718
     41  CB         4.3500   10.3060   98.1790 C.3   121  GLU121      0.0402
     42  CG         4.5760   11.6470   98.8670 C.3   121  GLU121      0.1161
     43  CD         6.0120   12.1370   98.7580 C.2   121  GLU121      0.3649
     44  OE1        6.7500   11.6760   97.8540 O.co2 121  GLU121     -0.2457
     45  OE2        6.4050   12.9820   99.5910 O.co2 121  GLU121     -0.2457
     46  N          6.1350    9.2550   95.9470 N.am  122  ASP122     -0.1960
     47  CA         6.9230    8.1540   95.4230 C.3   122  ASP122      0.1840
     48  C          7.1650    7.1030   96.5000 C.2   122  ASP122      0.2622
     49  O          7.0080    5.9050   96.2590 O.2   122  ASP122     -0.2715
     50  CB         8.2530    8.6690   94.8650 C.3   122  ASP122      0.1450
     51  CG         8.9400    9.6600   95.7980 C.2   122  ASP122      0.3671
     52  OD1        8.2930   10.1390   96.7580 O.co2 122  ASP122     -0.2456
     53  OD2       10.1270    9.9720   95.5570 O.co2 122  ASP122     -0.2456
     54  N          7.5310    7.5550   97.6950 N.am  123  ILE123     -0.1963
     55  CA         7.9100    6.6330   98.7590 C.3   123  ILE123      0.1727
     56  C          7.6170    7.1910  100.1580 C.2   123  ILE123      0.2616
     57  O          7.6500    8.4040  100.3760 O.2   123  ILE123     -0.2715
     58  CB         9.4100    6.2400   98.6330 C.3   123  ILE123      0.0290
     59  CG1        9.7510    5.0440   99.5230 C.3   123  ILE123      0.0022
     60  CG2       10.3150    7.4290   98.9350 C.3   123  ILE123      0.0023
     61  CD1       11.2020    4.6230   99.4300 C.3   123  ILE123      0.0001
     62  N          7.2980    6.2970  101.0900 N.am  124  ILE124     -0.1963
     63  CA         7.2090    6.6450  102.5020 C.3   124  ILE124      0.1727
     64  C          8.3120    5.9070  103.2460 C.2   124  ILE124      0.2616
     65  O          8.2950    4.6810  103.3210 O.2   124  ILE124     -0.2715
     66  CB         5.8580    6.2290  103.1200 C.3   124  ILE124      0.0290
     67  CG1        4.6910    6.7720  102.2950 C.3   124  ILE124      0.0022
     68  CG2        5.7660    6.6930  104.5700 C.3   124  ILE124      0.0023
     69  CD1        4.6970    8.2700  102.1480 C.3   124  ILE124      0.0001
     70  N          9.2720    6.6500  103.7870 N.am  125  ASP125     -0.1957
     71  CA        10.3770    6.0450  104.5190 C.3   125  ASP125      0.1840
     72  C         10.1040    6.0940  106.0190 C.2   125  ASP125      0.2623
     73  O          9.5120    5.1710  106.5790 O.2   125  ASP125     -0.2715
     74  CB        11.6920    6.7520  104.1860 C.3   125  ASP125      0.1450
     75  CG        12.9110    5.9760  104.6550 C.2   125  ASP125      0.3671
     76  OD1       12.7400    4.9330  105.3180 O.co2 125  ASP125     -0.2456
     77  OD2       14.0440    6.4160  104.3660 O.co2 125  ASP125     -0.2456
     78  N         10.5350    7.1690  106.6700 N.am  126  THR126     -0.1937
     79  CA        10.2340    7.3560  108.0850 C.3   126  THR126      0.2028
     80  C          8.7830    7.7890  108.2660 C.2   126  THR126      0.2643
     81  O          8.1540    7.4690  109.2740 O.2   126  THR126     -0.2714
     82  CB        11.1710    8.3870  108.7550 C.3   126  THR126      0.1808
     83  OG1       11.0230    9.6640  108.1210 O.3   126  THR126     -0.2208
     84  CG2       12.6170    7.9400  108.6510 C.3   126  THR126      0.0379
     85  N          8.2570    8.5130  107.2830 N.am  127  GLY127     -0.1939
     86  CA         6.8810    8.9710  107.3280 C.3   127  GLY127      0.2014
     87  C          6.7550   10.3430  107.9610 C.2   127  GLY127      0.2639
     88  O          5.6590   10.8990  108.0400 O.2   127  GLY127     -0.2714
     89  N          7.8810   10.8880  108.4100 N.am  128  LYS128     -0.1963
     90  CA         7.9010   12.1900  109.0670 C.3   128  LYS128      0.1728
     91  C          7.4830   13.3150  108.1230 C.2   128  LYS128      0.2617
     92  O          6.8100   14.2620  108.5300 O.2   128  LYS128     -0.2715
     93  CB         9.2890   12.4780  109.6410 C.3   128  LYS128      0.0311
     94  CG         9.4160   13.7830  110.3810 C.3   128  LYS128      0.0038
     95  CD         8.5250   13.8740  111.5800 C.3   128  LYS128      0.0206
     96  CE         8.9680   14.9590  112.5230 C.3   128  LYS128      0.1093
     97  NZ         7.8370   15.8430  112.7470 N.3   128  LYS128     -0.1314
     98  N          7.8860   13.2060  106.8610 N.am  129  THR129     -0.1937
     99  CA         7.5550   14.2190  105.8660 C.3   129  THR129      0.2028
    100  C          6.0480   14.3170  105.6440 C.2   129  THR129      0.2642
    101  O          5.4880   15.4150  105.6080 O.2   129  THR129     -0.2714
    102  CB         8.2490   13.9410  104.5230 C.3   129  THR129      0.1808
    103  OG1        9.6700   13.9260  104.7130 O.3   129  THR129     -0.2208
    104  CG2        7.8910   15.0110  103.5070 C.3   129  THR129      0.0379
    105  N          5.3920   13.1700  105.5030 N.am  130  MET130     -0.1976
    106  CA         3.9550   13.1620  105.2530 C.3   130  MET130      0.1605
    107  C          3.1420   13.5970  106.4660 C.2   130  MET130      0.2287
    108  O          2.1320   14.2870  106.3220 O.2   130  MET130     -0.2864
    109  CB         3.4810   11.7990  104.7450 C.3   130  MET130      0.0413
    110  CG         3.8560   11.5120  103.2960 C.3   130  MET130      0.0598
    111  SD         3.3870   12.8210  102.1400 S.3   130  MET130     -0.1393
    112  CE         1.6800   13.0760  102.5900 C.3   130  MET130      0.0692
    113  N          8.3650    1.5830  102.8790 N.3   153  LYS153     -0.1245
    114  CA         9.4680    0.7740  103.3840 C.3   153  LYS153      0.1561
    115  C          9.1370    0.1320  104.7240 C.2   153  LYS153      0.2260
    116  O          8.4650    0.7350  105.5600 O.2   153  LYS153     -0.2867
    117  CB        10.7340    1.6200  103.5300 C.3   153  LYS153      0.0271
    118  CG        11.1730    2.3220  102.2620 C.3   153  LYS153      0.0035
    119  CD        12.3930    3.1920  102.5190 C.3   153  LYS153      0.0206
    120  CE        13.6780    2.3930  102.4370 C.3   153  LYS153      0.1093
    121  NZ        13.9840    2.0120  101.0320 N.3   153  LYS153     -0.1314
    122  N         15.7150   -1.0260  101.8310 N.3   173  LYS173     -0.1231
    123  CA        16.8160   -0.9580  100.8820 C.3   173  LYS173      0.1693
    124  C         16.6430    0.2370   99.9600 C.2   173  LYS173      0.2592
    125  O         15.5230    0.6850   99.7130 O.2   173  LYS173     -0.2718
    126  CB        16.8900   -2.2430  100.0570 C.3   173  LYS173      0.0285
    127  CG        15.6410   -2.5250   99.2280 C.3   173  LYS173      0.0035
    128  CD        15.7980   -3.7870   98.3850 C.3   173  LYS173      0.0206
    129  CE        16.0490   -5.0090   99.2580 C.3   173  LYS173      0.1093
    130  NZ        16.2880   -6.2470   98.4630 N.3   173  LYS173     -0.1314
    131  N         17.7560    0.7490   99.4490 N.am  174  PHE174     -0.1962
    132  CA        17.7170    1.8940   98.5530 C.3   174  PHE174      0.1771
    133  C         17.3650    1.4670   97.1290 C.2   174  PHE174      0.2619
    134  O         18.0260    0.6100   96.5440 O.2   174  PHE174     -0.2715
    135  CB        19.0520    2.6370   98.5750 C.3   174  PHE174      0.0574
    136  CG        19.0060    3.9760   97.8990 C.ar  174  PHE174     -0.0200
    137  CD1       19.4060    4.1170   96.5810 C.ar  174  PHE174     -0.0042
    138  CD2       18.5580    5.0930   98.5830 C.ar  174  PHE174     -0.0042
    139  CE1       19.3630    5.3500   95.9580 C.ar  174  PHE174     -0.0003
    140  CE2       18.5130    6.3280   97.9670 C.ar  174  PHE174     -0.0003
    141  CZ        18.9160    6.4550   96.6510 C.ar  174  PHE174     -0.0000
    142  N         16.3190    2.0650   96.5760 N.am  175  VAL175     -0.1977
    143  CA        15.8830    1.7260   95.2280 C.3   175  VAL175      0.1596
    144  C         15.8320    2.9620   94.3370 C.2   175  VAL175      0.2287
    145  O         15.6200    4.0770   94.8160 O.2   175  VAL175     -0.2864
    146  CB        14.5070    1.0250   95.2320 C.3   175  VAL175      0.0276
    147  CG1       14.6070   -0.3510   95.8950 C.3   175  VAL175      0.0022
    148  CG2       13.4670    1.8890   95.9320 C.3   175  VAL175      0.0022
    149  N         12.2720    7.7850   90.7860 N.3   180  LEU180     -0.1231
    150  CA        13.0960    7.7880   91.9940 C.3   180  LEU180      0.1693
    151  C         14.5700    7.8690   91.6040 C.2   180  LEU180      0.2592
    152  O         15.0030    7.2070   90.6590 O.2   180  LEU180     -0.2718
    153  CB        12.8250    6.5530   92.8580 C.3   180  LEU180      0.0284
    154  CG        11.4910    6.5180   93.6110 C.3   180  LEU180      0.0019
    155  CD1       10.3670    5.9710   92.7390 C.3   180  LEU180      0.0001
    156  CD2       11.6130    5.7240   94.9020 C.3   180  LEU180      0.0001
    157  N         15.3420    8.6730   92.3290 N.am  181  ASP181     -0.1974
    158  CA        16.6870    9.0150   91.8720 C.3   181  ASP181      0.1709
    159  C         17.8360    8.6150   92.7900 C.2   181  ASP181      0.2293
    160  O         17.6430    8.2370   93.9450 O.2   181  ASP181     -0.2864
    161  CB        16.7940   10.5200   91.6220 C.3   181  ASP181      0.1436
    162  CG        17.0460   11.3030   92.8980 C.2   181  ASP181      0.3671
    163  OD1       16.2740   11.1380   93.8650 O.co2 181  ASP181     -0.2456
    164  OD2       18.0300   12.0720   92.9400 O.co2 181  ASP181     -0.2456
    165  N         16.1670    8.7070   87.1240 N.3   187  ARG187     -0.1245
    166  CA        14.7760    9.1190   86.9720 C.3   187  ARG187      0.1563
    167  C         14.3000    8.7360   85.5770 C.2   187  ARG187      0.2260
    168  O         13.1140    8.4890   85.3600 O.2   187  ARG187     -0.2867
    169  CB        14.5980   10.6210   87.1980 C.3   187  ARG187      0.0307
    170  CG        14.9450   11.1010   88.5960 C.3   187  ARG187      0.0489
    171  CD        14.3540   12.4810   88.8400 C.3   187  ARG187      0.2205
    172  NE        15.0270   13.2000   89.9160 N.pl3 187  ARG187     -0.0865
    173  CZ        14.6730   13.1350   91.1950 C.cat 187  ARG187      0.5346
    174  NH1       13.6530   12.3720   91.5610 N.pl3 187  ARG187      0.1354
    175  NH2       15.3420   13.8280   92.1080 N.pl3 187  ARG187      0.1354
@<TRIPOS>BOND
     1   168   167    2
     2   167   166    1
     3   166   165    1
     4   166   169    1
     5   169   170    1
     6   170   171    1
     7   171   172    1
     8    24    23    1
     9   172   173    2
    10    15    13    1
    11    22    23    1
    12    22    21    1
    13    14    13    1
    14    19    18    2
    15   152   151    2
    16   149   150    1
    17    21    20    1
    18    20    17    1
    19    13    12    1
    20   173   174    1
    21   173   175    1
    22    18    17    1
    23    18    25   am
    24    17    16    1
    25   151   150    1
    26   151   157   am
    27   161   158    1
    28   161   162    1
    29   158   157    1
    30   158   159    1
    31    28    27    2
    32    12     9    1
    33   150   153    1
    34    27    26    1
    35    25    26    1
    36     9    10    1
    37     9     8    1
    38   155   154    1
    39   159   160    2
    40   153   154    1
    41   162   164   ar
    42   162   163   ar
    43    16    10   am
    44    10    11    2
    45     8     3   am
    46   154   156    1
    47     4     3    2
    48     3     2    1
    49   144   145    2
    50   144   143    1
    51     1     2    1
    52    50    47    1
    53    50    51    1
    54     2     5    1
    55   143   146    1
    56   143   142    1
    57   146   147    1
    58   146   148    1
    59    47    46    1
    60    47    48    1
    61    40    39    2
    62    53    51   ar
    63    51    52   ar
    64    46    39   am
    65   139   137   ar
    66   139   141   ar
    67    39    38    1
    68    49    48    2
    69    37    38    1
    70     5     6    1
    71     5     7    1
    72    48    54   am
    73   134   133    2
    74   142   133   am
    75   137   136   ar
    76   141   140   ar
    77    38    41    1
    78   133   132    1
    79    54    55    1
    80    44    43   ar
    81   136   135    1
    82   136   138   ar
    83   140   138   ar
    84    29    30    1
    85    41    42    1
    86   128   127    1
    87   128   129    1
    88   130   129    1
    89   132   135    1
    90   132   131    1
    91    58    55    1
    92    58    60    1
    93    58    59    1
    94    43    42    1
    95    43    45   ar
    96    55    56    1
    97    35    34    1
    98   127   126    1
    99    61    59    1
   100   131   124   am
   101    32    31    2
   102    30    31    1
   103    30    33    1
   104   125   124    2
   105   124   123    1
   106   126   123    1
   107    56    57    2
   108    56    62   am
   109    33    34    1
   110    34    36    1
   111   123   122    1
   112   121   120    1
   113    62    63    1
   114   111   112    1
   115   111   110    1
   116    69    67    1
   117   118   119    1
   118   118   117    1
   119    67    66    1
   120   120   119    1
   121    63    66    1
   122    63    64    1
   123   113   114    1
   124    66    68    1
   125    64    65    2
   126    64    70   am
   127   110   109    1
   128   114   117    1
   129   114   115    1
   130   104   102    1
   131    70    71    1
   132    74    71    1
   133    74    75    1
   134    77    75   ar
   135    71    72    1
   136   102   103    1
   137   102    99    1
   138    75    76   ar
   139   115   116    2
   140   109   106    1
   141   106   105    1
   142   106   107    1
   143   105   100   am
   144   101   100    2
   145   100    99    1
   146    99    98    1
   147    72    73    2
   148    72    78   am
   149   108   107    2
   150    78    79    1
   151    98    91   am
   152    85    86    1
   153    85    80   am
   154    86    87    1
   155    87    88    2
   156    87    89   am
   157    79    80    1
   158    79    82    1
   159    83    82    1
   160    91    92    2
   161    91    90    1
   162    80    81    2
   163    89    90    1
   164    84    82    1
   165    90    93    1
   166    93    94    1
   167    94    95    1
   168    95    96    1
   169    96    97    1
