@<TRIPOS>MOLECULE
tmp/5w8xA00.pdb
 129 123 0 0 0
SMALL
GASTEIGER

@<TRIPOS>ATOM
      1  N          4.7740   30.7950   -6.4830 N.3   153  MET153     -0.1245
      2  CA         3.7090   31.0320   -5.5150 C.3   153  MET153      0.1570
      3  C          3.9100   30.1920   -4.2590 C.2   153  MET153      0.2261
      4  O          3.5880   30.6400   -3.1530 O.2   153  MET153     -0.2867
      5  CB         2.3490   30.7320   -6.1500 C.3   153  MET153      0.0387
      6  CG         1.1590   31.3840   -5.4480 C.3   153  MET153      0.0595
      7  SD        -0.4360   30.9880   -6.2180 S.3   153  MET153     -0.1393
      8  CE        -0.2100   31.6790   -7.8570 C.3   153  MET153      0.0692
      9  N        -15.5800   31.4890   -5.8920 N.3   182  LEU182     -0.1231
     10  CA       -14.7480   32.0610   -6.9460 C.3   182  LEU182      0.1678
     11  C        -15.3740   31.7230   -8.2950 C.2   182  LEU182      0.2434
     12  O        -15.0390   30.6950   -8.9010 O.2   182  LEU182     -0.2733
     13  CB       -13.3110   31.5390   -6.8580 C.3   182  LEU182      0.0284
     14  CG       -12.4440   32.2910   -5.8430 C.3   182  LEU182      0.0019
     15  CD1      -12.8630   31.9680   -4.4160 C.3   182  LEU182      0.0001
     16  CD2      -10.9600   32.0170   -6.0370 C.3   182  LEU182      0.0001
     17  N        -16.2880   32.5540   -8.8110 N.am  183  PRO183     -0.2718
     18  CA       -17.0060   32.1930  -10.0450 C.3   183  PRO183      0.1535
     19  C        -16.1560   32.2540  -11.3030 C.2   183  PRO183      0.2599
     20  O        -16.6420   31.8520  -12.3700 O.2   183  PRO183     -0.2715
     21  CB       -18.1430   33.2210  -10.0990 C.3   183  PRO183      0.0310
     22  CG       -17.6020   34.4070   -9.3860 C.3   183  PRO183      0.0237
     23  CD       -16.7070   33.8690   -8.2940 C.3   183  PRO183      0.0939
     24  N        -14.9230   32.7450  -11.2240 N.am  184  GLY184     -0.1941
     25  CA       -14.0290   32.7320  -12.3650 C.3   184  GLY184      0.2014
     26  C        -13.4770   34.0950  -12.7180 C.2   184  GLY184      0.2640
     27  O        -14.0840   35.1260  -12.4090 O.2   184  GLY184     -0.2714
     28  N        -12.3180   34.1090  -13.3710 N.am  185  SER185     -0.1935
     29  CA       -11.7040   35.3480  -13.8240 C.3   185  SER185      0.2055
     30  C        -12.0890   35.7130  -15.2500 C.2   185  SER185      0.2642
     31  O        -11.7830   36.8260  -15.6870 O.2   185  SER185     -0.2714
     32  CB       -10.1770   35.2510  -13.7200 C.3   185  SER185      0.2130
     33  OG        -9.6840   34.1470  -14.4570 O.3   185  SER185     -0.2179
     34  N        -12.7470   34.8130  -15.9780 N.am  186  ARG186     -0.1977
     35  CA       -13.1760   35.0540  -17.3490 C.3   186  ARG186      0.1597
     36  C        -14.6890   35.2260  -17.4010 C.2   186  ARG186      0.2287
     37  O        -15.4270   34.6090  -16.6280 O.2   186  ARG186     -0.2864
     38  CB       -12.7620   33.9000  -18.2670 C.3   186  ARG186      0.0334
     39  CG       -11.2680   33.6360  -18.2890 C.3   186  ARG186      0.0492
     40  CD       -10.9520   32.2820  -18.9080 C.3   186  ARG186      0.2205
     41  NE        -9.5140   32.0310  -18.9550 N.pl3 186  ARG186     -0.0865
     42  CZ        -8.7860   31.6180  -17.9200 C.cat 186  ARG186      0.5346
     43  NH1       -9.3510   31.4080  -16.7380 N.pl3 186  ARG186      0.1354
     44  NH2       -7.4830   31.4200  -18.0670 N.pl3 186  ARG186      0.1354
     45  N        -14.5410   36.8100   -4.0660 N.3   216  PRO216     -0.2102
     46  CA       -13.4890   37.6640   -4.6390 C.3   216  PRO216      0.1504
     47  C        -13.6670   37.7970   -6.1450 C.2   216  PRO216      0.2576
     48  O        -13.6630   36.8030   -6.8750 O.2   216  PRO216     -0.2718
     49  CB       -12.1960   36.9230   -4.2830 C.3   216  PRO216      0.0282
     50  CG       -12.6030   35.5070   -4.1420 C.3   216  PRO216      0.0208
     51  CD       -14.0270   35.4850   -3.6790 C.3   216  PRO216      0.0893
     52  N        -13.8220   39.0340   -6.6050 N.am  217  LEU217     -0.1966
     53  CA       -14.0680   39.3390   -8.0080 C.3   217  LEU217      0.1728
     54  C        -12.8530   40.0600   -8.5730 C.2   217  LEU217      0.2616
     55  O        -12.4260   41.0850   -8.0330 O.2   217  LEU217     -0.2715
     56  CB       -15.3320   40.1860   -8.1510 C.3   217  LEU217      0.0311
     57  CG       -16.5890   39.4590   -7.6470 C.3   217  LEU217      0.0022
     58  CD1      -17.6440   40.4310   -7.1400 C.3   217  LEU217      0.0001
     59  CD2      -17.1620   38.5720   -8.7450 C.3   217  LEU217      0.0001
     60  N        -12.3020   39.5240   -9.6640 N.am  218  VAL218     -0.1977
     61  CA       -10.9860   39.9610  -10.1210 C.3   218  VAL218      0.1596
     62  C        -11.0040   41.4050  -10.6130 C.2   218  VAL218      0.2287
     63  O        -10.0140   42.1290  -10.4480 O.2   218  VAL218     -0.2864
     64  CB       -10.4560   39.0040  -11.2050 C.3   218  VAL218      0.0276
     65  CG1      -10.3080   37.6010  -10.6390 C.3   218  VAL218      0.0022
     66  CG2      -11.3700   38.9980  -12.4230 C.3   218  VAL218      0.0022
     67  N        -10.9100   41.7570   -5.7760 N.3   244  GLY244     -0.1225
     68  CA        -9.7220   40.9390   -5.6260 C.3   244  GLY244      0.1811
     69  C         -9.7170   40.2530   -4.2730 C.2   244  GLY244      0.2280
     70  O        -10.7560   39.8310   -3.7550 O.2   244  GLY244     -0.2866
     71  N         -8.6330   37.3870   -3.4590 N.3   246  GLY246     -0.1210
     72  CA        -8.9620   35.9720   -3.4820 C.3   246  GLY246      0.1956
     73  C         -8.1120   35.1630   -2.5220 C.2   246  GLY246      0.2611
     74  O         -8.5950   34.2170   -1.8950 O.2   246  GLY246     -0.2717
     75  N         -6.8350   35.5220   -2.3930 N.am  247  ARG247     -0.1979
     76  CA        -5.9560   34.8220   -1.4610 C.3   247  ARG247      0.1597
     77  C         -6.4610   34.9550   -0.0280 C.2   247  ARG247      0.2287
     78  O         -6.6030   33.9560    0.6870 O.2   247  ARG247     -0.2864
     79  CB        -4.5330   35.3610   -1.5870 C.3   247  ARG247      0.0334
     80  CG        -3.5080   34.5900   -0.7760 C.3   247  ARG247      0.0492
     81  CD        -2.0870   34.9420   -1.1900 C.3   247  ARG247      0.2205
     82  NE        -1.8320   34.6360   -2.5980 N.pl3 247  ARG247     -0.0865
     83  CZ        -0.6750   34.8530   -3.2170 C.cat 247  ARG247      0.5346
     84  NH1        0.3490   35.3780   -2.5570 N.pl3 247  ARG247      0.1354
     85  NH2       -0.5410   34.5430   -4.5000 N.pl3 247  ARG247      0.1354
     86  N         -9.5660   32.8580    0.5930 N.3   250  MET250     -0.1245
     87  CA        -9.3690   31.4180    0.6910 C.3   250  MET250      0.1570
     88  C         -8.6800   31.0390    1.9970 C.2   250  MET250      0.2261
     89  O         -9.0750   30.0660    2.6460 O.2   250  MET250     -0.2867
     90  CB        -8.5820   30.9190   -0.5230 C.3   250  MET250      0.0387
     91  CG        -9.3920   31.0120   -1.8140 C.3   250  MET250      0.0595
     92  SD        -8.5260   30.4230   -3.2760 S.3   250  MET250     -0.1393
     93  CE        -7.4530   31.8030   -3.6290 C.3   250  MET250      0.0692
     94  N        -14.2930   27.8890   -9.7690 N.3   259  ALA259     -0.1231
     95  CA       -14.4280   27.5610  -11.1840 C.3   259  ALA259      0.1694
     96  C        -13.3500   26.5730  -11.6140 C.2   259  ALA259      0.2593
     97  O        -13.6520   25.5090  -12.1620 O.2   259  ALA259     -0.2718
     98  CB       -14.3570   28.8360  -12.0260 C.3   259  ALA259      0.0304
     99  N        -12.0820   26.9240  -11.3750 N.am  260  SER260     -0.1938
    100  CA       -10.9150   26.0740  -11.6260 C.3   260  SER260      0.2055
    101  C         -9.7440   26.9230  -12.1000 C.2   260  SER260      0.2644
    102  O         -9.8380   28.1540  -12.1580 O.2   260  SER260     -0.2714
    103  CB       -11.1930   24.9780  -12.6620 C.3   260  SER260      0.2130
    104  OG        -9.9990   24.3130  -13.0360 O.3   260  SER260     -0.2179
    105  N         -8.6370   26.2720  -12.4410 N.am  261  GLY261     -0.1939
    106  CA        -7.4870   26.9760  -12.9620 C.3   261  GLY261      0.2014
    107  C         -6.5250   27.4080  -11.8780 C.2   261  GLY261      0.2640
    108  O         -6.2930   26.6730  -10.9130 O.2   261  GLY261     -0.2714
    109  N         -5.9580   28.6070  -12.0280 N.am  262  THR262     -0.1936
    110  CA        -4.9630   29.0810  -11.0740 C.3   262  THR262      0.2028
    111  C         -5.5310   29.1630   -9.6650 C.2   262  THR262      0.2642
    112  O         -4.7890   29.0010   -8.6880 O.2   262  THR262     -0.2714
    113  CB        -4.4310   30.4470  -11.5130 C.3   262  THR262      0.1808
    114  OG1       -3.7330   30.3100  -12.7560 O.3   262  THR262     -0.2208
    115  CG2       -3.4870   31.0370  -10.4610 C.3   262  THR262      0.0379
    116  N         -6.8340   29.4220   -9.5360 N.am  263  ALA263     -0.1977
    117  CA        -7.4290   29.5310   -8.2110 C.3   263  ALA263      0.1597
    118  C         -7.2350   28.2470   -7.4140 C.2   263  ALA263      0.2287
    119  O         -6.9500   28.2940   -6.2130 O.2   263  ALA263     -0.2864
    120  CB        -8.9140   29.8710   -8.3300 C.3   263  ALA263      0.0319
    121  N         -3.7630   28.1530   -5.8790 N.3   266  GLU266     -0.1245
    122  CA        -3.6930   29.1350   -4.8060 C.3   266  GLU266      0.1567
    123  C         -4.5260   28.6920   -3.6110 C.2   266  GLU266      0.2260
    124  O         -4.1230   28.8810   -2.4560 O.2   266  GLU266     -0.2867
    125  CB        -4.1620   30.4950   -5.3270 C.3   266  GLU266      0.0388
    126  CG        -3.9630   31.6400   -4.3550 C.3   266  GLU266      0.1160
    127  CD        -4.1670   32.9950   -5.0050 C.2   266  GLU266      0.3649
    128  OE1       -3.5590   33.9770   -4.5240 O.co2 266  GLU266     -0.2457
    129  OE2       -4.9210   33.0750   -6.0010 O.co2 266  GLU266     -0.2457
@<TRIPOS>BOND
     1    41    40    1
     2    41    42    2
     3    40    39    1
     4    39    38    1
     5    38    35    1
     6    44    42    1
     7    42    43    1
     8    36    35    1
     9    36    37    2
    10    35    34    1
    11    34    30   am
    12    31    30    2
    13    30    29    1
    14    33    32    1
    15    29    32    1
    16    29    28    1
    17    28    26   am
    18   104   103    1
    19   106   105    1
    20   106   107    1
    21   114   113    1
    22    26    27    2
    23    26    25    1
    24   103   100    1
    25   105   101   am
    26    66    64    1
    27    20    19    2
    28    25    24    1
    29    97    96    2
    30   102   101    2
    31   101   100    1
    32   109   107   am
    33   109   110    1
    34    98    95    1
    35   107   108    2
    36   100    99    1
    37    96    99   am
    38    96    95    1
    39   113   110    1
    40   113   115    1
    41    19    24   am
    42    19    18    1
    43    64    65    1
    44    64    61    1
    45    95    94    1
    46   110   111    1
    47    62    63    2
    48    62    61    1
    49    61    60    1
    50    21    18    1
    51    21    22    1
    52    18    17    1
    53   111   116   am
    54   111   112    2
    55    60    54   am
    56   116   117    1
    57    22    23    1
    58    12    11    2
    59    17    11   am
    60    17    23    1
    61    59    57    1
    62    54    55    2
    63    54    53    1
    64   120   117    1
    65    11    10    1
    66   117   118    1
    67    56    53    1
    68    56    57    1
    69    53    52    1
    70     8     7    1
    71    57    58    1
    72   118   119    2
    73    10    13    1
    74    10     9    1
    75    48    47    2
    76    13    14    1
    77    52    47   am
    78     1     2    1
    79     7     6    1
    80     5     2    1
    81     5     6    1
    82    47    46    1
    83    16    14    1
    84   129   127   ar
    85   121   122    1
    86    14    15    1
    87    67    68    1
    88    68    69    1
    89     2     3    1
    90   125   122    1
    91   125   126    1
    92   127   128   ar
    93   127   126    1
    94   122   123    1
    95    46    49    1
    96    46    45    1
    97    85    83    1
    98    49    50    1
    99    69    70    2
   100     3     4    2
   101    50    51    1
   102    45    51    1
   103    93    92    1
   104   123   124    2
   105    72    71    1
   106    72    73    1
   107    92    91    1
   108    83    82    2
   109    83    84    1
   110    82    81    1
   111    73    75   am
   112    73    74    2
   113    75    76    1
   114    91    90    1
   115    79    76    1
   116    79    80    1
   117    76    77    1
   118    81    80    1
   119    90    87    1
   120    77    78    2
   121    86    87    1
   122    87    88    1
   123    88    89    2
