@<TRIPOS>MOLECULE
tmp/5w91A00.pdb
 163 152 0 0 0
SMALL
GASTEIGER

@<TRIPOS>ATOM
      1  N         46.2680  -15.6070   99.8000 N.3    15  LEU15      -0.1231
      2  CA        46.2670  -16.0610   98.4110 C.3    15  LEU15       0.1693
      3  C         46.1080  -14.8950   97.4320 C.2    15  LEU15       0.2593
      4  O         46.6300  -14.9730   96.3220 O.2    15  LEU15      -0.2718
      5  CB        45.1510  -17.0860   98.1820 C.3    15  LEU15       0.0284
      6  CG        45.3230  -18.4160   98.9090 C.3    15  LEU15       0.0019
      7  CD1       44.0230  -19.2040   98.9180 C.3    15  LEU15       0.0001
      8  CD2       46.4640  -19.2410   98.2910 C.3    15  LEU15       0.0001
      9  N         45.4010  -13.8410   97.8310 N.am   16  GLY16      -0.1942
     10  CA        45.1850  -12.6810   96.9790 C.3    16  GLY16       0.2014
     11  C         43.9140  -11.9230   97.2880 C.2    16  GLY16       0.2639
     12  O         43.2440  -12.1960   98.2850 O.2    16  GLY16      -0.2714
     13  N         43.5880  -10.9560   96.4220 N.am   17  LYS17      -0.1963
     14  CA        42.4040  -10.1140   96.5420 C.3    17  LYS17       0.1728
     15  C         41.3970  -10.5230   95.4800 C.2    17  LYS17       0.2616
     16  O         41.7410  -10.5960   94.2960 O.2    17  LYS17      -0.2715
     17  CB        42.7830   -8.6300   96.3550 C.3    17  LYS17       0.0311
     18  CG        41.6350   -7.6210   96.5020 C.3    17  LYS17       0.0038
     19  CD        40.9390   -7.6470   97.8750 C.3    17  LYS17       0.0206
     20  CE        39.8560   -6.6000   98.0310 C.3    17  LYS17       0.1093
     21  NZ        38.7180   -6.7940   97.0920 N.3    17  LYS17      -0.1314
     22  N         40.1680  -10.7700   95.9170 N.am   18  GLY18      -0.1955
     23  CA        39.0530  -11.1260   95.0560 C.3    18  GLY18       0.1869
     24  C         37.9310  -10.1320   95.2320 C.2    18  GLY18       0.2309
     25  O         38.0640   -9.1780   95.9990 O.2    18  GLY18      -0.2863
     26  N         41.1790  -13.2030  100.0260 N.3    23  VAL23      -0.1245
     27  CA        41.1130  -14.6520  100.0200 C.3    23  VAL23       0.1561
     28  C         42.3490  -15.1990  100.7600 C.2    23  VAL23       0.2260
     29  O         43.4790  -14.9040  100.3760 O.2    23  VAL23      -0.2867
     30  CB        41.0100  -15.1610   98.5700 C.3    23  VAL23       0.0252
     31  CG1       40.9520  -16.6880   98.5180 C.3    23  VAL23       0.0019
     32  CG2       39.8020  -14.5460   97.8690 C.3    23  VAL23       0.0019
     33  N         40.2130  -22.4080  100.6990 N.3    36  ALA36      -0.1245
     34  CA        40.3510  -20.9920  100.3630 C.3    36  ALA36       0.1562
     35  C         39.1560  -20.3250  101.0510 C.2    36  ALA36       0.2260
     36  O         38.0340  -20.8150  100.9240 O.2    36  ALA36      -0.2867
     37  CB        40.2830  -20.7770   98.8610 C.3    36  ALA36       0.0290
     38  N         37.1310  -16.6270  101.6460 N.3    38  LYS38      -0.1245
     39  CA        36.9500  -15.2230  101.2790 C.3    38  LYS38       0.1561
     40  C         36.3470  -14.5130  102.4940 C.2    38  LYS38       0.2260
     41  O         35.2660  -14.8870  102.9420 O.2    38  LYS38      -0.2867
     42  CB        36.0410  -15.0740  100.0500 C.3    38  LYS38       0.0271
     43  CG        35.6980  -13.6260   99.7280 C.3    38  LYS38       0.0035
     44  CD        35.1300  -13.4670   98.3360 C.3    38  LYS38       0.0206
     45  CE        36.2090  -13.3450   97.3020 C.3    38  LYS38       0.1093
     46  NZ        35.6350  -13.2840   95.9500 N.3    38  LYS38      -0.1314
     47  N         33.2720  -23.4990   91.2680 N.3    70  MET70      -0.1245
     48  CA        33.9510  -23.6480   92.5450 C.3    70  MET70       0.1570
     49  C         33.0280  -24.2940   93.5750 C.2    70  MET70       0.2261
     50  O         31.8560  -23.9230   93.6650 O.2    70  MET70      -0.2867
     51  CB        34.4390  -22.2940   93.0780 C.3    70  MET70       0.0387
     52  CG        34.9220  -22.3580   94.5340 C.3    70  MET70       0.0595
     53  SD        35.3230  -20.7710   95.2240 S.3    70  MET70      -0.1393
     54  CE        35.7650  -21.2390   96.8230 C.3    70  MET70       0.0692
     55  N         31.7290  -24.6730   97.2770 N.3    72  LEU72      -0.1245
     56  CA        31.5740  -23.9430   98.5300 C.3    72  LEU72       0.1561
     57  C         31.3060  -24.9990   99.6050 C.2    72  LEU72       0.2260
     58  O         30.4460  -25.8630   99.4160 O.2    72  LEU72      -0.2867
     59  CB        30.3940  -22.9660   98.4280 C.3    72  LEU72       0.0270
     60  CG        30.1380  -22.0550   99.6280 C.3    72  LEU72       0.0019
     61  CD1       31.2150  -20.9740   99.7480 C.3    72  LEU72       0.0001
     62  CD2       28.7710  -21.3920   99.5040 C.3    72  LEU72       0.0001
     63  N         33.3440  -17.0520  103.5960 N.3    84  LEU84      -0.1231
     64  CA        32.8960  -18.0250  102.6170 C.3    84  LEU84       0.1693
     65  C         34.0370  -19.0130  102.4860 C.2    84  LEU84       0.2592
     66  O         35.1240  -18.6350  102.0660 O.2    84  LEU84      -0.2718
     67  CB        32.5870  -17.3530  101.2770 C.3    84  LEU84       0.0284
     68  CG        31.3380  -16.4860  101.2820 C.3    84  LEU84       0.0019
     69  CD1       31.4660  -15.3580  100.3050 C.3    84  LEU84       0.0001
     70  CD2       30.1120  -17.3130  100.9510 C.3    84  LEU84       0.0001
     71  N         33.8130  -20.2540  102.9110 N.am   85  VAL85      -0.1966
     72  CA        34.8380  -21.2810  102.8830 C.3    85  VAL85       0.1727
     73  C         34.5510  -22.2450  101.7340 C.2    85  VAL85       0.2617
     74  O         33.4850  -22.8470  101.6980 O.2    85  VAL85      -0.2715
     75  CB        34.8660  -22.0300  104.2300 C.3    85  VAL85       0.0290
     76  CG1       35.9700  -23.0750  104.2470 C.3    85  VAL85       0.0023
     77  CG2       34.9790  -21.0640  105.4060 C.3    85  VAL85       0.0023
     78  N         35.5150  -22.4200  100.8500 N.am   86  GLY86      -0.1940
     79  CA        35.3870  -23.3290   99.7220 C.3    86  GLY86       0.2014
     80  C         36.7070  -23.9190   99.2850 C.2    86  GLY86       0.2639
     81  O         37.7290  -23.7650   99.9610 O.2    86  GLY86      -0.2714
     82  N         36.6730  -24.6320   98.1600 N.am   87  GLU87      -0.1963
     83  CA        37.8220  -25.3420   97.6350 C.3    87  GLU87       0.1733
     84  C         38.8700  -24.3730   97.0790 C.2    87  GLU87       0.2616
     85  O         38.5230  -23.3880   96.4240 O.2    87  GLU87      -0.2715
     86  CB        37.3630  -26.3280   96.5530 C.3    87  GLU87       0.0429
     87  CG        38.4400  -27.2800   96.0650 C.3    87  GLU87       0.1163
     88  CD        37.9190  -28.3780   95.1650 C.2    87  GLU87       0.3649
     89  OE1       36.9050  -28.1590   94.4650 O.co2  87  GLU87      -0.2457
     90  OE2       38.5570  -29.4510   95.1300 O.co2  87  GLU87      -0.2457
     91  N         40.1580  -24.7080   97.3140 N.am   88  VAL88      -0.1963
     92  CA        41.3070  -23.9150   96.8830 C.3    88  VAL88       0.1727
     93  C         41.8280  -24.4850   95.5630 C.2    88  VAL88       0.2616
     94  O         41.9650  -25.6990   95.4240 O.2    88  VAL88      -0.2715
     95  CB        42.4410  -23.8080   97.9550 C.3    88  VAL88       0.0290
     96  CG1       42.9520  -25.1610   98.4410 C.3    88  VAL88       0.0023
     97  CG2       43.5990  -22.9560   97.4490 C.3    88  VAL88       0.0023
     98  N         42.1120  -23.5970   94.5950 N.am   89  TYR89      -0.1974
     99  CA        42.6630  -23.9620   93.2890 C.3    89  TYR89       0.1639
    100  C         44.0400  -23.3230   93.1720 C.2    89  TYR89       0.2290
    101  O         44.2480  -22.2020   93.6410 O.2    89  TYR89      -0.2864
    102  CB        41.7140  -23.5560   92.1540 C.3    89  TYR89       0.0560
    103  CG        40.3260  -24.1210   92.3560 C.ar   89  TYR89      -0.0198
    104  CD1       40.1230  -25.4890   92.4690 C.ar   89  TYR89      -0.0009
    105  CD2       39.2380  -23.2840   92.5740 C.ar   89  TYR89      -0.0009
    106  CE1       38.8670  -26.0150   92.7410 C.ar   89  TYR89       0.0417
    107  CE2       37.9750  -23.7980   92.8440 C.ar   89  TYR89       0.0417
    108  CZ        37.7880  -25.1670   92.9230 C.ar   89  TYR89       0.1957
    109  OH        36.5320  -25.6690   93.1940 O.3    89  TYR89      -0.2866
    110  N         46.1020  -21.0410   89.1000 N.3    92  GLY92      -0.1210
    111  CA        46.0860  -19.6130   88.8040 C.3    92  GLY92       0.1956
    112  C         45.0050  -19.1890   87.8300 C.2    92  GLY92       0.2611
    113  O         44.1410  -19.9870   87.4570 O.2    92  GLY92      -0.2717
    114  N         45.0670  -17.9240   87.3950 N.am   93  GLU93      -0.1979
    115  CA        44.1020  -17.3710   86.4510 C.3    93  GLU93       0.1602
    116  C         44.3530  -17.9170   85.0370 C.2    93  GLU93       0.2287
    117  O         45.4960  -18.1750   84.6640 O.2    93  GLU93      -0.2864
    118  CB        44.1480  -15.8390   86.4650 C.3    93  GLU93       0.0415
    119  CG        43.4960  -15.2560   87.7090 C.3    93  GLU93       0.1163
    120  CD        43.8520  -13.8190   88.0390 C.2    93  GLU93       0.3649
    121  OE1       44.1270  -13.0370   87.1020 O.co2  93  GLU93      -0.2457
    122  OE2       43.8300  -13.4680   89.2400 O.co2  93  GLU93      -0.2457
    123  N         39.4890  -12.9550   85.3660 N.3   136  GLU136     -0.1245
    124  CA        40.0270  -13.1330   86.7320 C.3   136  GLU136      0.1567
    125  C         39.2170  -14.1600   87.5450 C.2   136  GLU136      0.2260
    126  O         39.7520  -14.7370   88.4950 O.2   136  GLU136     -0.2867
    127  CB        40.0600  -11.7960   87.5040 C.3   136  GLU136      0.0388
    128  CG        41.2310  -10.9170   87.1250 C.3   136  GLU136      0.1160
    129  CD        40.9070   -9.9260   86.0230 C.2   136  GLU136      0.3649
    130  OE1       39.7520   -9.4660   85.9370 O.co2 136  GLU136     -0.2457
    131  OE2       41.8170   -9.5920   85.2380 O.co2 136  GLU136     -0.2457
    132  N         39.5920  -19.6530   87.1370 N.3   139  LEU139     -0.1245
    133  CA        40.8050  -20.2180   87.7360 C.3   139  LEU139      0.1561
    134  C         41.0110  -21.6160   87.2500 C.2   139  LEU139      0.2260
    135  O         40.0510  -22.3210   86.9780 O.2   139  LEU139     -0.2867
    136  CB        40.7280  -20.2440   89.2690 C.3   139  LEU139      0.0270
    137  CG        40.4170  -18.9330   89.9780 C.3   139  LEU139      0.0019
    138  CD1       40.6170  -19.0850   91.4740 C.3   139  LEU139      0.0001
    139  CD2       41.2670  -17.7720   89.4360 C.3   139  LEU139      0.0001
    140  N         34.6570  -18.8170   89.7020 N.3   152  ILE152     -0.1231
    141  CA        34.5400  -18.3920   91.1030 C.3   152  ILE152      0.1692
    142  C         33.5890  -17.1900   91.2030 C.2   152  ILE152      0.2592
    143  O         33.3580  -16.4810   90.2140 O.2   152  ILE152     -0.2718
    144  CB        35.9170  -18.0680   91.7560 C.3   152  ILE152      0.0266
    145  CG1       36.7210  -17.0370   90.9450 C.3   152  ILE152      0.0019
    146  CG2       36.7570  -19.3270   91.9150 C.3   152  ILE152      0.0020
    147  CD1       37.6690  -16.2190   91.7530 C.3   152  ILE152      0.0001
    148  N         33.0300  -16.9990   92.4070 N.am  153  ASP153     -0.1974
    149  CA        32.1430  -15.9030   92.8290 C.3   153  ASP153      0.1709
    150  C         30.7330  -15.9490   92.1970 C.2   153  ASP153      0.2293
    151  O         30.0620  -14.9090   92.1570 O.2   153  ASP153     -0.2864
    152  CB        32.7800  -14.5240   92.5450 C.3   153  ASP153      0.1436
    153  CG        34.0970  -14.3160   93.2550 C.2   153  ASP153      0.3671
    154  OD1       34.3550  -15.0320   94.2560 O.co2 153  ASP153     -0.2456
    155  OD2       34.8560  -13.4010   92.8450 O.co2 153  ASP153     -0.2456
    156  N         27.4570  -14.0850   94.2090 N.3   156  LEU156     -0.1245
    157  CA        27.8150  -13.0580   95.2040 C.3   156  LEU156      0.1561
    158  C         27.2830  -11.6690   94.8540 C.2   156  LEU156      0.2260
    159  O         26.9540  -10.9200   95.7700 O.2   156  LEU156     -0.2867
    160  CB        29.3430  -12.9580   95.3800 C.3   156  LEU156      0.0270
    161  CG        30.0740  -14.2010   95.8790 C.3   156  LEU156      0.0019
    162  CD1       31.5240  -13.8670   96.2240 C.3   156  LEU156      0.0001
    163  CD2       29.3840  -14.8030   97.0870 C.3   156  LEU156      0.0001
@<TRIPOS>BOND
     1   117   116    2
     2   116   115    1
     3   131   129   ar
     4   123   124    1
     5   130   129   ar
     6   129   128    1
     7   115   118    1
     8   115   114    1
     9   118   119    1
    10   124   127    1
    11   124   125    1
    12   135   134    2
    13   121   120   ar
    14   128   127    1
    15   132   133    1
    16   134   133    1
    17   114   112   am
    18   113   112    2
    19   125   126    2
    20   119   120    1
    21   133   136    1
    22   112   111    1
    23   120   122   ar
    24   111   110    1
    25   136   137    1
    26   139   137    1
    27   140   141    1
    28   137   138    1
    29   143   142    2
    30   145   147    1
    31   145   144    1
    32   141   142    1
    33   141   144    1
    34   142   148   am
    35    47    48    1
    36   144   146    1
    37   102   103    1
    38   102    99    1
    39   151   150    2
    40   150   149    1
    41   103   104   ar
    42   103   105   ar
    43   148   149    1
    44   104   106   ar
    45   152   149    1
    46   152   153    1
    47    48    51    1
    48    48    49    1
    49   105   107   ar
    50   106   108   ar
    51   107   108   ar
    52   155   153   ar
    53   108   109    1
    54    51    52    1
    55   100    99    1
    56   100   101    2
    57   153   154   ar
    58    99    98    1
    59    49    50    2
    60   156   157    1
    61    16    15    2
    62    89    88   ar
    63    52    53    1
    64    98    93   am
    65   158   157    1
    66   158   159    2
    67    23    24    1
    68    23    22    1
    69    90    88   ar
    70    88    87    1
    71   157   160    1
    72    53    54    1
    73    24    25    2
    74   160   161    1
    75    94    93    2
    76    15    22   am
    77    15    14    1
    78    93    92    1
    79   161   162    1
    80   161   163    1
    81    46    45    1
    82    87    86    1
    83     4     3    2
    84    17    18    1
    85    17    14    1
    86    13    14    1
    87    13    11   am
    88    85    84    2
    89    18    19    1
    90    86    83    1
    91    92    91    1
    92    92    95    1
    93    10    11    1
    94    10     9    1
    95    84    91   am
    96    84    83    1
    97    21    20    1
    98    55    56    1
    99    11    12    2
   100    45    44    1
   101     3     9   am
   102     3     2    1
   103    97    95    1
   104    83    82    1
   105    32    30    1
   106    19    20    1
   107    95    96    1
   108    82    80   am
   109     5     2    1
   110     5     6    1
   111     8     6    1
   112    44    43    1
   113     2     1    1
   114    59    56    1
   115    59    60    1
   116    31    30    1
   117    56    57    1
   118    30    27    1
   119    37    34    1
   120     6     7    1
   121    80    79    1
   122    80    81    2
   123    58    57    2
   124    62    60    1
   125    60    61    1
   126    79    78    1
   127    43    42    1
   128    27    26    1
   129    27    28    1
   130    42    39    1
   131    69    68    1
   132    34    33    1
   133    34    35    1
   134    29    28    2
   135    78    73   am
   136    36    35    2
   137    70    68    1
   138    67    68    1
   139    67    64    1
   140    39    38    1
   141    39    40    1
   142    74    73    2
   143    73    72    1
   144    66    65    2
   145    65    64    1
   146    65    71   am
   147    40    41    2
   148    64    63    1
   149    72    71    1
   150    72    75    1
   151    75    76    1
   152    75    77    1
