@<TRIPOS>MOLECULE
tmp/5w92A01.pdb
 117 109 0 0 0
SMALL
GASTEIGER

@<TRIPOS>ATOM
      1  N        124.7820  119.7050  409.8390 N.3    14  ASN14      -0.1240
      2  CA       125.5370  120.5660  408.9560 C.3    14  ASN14       0.1653
      3  C        126.4770  119.7290  408.0850 C.2    14  ASN14       0.2266
      4  O        126.8340  118.6060  408.4510 O.2    14  ASN14      -0.2867
      5  CB       126.3050  121.6230  409.7560 C.3    14  ASN14       0.1155
      6  CG       127.5830  121.0980  410.3850 C.2    14  ASN14       0.2627
      7  OD1      128.5810  120.8250  409.7000 O.2    14  ASN14      -0.2716
      8  ND2      127.5820  121.0160  411.7080 N.am   14  ASN14      -0.0877
      9  N        129.5710  119.5130  407.4260 N.3    16  MET16      -0.1230
     10  CA       130.7910  118.9360  407.9840 C.3    16  MET16       0.1702
     11  C        130.4680  117.7380  408.8840 C.2    16  MET16       0.2592
     12  O        131.1950  116.7390  408.8800 O.2    16  MET16      -0.2718
     13  CB       131.5760  120.0080  408.7390 C.3    16  MET16       0.0401
     14  CG       132.8850  119.5000  409.3380 C.3    16  MET16       0.0596
     15  SD       133.4000  120.3640  410.8430 S.3    16  MET16      -0.1393
     16  CE       131.9580  120.1250  411.8760 C.3    16  MET16       0.0692
     17  N        129.3770  117.8050  409.6500 N.am   17  ILE17      -0.1980
     18  CA       128.9610  116.6330  410.4260 C.3    17  ILE17       0.1595
     19  C        128.6470  115.4740  409.4930 C.2    17  ILE17       0.2287
     20  O        129.1130  114.3410  409.6910 O.2    17  ILE17      -0.2864
     21  CB       127.7500  116.9580  411.3120 C.3    17  ILE17       0.0276
     22  CG1      128.0930  118.0340  412.3270 C.3    17  ILE17       0.0022
     23  CG2      127.2630  115.6940  412.0180 C.3    17  ILE17       0.0022
     24  CD1      129.2470  117.6740  413.1620 C.3    17  ILE17       0.0001
     25  N        131.6850  113.9330  407.9330 N.3    20  LEU20      -0.1245
     26  CA       132.4260  113.1680  408.9370 C.3    20  LEU20       0.1561
     27  C        131.7260  111.8550  409.2590 C.2    20  LEU20       0.2260
     28  O        132.3830  110.8200  409.4420 O.2    20  LEU20      -0.2867
     29  CB       132.6150  114.0000  410.2080 C.3    20  LEU20       0.0270
     30  CG       133.7380  115.0500  410.1480 C.3    20  LEU20       0.0019
     31  CD1      133.8250  115.8300  411.4570 C.3    20  LEU20       0.0001
     32  CD2      135.0800  114.4030  409.8160 C.3    20  LEU20       0.0001
     33  N        127.4740  115.6400  416.5520 N.3    47  GLU47      -0.1245
     34  CA       127.1050  116.9990  416.9330 C.3    47  GLU47       0.1567
     35  C        127.1420  117.1600  418.4500 C.2    47  GLU47       0.2260
     36  O        127.6110  118.1840  418.9690 O.2    47  GLU47      -0.2867
     37  CB       125.7180  117.3500  416.3790 C.3    47  GLU47       0.0388
     38  CG       125.3030  118.8060  416.6610 C.3    47  GLU47       0.1160
     39  CD       124.0350  119.2510  415.9300 C.2    47  GLU47       0.3649
     40  OE1      123.7400  120.4750  415.9120 O.co2  47  GLU47      -0.2457
     41  OE2      123.3330  118.3860  415.3790 O.co2  47  GLU47      -0.2457
     42  N        130.5640  117.6800  419.5720 N.3    50  PHE50      -0.1227
     43  CA       131.0900  119.0080  419.2800 C.3    50  PHE50       0.1736
     44  C        130.4670  120.0710  420.1870 C.2    50  PHE50       0.2595
     45  O        131.1600  121.0090  420.6050 O.2    50  PHE50      -0.2718
     46  CB       130.8720  119.3430  417.8050 C.3    50  PHE50       0.0547
     47  CG       131.7110  118.5010  416.8570 C.ar   50  PHE50      -0.0202
     48  CD1      132.6880  117.6460  417.3400 C.ar   50  PHE50      -0.0042
     49  CD2      131.5090  118.5540  415.4950 C.ar   50  PHE50      -0.0042
     50  CE1      133.4440  116.8660  416.4770 C.ar   50  PHE50      -0.0003
     51  CE2      132.2700  117.7770  414.6220 C.ar   50  PHE50      -0.0003
     52  CZ       133.2390  116.9440  415.1160 C.ar   50  PHE50      -0.0000
     53  N        129.1660  119.9560  420.4950 N.am   51  MET51      -0.1979
     54  CA       128.5480  120.9290  421.3890 C.3    51  MET51       0.1605
     55  C        129.1520  120.8340  422.7780 C.2    51  MET51       0.2287
     56  O        129.4280  121.8550  423.4250 O.2    51  MET51      -0.2864
     57  CB       127.0360  120.7210  421.4600 C.3    51  MET51       0.0413
     58  CG       126.3080  121.0170  420.1640 C.3    51  MET51       0.0598
     59  SD       124.5850  120.5350  420.2980 S.3    51  MET51      -0.1393
     60  CE       124.0600  121.8040  421.4870 C.3    51  MET51       0.0692
     61  N        132.2490  119.8320  423.5760 N.3    53  SER53      -0.1202
     62  CA       133.5830  120.4250  423.5970 C.3    53  SER53       0.2020
     63  C        133.5520  121.9440  423.5750 C.2    53  SER53       0.2618
     64  O        134.5640  122.5800  423.8940 O.2    53  SER53      -0.2717
     65  CB       134.3920  119.9480  422.4100 C.3    53  SER53       0.2103
     66  OG       133.8380  120.4950  421.2370 O.3    53  SER53      -0.2182
     67  N        132.4310  122.5350  423.1780 N.am   54  ASP54      -0.1973
     68  CA       132.2480  123.9790  423.1560 C.3    54  ASP54       0.1709
     69  C        131.6700  124.5090  424.4630 C.2    54  ASP54       0.2293
     70  O        131.5600  125.7240  424.6270 O.2    54  ASP54      -0.2864
     71  CB       131.3190  124.3380  421.9880 C.3    54  ASP54       0.1436
     72  CG       131.3620  125.8020  421.6170 C.2    54  ASP54       0.3671
     73  OD1      132.3440  126.4950  421.9630 O.co2  54  ASP54      -0.2456
     74  OD2      130.3970  126.2650  420.9670 O.co2  54  ASP54      -0.2456
     75  N        139.3920  117.1710  421.2510 N.3    63  ILE63      -0.1245
     76  CA       138.4040  116.4290  420.4770 C.3    63  ILE63       0.1561
     77  C        139.1010  115.2380  419.8410 C.2    63  ILE63       0.2260
     78  O        139.9880  115.4090  419.0000 O.2    63  ILE63      -0.2867
     79  CB       137.7710  117.3210  419.3980 C.3    63  ILE63       0.0252
     80  CG1      136.7660  118.2980  420.0050 C.3    63  ILE63       0.0019
     81  CG2      137.0560  116.4880  418.3460 C.3    63  ILE63       0.0019
     82  CD1      136.6550  119.6080  419.2340 C.3    63  ILE63       0.0001
     83  N        137.0180  112.2360  418.9020 N.3    65  GLU65      -0.1231
     84  CA       136.0230  111.7690  417.9500 C.3    65  GLU65       0.1699
     85  C        136.0830  112.6400  416.7110 C.2    65  GLU65       0.2593
     86  O        136.4780  113.8050  416.7740 O.2    65  GLU65      -0.2718
     87  CB       134.6200  111.8280  418.5790 C.3    65  GLU65       0.0402
     88  CG       133.4700  111.3750  417.7040 C.3    65  GLU65       0.1161
     89  CD       133.6180  109.9360  417.2270 C.2    65  GLU65       0.3649
     90  OE1      133.2400  108.9990  417.9690 O.co2  65  GLU65      -0.2457
     91  OE2      134.1240  109.7500  416.0910 O.co2  65  GLU65      -0.2457
     92  N        135.7340  112.0570  415.5640 N.am   66  GLY66      -0.1942
     93  CA       135.7330  112.7890  414.3150 C.3    66  GLY66       0.2014
     94  C        137.0410  112.7810  413.5630 C.2    66  GLY66       0.2638
     95  O        137.1210  113.3960  412.5000 O.2    66  GLY66      -0.2714
     96  N        138.0660  112.1140  414.0750 N.am   67  ARG67      -0.1977
     97  CA       139.3280  111.9390  413.3760 C.3    67  ARG67       0.1597
     98  C        139.4200  110.5320  412.7970 C.2    67  ARG67       0.2287
     99  O        138.6700  109.6310  413.1760 O.2    67  ARG67      -0.2864
    100  CB       140.5050  112.1560  414.3180 C.3    67  ARG67       0.0334
    101  CG       140.4750  113.3870  415.1450 C.3    67  ARG67       0.0492
    102  CD       141.8010  113.4830  415.8420 C.3    67  ARG67       0.2205
    103  NE       141.8010  114.5290  416.8430 N.pl3  67  ARG67      -0.0865
    104  CZ       142.4680  115.6690  416.7250 C.cat  67  ARG67       0.5346
    105  NH1      143.1990  115.9090  415.6310 N.pl3  67  ARG67       0.1354
    106  NH2      142.3950  116.5630  417.7110 N.pl3  67  ARG67       0.1354
    107  N        121.4360  122.8630  426.7240 N.3   153  ARG153     -0.1245
    108  CA       121.3440  123.1430  425.2890 C.3   153  ARG153      0.1563
    109  C        121.5210  121.8760  424.4610 C.2   153  ARG153      0.2260
    110  O        120.8680  121.7000  423.4220 O.2   153  ARG153     -0.2867
    111  CB       122.3760  124.1930  424.8820 C.3   153  ARG153      0.0307
    112  CG       121.8320  125.1590  423.8200 C.3   153  ARG153      0.0489
    113  CD       122.8520  126.2100  423.4030 C.3   153  ARG153      0.2205
    114  NE       124.1880  125.6270  423.3120 N.pl3 153  ARG153     -0.0865
    115  CZ       124.8430  125.4030  422.1770 C.cat 153  ARG153      0.5346
    116  NH1      124.2950  125.7210  421.0100 N.pl3 153  ARG153      0.1354
    117  NH2      126.0550  124.8600  422.2130 N.pl3 153  ARG153      0.1354
@<TRIPOS>BOND
     1     9    10    1
     2    25    26    1
     3    10    13    1
     4    10    11    1
     5     3     4    2
     6     3     2    1
     7    13    14    1
     8    12    11    2
     9    11    17   am
    10    26    27    1
    11    26    29    1
    12     2     5    1
    13     2     1    1
    14    27    28    2
    15    14    15    1
    16    19    20    2
    17    19    18    1
    18    17    18    1
    19     7     6    2
    20     5     6    1
    21    32    30    1
    22    30    29    1
    23    30    31    1
    24     6     8   am
    25    18    21    1
    26    15    16    1
    27    21    23    1
    28    21    22    1
    29    22    24    1
    30    95    94    2
    31    98    99    2
    32    98    97    1
    33    97    96    1
    34    97   100    1
    35    94    96   am
    36    94    93    1
    37    93    92    1
    38   100   101    1
    39    51    52   ar
    40    51    49   ar
    41    52    50   ar
    42   101   102    1
    43    41    39   ar
    44    49    47   ar
    45    92    85   am
    46   105   104    1
    47   102   103    1
    48    40    39   ar
    49    39    38    1
    50    91    89   ar
    51    37    38    1
    52    37    34    1
    53    50    48   ar
    54    33    34    1
    55    85    86    2
    56    85    84    1
    57   104   103    2
    58   104   106    1
    59    47    48   ar
    60    47    46    1
    61    34    35    1
    62    89    88    1
    63    89    90   ar
    64    88    87    1
    65    46    43    1
    66    84    87    1
    67    84    83    1
    68    81    79    1
    69    35    36    2
    70    78    77    2
    71    82    80    1
    72    43    42    1
    73    43    44    1
    74    79    80    1
    75    79    76    1
    76    77    76    1
    77    58    59    1
    78    58    57    1
    79    44    53   am
    80    44    45    2
    81    59    60    1
    82    76    75    1
    83    53    54    1
    84    74    72   ar
    85   116   115    1
    86    66    65    1
    87    54    57    1
    88    54    55    1
    89    72    73   ar
    90    72    71    1
    91    71    68    1
    92   115   117    1
    93   115   114    2
    94    65    62    1
    95    55    56    2
    96    68    67    1
    97    68    69    1
    98    67    63   am
    99   114   113    1
   100   113   112    1
   101   110   109    2
   102    63    62    1
   103    63    64    2
   104    61    62    1
   105   112   111    1
   106   109   108    1
   107    69    70    2
   108   111   108    1
   109   108   107    1
