@<TRIPOS>MOLECULE
tmp/5w92A00.pdb
 194 187 0 0 0
SMALL
GASTEIGER

@<TRIPOS>ATOM
      1  N        133.1440  107.9090  408.5550 N.3    24  ALA24      -0.1245
      2  CA       133.2470  106.9030  409.6130 C.3    24  ALA24       0.1562
      3  C        132.5210  105.6170  409.2260 C.2    24  ALA24       0.2260
      4  O        133.0450  104.5130  409.4290 O.2    24  ALA24      -0.2867
      5  CB       132.7170  107.4590  410.9390 C.3    24  ALA24       0.0290
      6  N        133.8860  101.5440  408.7490 N.3    28  TYR28      -0.1241
      7  CA       133.3440  100.3050  409.3030 C.3    28  TYR28       0.1605
      8  C        132.7880   99.3810  408.2310 C.2    28  TYR28       0.2264
      9  O        132.4070   98.2490  408.5480 O.2    28  TYR28      -0.2867
     10  CB       132.2350  100.5970  410.3170 C.3    28  TYR28       0.0534
     11  CG       132.6990  100.8490  411.7370 C.ar   28  TYR28      -0.0201
     12  CD1      133.5620  101.9020  412.0290 C.ar   28  TYR28      -0.0009
     13  CD2      132.2580  100.0460  412.7940 C.ar   28  TYR28      -0.0009
     14  CE1      133.9820  102.1490  413.3260 C.ar   28  TYR28       0.0417
     15  CE2      132.6740  100.2860  414.0990 C.ar   28  TYR28       0.0417
     16  CZ       133.5360  101.3410  414.3550 C.ar   28  TYR28       0.1957
     17  OH       133.9600  101.5940  415.6350 O.3    28  TYR28      -0.2866
     18  N        121.4160  104.2840  411.4060 N.3    38  LYS38      -0.1245
     19  CA       122.7460  104.4330  411.9860 C.3    38  LYS38       0.1561
     20  C        123.4230  105.7070  411.4890 C.2    38  LYS38       0.2260
     21  O        124.1330  106.3810  412.2450 O.2    38  LYS38      -0.2867
     22  CB       123.5930  103.2090  411.6610 C.3    38  LYS38       0.0271
     23  CG       124.9820  103.2420  412.2750 C.3    38  LYS38       0.0035
     24  CD       125.4560  101.8530  412.6960 C.3    38  LYS38       0.0206
     25  CE       126.7370  101.9400  413.5160 C.3    38  LYS38       0.1093
     26  NZ       127.3780  100.6100  413.7180 N.3    38  LYS38      -0.1314
     27  N        122.1410  108.4250  413.6810 N.3    41  ALA41      -0.1231
     28  CA       122.6690  108.3280  415.0370 C.3    41  ALA41       0.1694
     29  C        124.1090  108.8090  415.0960 C.2    41  ALA41       0.2591
     30  O        124.4900  109.5410  416.0140 O.2    41  ALA41      -0.2718
     31  CB       122.5510  106.8780  415.5310 C.3    41  ALA41       0.0304
     32  N        124.9160  108.4490  414.0990 N.am   42  ILE42      -0.1980
     33  CA       126.3170  108.8530  414.1100 C.3    42  ILE42       0.1595
     34  C        126.4450  110.3690  413.9970 C.2    42  ILE42       0.2287
     35  O        127.2570  110.9820  414.7010 O.2    42  ILE42      -0.2864
     36  CB       127.0750  108.1060  412.9990 C.3    42  ILE42       0.0276
     37  CG1      127.3670  106.6890  413.4850 C.3    42  ILE42       0.0022
     38  CG2      128.3590  108.8330  412.6250 C.3    42  ILE42       0.0022
     39  CD1      127.6430  105.6970  412.3750 C.3    42  ILE42       0.0001
     40  N        125.4620  111.8200  417.4990 N.3    45  HIS45      -0.1226
     41  CA       126.5920  111.6520  418.4100 C.3    45  HIS45       0.1752
     42  C        127.6910  112.6570  418.0990 C.2    45  HIS45       0.2595
     43  O        128.2470  113.2990  419.0050 O.2    45  HIS45      -0.2718
     44  CB       127.1170  110.2160  418.2970 C.3    45  HIS45       0.0759
     45  CG       128.3170  109.9250  419.1470 C.ar   45  HIS45       0.0818
     46  ND1      129.6090  110.0860  418.6940 N.ar   45  HIS45      -0.2268
     47  CD2      128.4190  109.4560  420.4160 C.ar   45  HIS45       0.1154
     48  CE1      130.4570  109.7410  419.6490 C.ar   45  HIS45       0.1986
     49  NE2      129.7610  109.3540  420.7050 N.ar   45  HIS45      -0.2212
     50  N        127.9860  112.8350  416.8170 N.am   46  LEU46      -0.1980
     51  CA       129.0310  113.7660  416.4210 C.3    46  LEU46       0.1596
     52  C        128.6890  115.1840  416.8630 C.2    46  LEU46       0.2287
     53  O        129.5090  115.8710  417.4960 O.2    46  LEU46      -0.2864
     54  CB       129.2280  113.6950  414.9090 C.3    46  LEU46       0.0297
     55  CG       130.3540  112.7920  414.4110 C.3    46  LEU46       0.0022
     56  CD1      130.3130  112.6890  412.8930 C.3    46  LEU46       0.0001
     57  CD2      131.7070  113.3400  414.8500 C.3    46  LEU46       0.0001
     58  N        137.0180  112.2360  418.9020 N.3    65  GLU65      -0.1245
     59  CA       136.0230  111.7690  417.9500 C.3    65  GLU65       0.1567
     60  C        136.0830  112.6400  416.7110 C.2    65  GLU65       0.2260
     61  O        136.4780  113.8050  416.7740 O.2    65  GLU65      -0.2867
     62  CB       134.6200  111.8280  418.5790 C.3    65  GLU65       0.0388
     63  CG       133.4700  111.3750  417.7040 C.3    65  GLU65       0.1160
     64  CD       133.6180  109.9360  417.2270 C.2    65  GLU65       0.3649
     65  OE1      133.2400  108.9990  417.9690 O.co2  65  GLU65      -0.2457
     66  OE2      134.1240  109.7500  416.0910 O.co2  65  GLU65      -0.2457
     67  N        141.1150  106.8890  412.5880 N.3    69  ARG69      -0.1245
     68  CA       141.5060  106.0610  413.7190 C.3    69  ARG69       0.1563
     69  C        142.9670  106.2810  414.0970 C.2    69  ARG69       0.2260
     70  O        143.2970  106.3930  415.2820 O.2    69  ARG69      -0.2867
     71  CB       141.2420  104.5910  413.3950 C.3    69  ARG69       0.0307
     72  CG       141.0310  103.7100  414.6070 C.3    69  ARG69       0.0489
     73  CD       140.3650  102.4030  414.2100 C.3    69  ARG69       0.2205
     74  NE       139.3640  102.5800  413.1600 N.pl3  69  ARG69      -0.0865
     75  CZ       138.2570  103.3110  413.2890 C.cat  69  ARG69       0.5346
     76  NH1      137.9880  103.9310  414.4360 N.pl3  69  ARG69       0.1354
     77  NH2      137.4030  103.4040  412.2760 N.pl3  69  ARG69       0.1354
     78  N        144.2590  107.9160  417.6950 N.3    73  TRP73      -0.1241
     79  CA       145.1020  107.1790  418.6250 C.3    73  TRP73       0.1605
     80  C        146.4030  107.9250  418.8950 C.2    73  TRP73       0.2264
     81  O        146.8990  107.9140  420.0270 O.2    73  TRP73      -0.2867
     82  CB       145.3730  105.7700  418.0930 C.3    73  TRP73       0.0550
     83  CG       144.3360  104.7640  418.5290 C.ar   73  TRP73       0.0003
     84  CD1      143.4700  104.0720  417.7280 C.ar   73  TRP73       0.0946
     85  CD2      144.0580  104.3440  419.8730 C.ar   73  TRP73       0.0152
     86  NE1      142.6790  103.2400  418.4900 N.ar   73  TRP73      -0.2442
     87  CE2      143.0160  103.3940  419.8080 C.ar   73  TRP73       0.0810
     88  CE3      144.5900  104.6780  421.1240 C.ar   73  TRP73       0.0012
     89  CZ2      142.4930  102.7760  420.9450 C.ar   73  TRP73       0.0191
     90  CZ3      144.0640  104.0650  422.2560 C.ar   73  TRP73       0.0001
     91  CH2      143.0280  103.1240  422.1550 C.ar   73  TRP73       0.0015
     92  N        139.6810  101.3120  424.4130 N.3    90  PHE90      -0.1227
     93  CA       138.8800  101.7680  423.2940 C.3    90  PHE90       0.1736
     94  C        139.0340  103.2720  423.1530 C.2    90  PHE90       0.2595
     95  O        139.2710  103.9790  424.1380 O.2    90  PHE90      -0.2718
     96  CB       137.4010  101.4310  423.4960 C.3    90  PHE90       0.0547
     97  CG       137.0800   99.9770  423.3310 C.ar   90  PHE90      -0.0202
     98  CD1      137.0590   99.3980  422.0690 C.ar   90  PHE90      -0.0042
     99  CD2      136.7990   99.1870  424.4380 C.ar   90  PHE90      -0.0042
    100  CE1      136.7600   98.0580  421.9090 C.ar   90  PHE90      -0.0003
    101  CE2      136.4980   97.8450  424.2900 C.ar   90  PHE90      -0.0003
    102  CZ       136.4780   97.2790  423.0200 C.ar   90  PHE90      -0.0000
    103  N        138.8840  103.7520  421.9240 N.am   91  LEU91      -0.1966
    104  CA       139.0130  105.1760  421.6340 C.3    91  LEU91       0.1713
    105  C        137.9220  105.9710  422.3420 C.2    91  LEU91       0.2458
    106  O        136.7310  105.7120  422.1180 O.2    91  LEU91      -0.2730
    107  CB       138.9260  105.4150  420.1340 C.3    91  LEU91       0.0310
    108  CG       140.2280  105.5300  419.3500 C.3    91  LEU91       0.0022
    109  CD1      139.9340  105.6750  417.8570 C.3    91  LEU91       0.0001
    110  CD2      141.0450  106.7090  419.8620 C.3    91  LEU91       0.0001
    111  N        138.2630  106.9450  423.1710 N.am   92  PRO92      -0.2716
    112  CA       137.2270  107.8190  423.7350 C.3    92  PRO92       0.1536
    113  C        136.8390  108.9220  422.7630 C.2    92  PRO92       0.2598
    114  O        137.3150  108.9370  421.6110 O.2    92  PRO92      -0.2715
    115  CB       137.8960  108.3800  424.9950 C.3    92  PRO92       0.0310
    116  CG       139.3370  108.4650  424.6060 C.3    92  PRO92       0.0237
    117  CD       139.6070  107.2980  423.6590 C.3    92  PRO92       0.0939
    118  N        135.9770  109.8430  423.2160 N.am   93  ASP93      -0.1972
    119  CA       135.4550  110.9170  422.3800 C.3    93  ASP93       0.1709
    120  C        136.1130  112.2640  422.6410 C.2    93  ASP93       0.2293
    121  O        136.2170  113.0770  421.7110 O.2    93  ASP93      -0.2864
    122  CB       133.9470  111.0750  422.5900 C.3    93  ASP93       0.1436
    123  CG       133.1470  109.9250  422.0040 C.2    93  ASP93       0.3671
    124  OD1      133.2700  109.6540  420.8010 O.co2  93  ASP93      -0.2456
    125  OD2      132.3960  109.2880  422.7660 O.co2  93  ASP93      -0.2456
    126  N        133.8030  109.4040  427.5120 N.3   104  GLU104     -0.1231
    127  CA       133.0210  108.6620  426.5250 C.3   104  GLU104      0.1699
    128  C        131.6110  109.2420  426.5140 C.2   104  GLU104      0.2592
    129  O        130.8860  109.1330  427.5120 O.2   104  GLU104     -0.2718
    130  CB       132.9890  107.1590  426.8280 C.3   104  GLU104      0.0402
    131  CG       131.9430  106.4280  425.9700 C.3   104  GLU104      0.1161
    132  CD       132.2300  106.5680  424.4460 C.2   104  GLU104      0.3649
    133  OE1      131.2910  106.5500  423.6190 O.co2 104  GLU104     -0.2457
    134  OE2      133.4100  106.6620  424.0770 O.co2 104  GLU104     -0.2457
    135  N        131.2240  109.8650  425.3910 N.am  105  ILE105     -0.1966
    136  CA       129.8800  110.4120  425.2360 C.3   105  ILE105      0.1727
    137  C        128.9780  109.3290  424.6800 C.2   105  ILE105      0.2617
    138  O        129.3520  108.6160  423.7400 O.2   105  ILE105     -0.2715
    139  CB       129.8530  111.6380  424.3110 C.3   105  ILE105      0.0290
    140  CG1      130.8120  112.7310  424.7930 C.3   105  ILE105      0.0022
    141  CG2      128.4200  112.1540  424.1930 C.3   105  ILE105      0.0023
    142  CD1      130.2490  113.6150  425.8550 C.3   105  ILE105      0.0001
    143  N        127.7850  109.2110  425.2610 N.am  106  GLY106     -0.1940
    144  CA       126.7600  108.3050  424.7610 C.3   106  GLY106      0.2014
    145  C        125.4720  109.0470  424.4450 C.2   106  GLY106      0.2638
    146  O        125.0950  109.9860  425.1560 O.2   106  GLY106     -0.2714
    147  N        124.8250  108.6400  423.3540 N.am  107  VAL107     -0.1977
    148  CA       123.5000  109.1160  422.9780 C.3   107  VAL107      0.1596
    149  C        122.6560  107.8870  422.6930 C.2   107  VAL107      0.2287
    150  O        122.9760  107.1080  421.7840 O.2   107  VAL107     -0.2864
    151  CB       123.5270  110.0490  421.7520 C.3   107  VAL107      0.0276
    152  CG1      122.1290  110.6040  421.4860 C.3   107  VAL107      0.0022
    153  CG2      124.5120  111.2040  421.9590 C.3   107  VAL107      0.0022
    154  N        118.4840  106.0910  422.6700 N.3   109  ARG109     -0.1245
    155  CA       117.0450  106.2740  422.6210 C.3   109  ARG109      0.1563
    156  C        116.3050  105.3870  423.6140 C.2   109  ARG109      0.2260
    157  O        115.0850  105.5330  423.7580 O.2   109  ARG109     -0.2867
    158  CB       116.5350  106.0090  421.1960 C.3   109  ARG109      0.0307
    159  CG       117.4800  106.5380  420.1090 C.3   109  ARG109      0.0489
    160  CD       117.5500  105.5880  418.9240 C.3   109  ARG109      0.2205
    161  NE       118.8830  105.5300  418.3240 N.pl3 109  ARG109     -0.0865
    162  CZ       119.2040  104.7490  417.2970 C.cat 109  ARG109      0.5346
    163  NH1      118.2900  103.9630  416.7430 N.pl3 109  ARG109      0.1354
    164  NH2      120.4390  104.7440  416.8270 N.pl3 109  ARG109      0.1354
    165  N        121.7530  101.7820  429.0490 N.3   115  TYR115     -0.1241
    166  CA       122.8600  102.0770  428.1450 C.3   115  TYR115      0.1605
    167  C        124.1460  102.3550  428.9160 C.2   115  TYR115      0.2264
    168  O        125.2290  101.9220  428.5000 O.2   115  TYR115     -0.2867
    169  CB       122.5040  103.2590  427.2400 C.3   115  TYR115      0.0534
    170  CG       123.4810  103.5050  426.1010 C.ar  115  TYR115     -0.0201
    171  CD1      123.5430  102.6420  425.0100 C.ar  115  TYR115     -0.0009
    172  CD2      124.3240  104.6030  426.1090 C.ar  115  TYR115     -0.0009
    173  CE1      124.4270  102.8650  423.9620 C.ar  115  TYR115      0.0417
    174  CE2      125.2030  104.8400  425.0620 C.ar  115  TYR115      0.0417
    175  CZ       125.2540  103.9680  423.9950 C.ar  115  TYR115      0.1957
    176  OH       126.1410  104.2140  422.9650 O.3   115  TYR115     -0.2866
    177  N        127.8160  100.4320  428.2930 N.3   119  LYS119     -0.1245
    178  CA       128.9950  101.1910  427.8820 C.3   119  LYS119      0.1561
    179  C        130.1450  101.0290  428.8700 C.2   119  LYS119      0.2260
    180  O        131.3140  101.0970  428.4720 O.2   119  LYS119     -0.2867
    181  CB       128.6420  102.6690  427.7060 C.3   119  LYS119      0.0271
    182  CG       129.8060  103.5200  427.2090 C.3   119  LYS119      0.0035
    183  CD       129.8630  103.5860  425.6760 C.3   119  LYS119      0.0206
    184  CE       128.5270  104.0020  425.0760 C.3   119  LYS119      0.1093
    185  NZ       128.6590  104.7580  423.8010 N.3   119  LYS119     -0.1314
    186  N        132.1720   97.8310  428.0340 N.3   122  LYS122     -0.1245
    187  CA       132.9000   97.9080  426.7660 C.3   122  LYS122      0.1561
    188  C        134.0840   98.8630  426.8920 C.2   122  LYS122      0.2260
    189  O        134.6320   99.0490  427.9800 O.2   122  LYS122     -0.2867
    190  CB       131.9710   98.3490  425.6250 C.3   122  LYS122      0.0271
    191  CG       132.5530   98.1410  424.2230 C.3   122  LYS122      0.0035
    192  CD       131.5130   98.3750  423.1190 C.3   122  LYS122      0.0206
    193  CE       132.0790   98.0600  421.7280 C.3   122  LYS122      0.1093
    194  NZ       131.1010   98.3390  420.6350 N.3   122  LYS122     -0.1314
@<TRIPOS>BOND
     1     8     9    2
     2     8     7    1
     3     1     2    1
     4     6     7    1
     5     3     4    2
     6     3     2    1
     7     7    10    1
     8     2     5    1
     9    10    11    1
    10    18    19    1
    11    20    19    1
    12    20    21    2
    13    22    19    1
    14    22    23    1
    15    11    12   ar
    16    11    13   ar
    17    12    14   ar
    18    23    24    1
    19    77    75    1
    20    39    37    1
    21    67    68    1
    22    38    36    1
    23    24    25    1
    24    13    15   ar
    25    56    55    1
    26    36    37    1
    27    36    33    1
    28    74    75    2
    29    74    73    1
    30    75    76    1
    31    14    16   ar
    32    71    68    1
    33    71    72    1
    34    25    26    1
    35    27    28    1
    36    68    69    1
    37    34    33    1
    38    34    35    2
    39    69    70    2
    40    32    33    1
    41    32    29   am
    42    15    16   ar
    43    73    72    1
    44    16    17    1
    45    55    57    1
    46    55    54    1
    47    54    51    1
    48    28    29    1
    49    28    31    1
    50    29    30    2
    51    66    64   ar
    52    51    50    1
    53    51    52    1
    54    60    61    2
    55    60    59    1
    56   163   162    1
    57    50    42   am
    58   164   162    1
    59    52    53    2
    60    64    63    1
    61    64    65   ar
    62   162   161    2
    63    40    41    1
    64    78    79    1
    65    63    62    1
    66    84    86   ar
    67    84    83   ar
    68   109   108    1
    69    59    62    1
    70    59    58    1
    71    82    83    1
    72    82    79    1
    73    42    41    1
    74    42    43    2
    75    44    41    1
    76    44    45    1
    77   161   160    1
    78    86    87   ar
    79    83    85   ar
    80    79    80    1
    81    46    45   ar
    82    46    48   ar
    83    80    81    2
    84   160   159    1
    85    45    47   ar
    86   108   110    1
    87   108   107    1
    88    48    49   ar
    89    87    85   ar
    90    87    89   ar
    91    85    88   ar
    92   159   158    1
    93   107   104    1
    94    47    49   ar
    95   194   193    1
    96   124   123   ar
    97    89    91   ar
    98    88    90   ar
    99   158   155    1
   100   152   151    1
   101   114   113    2
   102   104   103    1
   103   104   105    1
   104   121   120    2
   105   193   192    1
   106   151   153    1
   107   151   148    1
   108   150   149    2
   109   100    98   ar
   110   100   102   ar
   111   103    94   am
   112   123   122    1
   113   123   125   ar
   114    98    97   ar
   115   106   105    2
   116    91    90   ar
   117   105   111   am
   118   119   122    1
   119   119   120    1
   120   119   118    1
   121   155   154    1
   122   155   156    1
   123   149   148    1
   124   113   118   am
   125   113   112    1
   126   176   175    1
   127   148   147    1
   128   102   101   ar
   129   192   191    1
   130    94    93    1
   131    94    95    2
   132   111   117    1
   133   111   112    1
   134    93    96    1
   135    93    92    1
   136    97    96    1
   137    97    99   ar
   138   147   145   am
   139   156   157    2
   140   133   132   ar
   141   117   116    1
   142   112   115    1
   143   138   137    2
   144   185   184    1
   145   173   175   ar
   146   173   171   ar
   147   175   174   ar
   148   134   132   ar
   149   141   139    1
   150   191   190    1
   151   101    99   ar
   152   139   140    1
   153   139   136    1
   154   145   144    1
   155   145   146    2
   156   132   131    1
   157   116   115    1
   158   137   136    1
   159   137   143   am
   160   144   143    1
   161   140   142    1
   162   171   170   ar
   163   174   172   ar
   164   184   183    1
   165   136   135    1
   166   135   128   am
   167   190   187    1
   168   183   182    1
   169   131   130    1
   170   170   172   ar
   171   170   169    1
   172   128   127    1
   173   128   129    2
   174   127   130    1
   175   127   126    1
   176   187   188    1
   177   187   186    1
   178   188   189    2
   179   182   181    1
   180   169   166    1
   181   181   178    1
   182   178   177    1
   183   178   179    1
   184   166   167    1
   185   166   165    1
   186   180   179    2
   187   168   167    2
