@<TRIPOS>MOLECULE
tmp/5w95B01.pdb
 151 146 0 0 0
SMALL
GASTEIGER

@<TRIPOS>ATOM
      1  N        -61.4700   14.3200  146.7300 N.3    19  THR19      -0.1203
      2  CA       -60.3310   14.8650  146.0150 C.3    19  THR19       0.1994
      3  C        -60.4060   16.3970  146.0200 C.2    19  THR19       0.2617
      4  O        -61.4970   16.9730  145.8750 O.2    19  THR19      -0.2717
      5  CB       -60.2960   14.3160  144.5850 C.3    19  THR19       0.1784
      6  OG1      -60.5670   12.9070  144.6240 O.3    19  THR19      -0.2211
      7  CG2      -58.9570   14.5500  143.9550 C.3    19  THR19       0.0376
      8  N        -59.2570   17.0350  146.2400 N.am   20  TRP20      -0.1975
      9  CA       -59.1260   18.4910  146.2670 C.3    20  TRP20       0.1640
     10  C        -59.8690   19.1220  147.4570 C.2    20  TRP20       0.2290
     11  O        -60.2290   20.2990  147.4160 O.2    20  TRP20      -0.2864
     12  CB       -59.6000   19.0870  144.9290 C.3    20  TRP20       0.0576
     13  CG       -58.9670   18.3670  143.7650 C.ar   20  TRP20       0.0006
     14  CD1      -57.6250   18.2420  143.5200 C.ar   20  TRP20       0.0946
     15  CD2      -59.6350   17.6510  142.7090 C.ar   20  TRP20       0.0152
     16  NE1      -57.4200   17.5010  142.3800 N.ar   20  TRP20      -0.2442
     17  CE2      -58.6330   17.1370  141.8560 C.ar   20  TRP20       0.0810
     18  CE3      -60.9780   17.4100  142.3930 C.ar   20  TRP20       0.0012
     19  CZ2      -58.9330   16.3760  140.7180 C.ar   20  TRP20       0.0191
     20  CZ3      -61.2720   16.6570  141.2600 C.ar   20  TRP20       0.0001
     21  CH2      -60.2520   16.1530  140.4360 C.ar   20  TRP20       0.0015
     22  N        -55.8680   13.4190  142.1890 N.3    66  PHE66      -0.1241
     23  CA       -56.2170   12.3960  141.2120 C.3    66  PHE66       0.1605
     24  C        -55.6400   12.8140  139.8650 C.2    66  PHE66       0.2264
     25  O        -56.2700   13.5510  139.1090 O.2    66  PHE66      -0.2867
     26  CB       -57.7440   12.2080  141.1310 C.3    66  PHE66       0.0534
     27  CG       -58.1770   10.9150  140.4720 C.ar   66  PHE66      -0.0203
     28  CD1      -59.0890   10.0870  141.1030 C.ar   66  PHE66      -0.0042
     29  CD2      -57.6820   10.5350  139.2280 C.ar   66  PHE66      -0.0042
     30  CE1      -59.5040    8.8910  140.5200 C.ar   66  PHE66      -0.0003
     31  CE2      -58.0950    9.3360  138.6320 C.ar   66  PHE66      -0.0003
     32  CZ       -59.0070    8.5210  139.2810 C.ar   66  PHE66      -0.0000
     33  N        -54.8760   13.0610  136.1940 N.3    68  ASN68      -0.1226
     34  CA       -55.4380   12.6750  134.9160 C.3    68  ASN68       0.1770
     35  C        -54.2740   12.3200  134.0040 C.2    68  ASN68       0.2439
     36  O        -53.4620   13.1850  133.6900 O.2    68  ASN68      -0.2733
     37  CB       -56.2770   13.8160  134.3340 C.3    68  ASN68       0.1168
     38  CG       -56.8780   13.4810  132.9810 C.2    68  ASN68       0.2627
     39  OD1      -56.4200   12.5810  132.2810 O.2    68  ASN68      -0.2716
     40  ND2      -57.9220   14.2160  132.6100 N.am   68  ASN68      -0.0877
     41  N        -54.1790   11.0410  133.5950 N.am   69  PRO69      -0.2718
     42  CA       -53.0050   10.5730  132.8440 C.3    69  PRO69       0.1535
     43  C        -52.8270   11.2760  131.4980 C.2    69  PRO69       0.2598
     44  O        -51.7260   11.2610  130.9590 O.2    69  PRO69      -0.2715
     45  CB       -53.2810    9.0740  132.6360 C.3    69  PRO69       0.0310
     46  CG       -54.3240    8.7210  133.6200 C.3    69  PRO69       0.0237
     47  CD       -55.1360    9.9530  133.8650 C.3    69  PRO69       0.0939
     48  N        -53.8890   11.8870  130.9840 N.am   70  LEU70      -0.1978
     49  CA       -53.8500   12.5520  129.6860 C.3    70  LEU70       0.1596
     50  C        -53.2880   13.9710  129.7540 C.2    70  LEU70       0.2287
     51  O        -53.0210   14.5800  128.7240 O.2    70  LEU70      -0.2864
     52  CB       -55.2530   12.5870  129.0800 C.3    70  LEU70       0.0297
     53  CG       -55.9650   11.2340  129.0210 C.3    70  LEU70       0.0022
     54  CD1      -57.4040   11.4100  128.5630 C.3    70  LEU70       0.0001
     55  CD2      -55.2260   10.2440  128.1230 C.3    70  LEU70       0.0001
     56  N        -66.5170   11.1960  151.4320 N.3   110  PHE110     -0.1227
     57  CA       -67.0450   11.6900  150.1620 C.3   110  PHE110      0.1736
     58  C        -66.0960   11.3710  149.0260 C.2   110  PHE110      0.2596
     59  O        -64.9020   11.6910  149.1070 O.2   110  PHE110     -0.2718
     60  CB       -67.2840   13.2030  150.2300 C.3   110  PHE110      0.0547
     61  CG       -67.6610   13.8280  148.9000 C.ar  110  PHE110     -0.0202
     62  CD1      -68.7460   13.3660  148.1790 C.ar  110  PHE110     -0.0042
     63  CD2      -66.9260   14.8890  148.3860 C.ar  110  PHE110     -0.0042
     64  CE1      -69.1000   13.9540  146.9600 C.ar  110  PHE110     -0.0003
     65  CE2      -67.2610   15.4700  147.1720 C.ar  110  PHE110     -0.0003
     66  CZ       -68.3430   15.0080  146.4580 C.ar  110  PHE110     -0.0000
     67  N        -66.6330   10.7630  147.9680 N.am  111  SER111     -0.1938
     68  CA       -65.8830   10.5170  146.7300 C.3   111  SER111      0.2055
     69  C        -64.6220    9.6720  147.0010 C.2   111  SER111      0.2642
     70  O        -64.7420    8.5430  147.4700 O.2   111  SER111     -0.2714
     71  CB       -65.5150   11.8390  146.0550 C.3   111  SER111      0.2130
     72  OG       -65.3900   11.6650  144.6540 O.3   111  SER111     -0.2179
     73  N        -63.4280   10.2020  146.7070 N.am  112  GLN112     -0.1976
     74  CA       -62.1960    9.4740  147.0350 C.3   112  GLN112      0.1601
     75  C        -62.1800    9.1110  148.5320 C.2   112  GLN112      0.2287
     76  O        -61.7730    8.0060  148.9180 O.2   112  GLN112     -0.2864
     77  CB       -60.9420   10.2840  146.6480 C.3   112  GLN112      0.0394
     78  CG       -59.6680    9.6030  147.1370 C.3   112  GLN112      0.0908
     79  CD       -58.3670   10.1870  146.6010 C.2   112  GLN112      0.2608
     80  OE1      -57.2910    9.7610  147.0260 O.2   112  GLN112     -0.2717
     81  NE2      -58.4480   11.1390  145.6670 N.am  112  GLN112     -0.0878
     82  N        -55.0020   -1.2370  131.2140 N.3   173  VAL173     -0.1231
     83  CA       -54.3080    0.0400  131.0860 C.3   173  VAL173      0.1692
     84  C        -54.5130    0.9770  132.2790 C.2   173  VAL173      0.2591
     85  O        -53.5610    1.6320  132.6960 O.2   173  VAL173     -0.2718
     86  CB       -54.7110    0.7700  129.7760 C.3   173  VAL173      0.0266
     87  CG1      -54.0430    2.1190  129.6740 C.3   173  VAL173      0.0020
     88  CG2      -54.3510   -0.0870  128.5670 C.3   173  VAL173      0.0020
     89  N        -55.7200    1.0290  132.8450 N.am  174  LEU174     -0.1980
     90  CA       -55.9950    2.0000  133.9110 C.3   174  LEU174      0.1596
     91  C        -55.0910    1.8190  135.1300 C.2   174  LEU174      0.2287
     92  O        -54.5500    2.7900  135.6650 O.2   174  LEU174     -0.2864
     93  CB       -57.4540    1.9220  134.3440 C.3   174  LEU174      0.0297
     94  CG       -58.4500    2.3180  133.2560 C.3   174  LEU174      0.0022
     95  CD1      -59.8450    2.3600  133.8400 C.3   174  LEU174      0.0001
     96  CD2      -58.0800    3.6540  132.6010 C.3   174  LEU174      0.0001
     97  N        -51.6530    3.0400  134.6170 N.3   177  LEU177     -0.1245
     98  CA       -51.5580    4.4920  134.5080 C.3   177  LEU177      0.1561
     99  C        -51.7260    5.1680  135.8660 C.2   177  LEU177      0.2260
    100  O        -51.6610    6.3950  135.9610 O.2   177  LEU177     -0.2867
    101  CB       -52.6020    5.0390  133.5350 C.3   177  LEU177      0.0270
    102  CG       -52.3680    4.7420  132.0530 C.3   177  LEU177      0.0019
    103  CD1      -53.4280    5.4140  131.2060 C.3   177  LEU177      0.0001
    104  CD2      -50.9780    5.1920  131.6350 C.3   177  LEU177      0.0001
    105  N        -54.3200    4.4310  138.2430 N.3   179  LEU179     -0.1245
    106  CA       -55.6780    4.5000  138.7910 C.3   179  LEU179      0.1561
    107  C        -56.3610    3.1370  138.6890 C.2   179  LEU179      0.2260
    108  O        -57.1590    2.8630  137.7920 O.2   179  LEU179     -0.2867
    109  CB       -56.4670    5.6220  138.1050 C.3   179  LEU179      0.0270
    110  CG       -56.6450    5.6540  136.5860 C.3   179  LEU179      0.0019
    111  CD1      -58.1110    5.8790  136.1770 C.3   179  LEU179      0.0001
    112  CD2      -55.7490    6.7080  136.0040 C.3   179  LEU179      0.0001
    113  N        -69.2530    8.6450  139.2920 N.3   206  ILE206     -0.1245
    114  CA       -68.3500    8.0420  140.2670 C.3   206  ILE206      0.1561
    115  C        -68.9970    6.8570  140.9950 C.2   206  ILE206      0.2260
    116  O        -68.3740    5.8010  141.1710 O.2   206  ILE206     -0.2867
    117  CB       -67.8890    9.1050  141.2950 C.3   206  ILE206      0.0252
    118  CG1      -67.0030   10.1560  140.6100 C.3   206  ILE206      0.0019
    119  CG2      -67.1860    8.4710  142.4780 C.3   206  ILE206      0.0019
    120  CD1      -65.6210    9.6780  140.2870 C.3   206  ILE206      0.0001
    121  N        -65.9500   11.4650  130.3710 N.3   223  LEU223     -0.1245
    122  CA       -64.6430   11.9800  130.7900 C.3   223  LEU223      0.1561
    123  C        -64.7230   13.4180  131.2810 C.2   223  LEU223      0.2260
    124  O        -64.1310   13.7640  132.3050 O.2   223  LEU223     -0.2867
    125  CB       -63.6270   11.8910  129.6490 C.3   223  LEU223      0.0270
    126  CG       -63.1680   10.5010  129.2260 C.3   223  LEU223      0.0019
    127  CD1      -62.1250   10.6130  128.1190 C.3   223  LEU223      0.0001
    128  CD2      -62.6180    9.7520  130.4210 C.3   223  LEU223      0.0001
    129  N        -66.3750   13.4200  134.7090 N.3   226  LEU226     -0.1231
    130  CA       -65.4580   12.9390  135.7380 C.3   226  LEU226      0.1693
    131  C        -64.3480   13.9490  136.0170 C.2   226  LEU226      0.2591
    132  O        -63.8350   14.0270  137.1350 O.2   226  LEU226     -0.2718
    133  CB       -64.8570   11.5910  135.3260 C.3   226  LEU226      0.0284
    134  CG       -65.8650   10.4370  135.2740 C.3   226  LEU226      0.0019
    135  CD1      -65.2470    9.1740  134.6810 C.3   226  LEU226      0.0001
    136  CD2      -66.4310   10.1680  136.6580 C.3   226  LEU226      0.0001
    137  N        -63.9840   14.7220  134.9980 N.am  227  ALA227     -0.1980
    138  CA       -62.9010   15.6920  135.1220 C.3   227  ALA227      0.1597
    139  C        -63.2910   17.0530  134.5430 C.2   227  ALA227      0.2287
    140  O        -63.8520   17.9020  135.2410 O.2   227  ALA227     -0.2864
    141  CB       -61.6490   15.1670  134.4420 C.3   227  ALA227      0.0319
    142  N        -72.0810   15.6330  140.7570 N.3   230  HIS230     -0.1241
    143  CA       -71.1500   15.2480  141.8090 C.3   230  HIS230      0.1621
    144  C        -70.8080   16.3900  142.7720 C.2   230  HIS230      0.2264
    145  O        -70.4080   16.1430  143.9090 O.2   230  HIS230     -0.2867
    146  CB       -69.8760   14.7030  141.1660 C.3   230  HIS230      0.0745
    147  CG       -68.8860   14.1470  142.1370 C.ar  230  HIS230      0.0817
    148  ND1      -69.1000   12.9740  142.8300 N.ar  230  HIS230     -0.2268
    149  CD2      -67.6580   14.5870  142.5070 C.ar  230  HIS230      0.1154
    150  CE1      -68.0440   12.7130  143.5830 C.ar  230  HIS230      0.1986
    151  NE2      -67.1570   13.6780  143.4090 N.ar  230  HIS230     -0.2212
@<TRIPOS>BOND
     1   127   126    1
     2    55    53    1
     3    54    53    1
     4    88    86    1
     5    51    50    2
     6    53    52    1
     7    52    49    1
     8   126   125    1
     9   126   128    1
    10   125   122    1
    11    87    86    1
    12    49    50    1
    13    49    48    1
    14    86    83    1
    15   121   122    1
    16   122   123    1
    17    44    43    2
    18    48    43   am
    19    83    82    1
    20    83    84    1
    21   103   102    1
    22   123   124    2
    23    43    42    1
    24   104   102    1
    25   102   101    1
    26    84    85    2
    27    84    89   am
    28    39    38    2
    29    96    94    1
    30    40    38   am
    31    45    42    1
    32    45    46    1
    33    42    41    1
    34    89    90    1
    35    38    37    1
    36    94    95    1
    37    94    93    1
    38   101    98    1
    39    41    47    1
    40    41    35   am
    41    46    47    1
    42    36    35    2
    43    90    93    1
    44    90    91    1
    45    35    34    1
    46    37    34    1
    47   141   138    1
    48    98    97    1
    49    98    99    1
    50   139   138    1
    51   139   140    2
    52   135   134    1
    53   129   130    1
    54    34    33    1
    55   137   138    1
    56   137   131   am
    57    91    92    2
    58   134   133    1
    59   134   136    1
    60   133   130    1
    61   130   131    1
    62    99   100    2
    63   112   110    1
    64   131   132    2
    65   111   110    1
    66   110   109    1
    67   108   107    2
    68   109   106    1
    69   105   106    1
    70    31    29   ar
    71    31    32   ar
    72   107   106    1
    73    25    24    2
    74    29    27   ar
    75    32    30   ar
    76   113   114    1
    77    24    23    1
    78   114   115    1
    79   114   117    1
    80   120   118    1
    81    21    19   ar
    82    21    20   ar
    83    27    28   ar
    84    27    26    1
    85    30    28   ar
    86   118   117    1
    87    19    17   ar
    88   142   143    1
    89   115   116    2
    90    26    23    1
    91   146   143    1
    92   146   147    1
    93    23    22    1
    94    20    18   ar
    95   117   119    1
    96   143   144    1
    97    17    16   ar
    98    17    15   ar
    99   147   149   ar
   100   147   148   ar
   101    16    14   ar
   102    18    15   ar
   103   149   151   ar
   104    15    13   ar
   105   144   145    2
   106   148   150   ar
   107   151   150   ar
   108    14    13   ar
   109    13    12    1
   110     7     5    1
   111     5     6    1
   112     5     2    1
   113    72    71    1
   114    12     9    1
   115    81    79   am
   116     4     3    2
   117     2     3    1
   118     2     1    1
   119     3     8   am
   120    71    68    1
   121     8     9    1
   122     9    10    1
   123    66    64   ar
   124    66    65   ar
   125    79    80    2
   126    79    78    1
   127    77    74    1
   128    77    78    1
   129    73    69   am
   130    73    74    1
   131    68    69    1
   132    68    67    1
   133    64    62   ar
   134    69    70    2
   135    74    75    1
   136    65    63   ar
   137    11    10    2
   138    67    58   am
   139    62    61   ar
   140    63    61   ar
   141    75    76    2
   142    61    60    1
   143    58    59    2
   144    58    57    1
   145    57    60    1
   146    57    56    1
