@<TRIPOS>MOLECULE
tmp/5w95B00.pdb
 152 138 0 0 0
SMALL
GASTEIGER

@<TRIPOS>ATOM
      1  N        -61.4700   14.3200  146.7300 N.3    19  THR19      -0.1218
      2  CA       -60.3310   14.8650  146.0150 C.3    19  THR19       0.1862
      3  C        -60.4060   16.3970  146.0200 C.2    19  THR19       0.2287
      4  O        -61.4970   16.9730  145.8750 O.2    19  THR19      -0.2866
      5  CB       -60.2960   14.3160  144.5850 C.3    19  THR19       0.1770
      6  OG1      -60.5670   12.9070  144.6240 O.3    19  THR19      -0.2211
      7  CG2      -58.9570   14.5500  143.9550 C.3    19  THR19       0.0375
      8  N        -55.8680   13.4190  142.1890 N.3    66  PHE66      -0.1241
      9  CA       -56.2170   12.3960  141.2120 C.3    66  PHE66       0.1605
     10  C        -55.6400   12.8140  139.8650 C.2    66  PHE66       0.2264
     11  O        -56.2700   13.5510  139.1090 O.2    66  PHE66      -0.2867
     12  CB       -57.7440   12.2080  141.1310 C.3    66  PHE66       0.0534
     13  CG       -58.1770   10.9150  140.4720 C.ar   66  PHE66      -0.0203
     14  CD1      -59.0890   10.0870  141.1030 C.ar   66  PHE66      -0.0042
     15  CD2      -57.6820   10.5350  139.2280 C.ar   66  PHE66      -0.0042
     16  CE1      -59.5040    8.8910  140.5200 C.ar   66  PHE66      -0.0003
     17  CE2      -58.0950    9.3360  138.6320 C.ar   66  PHE66      -0.0003
     18  CZ       -59.0070    8.5210  139.2810 C.ar   66  PHE66      -0.0000
     19  N        -54.0710    8.6590  141.6260 N.3    78  TYR78      -0.1241
     20  CA       -55.1510    8.1770  142.4690 C.3    78  TYR78       0.1605
     21  C        -54.6490    7.0580  143.3770 C.2    78  TYR78       0.2264
     22  O        -54.9190    7.0450  144.5690 O.2    78  TYR78      -0.2867
     23  CB       -56.3090    7.6940  141.6050 C.3    78  TYR78       0.0534
     24  CG       -57.4780    7.1070  142.3860 C.ar   78  TYR78      -0.0201
     25  CD1      -58.0690    7.8100  143.4340 C.ar   78  TYR78      -0.0009
     26  CD2      -58.0040    5.8650  142.0490 C.ar   78  TYR78      -0.0009
     27  CE1      -59.1620    7.2760  144.1440 C.ar   78  TYR78       0.0417
     28  CE2      -59.0930    5.3220  142.7460 C.ar   78  TYR78       0.0417
     29  CZ       -59.6630    6.0310  143.7880 C.ar   78  TYR78       0.1957
     30  OH       -60.7400    5.4900  144.4700 O.3    78  TYR78      -0.2866
     31  N        -66.6330   10.7630  147.9680 N.3   111  SER111     -0.1202
     32  CA       -65.8830   10.5170  146.7300 C.3   111  SER111      0.2020
     33  C        -64.6220    9.6720  147.0010 C.2   111  SER111      0.2618
     34  O        -64.7420    8.5430  147.4700 O.2   111  SER111     -0.2717
     35  CB       -65.5150   11.8390  146.0550 C.3   111  SER111      0.2103
     36  OG       -65.3900   11.6650  144.6540 O.3   111  SER111     -0.2182
     37  N        -63.4280   10.2020  146.7070 N.am  112  GLN112     -0.1979
     38  CA       -62.1960    9.4740  147.0350 C.3   112  GLN112      0.1601
     39  C        -62.1800    9.1110  148.5320 C.2   112  GLN112      0.2287
     40  O        -61.7730    8.0060  148.9180 O.2   112  GLN112     -0.2864
     41  CB       -60.9420   10.2840  146.6480 C.3   112  GLN112      0.0394
     42  CG       -59.6680    9.6030  147.1370 C.3   112  GLN112      0.0908
     43  CD       -58.3670   10.1870  146.6010 C.2   112  GLN112      0.2608
     44  OE1      -57.2910    9.7610  147.0260 O.2   112  GLN112     -0.2717
     45  NE2      -58.4480   11.1390  145.6670 N.am  112  GLN112     -0.0878
     46  N        -64.3870    6.1070  149.1490 N.3   115  VAL115     -0.1245
     47  CA       -63.6940    4.8660  148.8130 C.3   115  VAL115      0.1561
     48  C        -62.8200    4.4610  149.9940 C.2   115  VAL115      0.2260
     49  O        -62.8460    3.3150  150.4550 O.2   115  VAL115     -0.2867
     50  CB       -62.8610    5.0190  147.5180 C.3   115  VAL115      0.0252
     51  CG1      -61.9990    3.7870  147.2930 C.3   115  VAL115      0.0019
     52  CG2      -63.8030    5.2380  146.3320 C.3   115  VAL115      0.0019
     53  N        -66.9480    5.2840  145.0470 N.3   145  GLY145     -0.1225
     54  CA       -66.5410    4.6980  143.7830 C.3   145  GLY145      0.1811
     55  C        -66.6360    3.1810  143.7260 C.2   145  GLY145      0.2280
     56  O        -66.6160    2.6080  142.6360 O.2   145  GLY145     -0.2866
     57  N        -67.9320    3.3330  139.7390 N.3   164  ALA164     -0.1231
     58  CA       -67.0360    3.2810  138.5880 C.3   164  ALA164      0.1694
     59  C        -65.9490    2.2190  138.7770 C.2   164  ALA164      0.2591
     60  O        -65.5410    1.5850  137.8120 O.2   164  ALA164     -0.2718
     61  CB       -66.4060    4.6310  138.3420 C.3   164  ALA164      0.0304
     62  N        -65.4870    2.0230  140.0110 N.am  165  GLU165     -0.1979
     63  CA       -64.4210    1.0310  140.2510 C.3   165  GLU165      0.1602
     64  C        -64.9360   -0.3920  140.0930 C.2   165  GLU165      0.2287
     65  O        -64.1510   -1.3300  139.9800 O.2   165  GLU165     -0.2864
     66  CB       -63.8050    1.1930  141.6390 C.3   165  GLU165      0.0415
     67  CG       -63.0890    2.5090  141.8340 C.3   165  GLU165      0.1163
     68  CD       -62.0540    2.4460  142.9410 C.2   165  GLU165      0.3649
     69  OE1      -62.0240    3.3770  143.7740 O.co2 165  GLU165     -0.2457
     70  OE2      -61.2800    1.4610  142.9870 O.co2 165  GLU165     -0.2457
     71  N        -65.5520   -0.5770  135.9150 N.3   168  LEU168     -0.1245
     72  CA       -64.2700   -0.5700  135.1980 C.3   168  LEU168      0.1561
     73  C        -63.2230   -1.5550  135.7460 C.2   168  LEU168      0.2260
     74  O        -62.0610   -1.5080  135.3390 O.2   168  LEU168     -0.2867
     75  CB       -63.6830    0.8490  135.2120 C.3   168  LEU168      0.0270
     76  CG       -64.5810    1.9200  134.5810 C.3   168  LEU168      0.0019
     77  CD1      -64.0170    3.3140  134.7900 C.3   168  LEU168      0.0001
     78  CD2      -64.7740    1.6360  133.0970 C.3   168  LEU168      0.0001
     79  N        -60.9380   -3.3920  133.2070 N.3   171  VAL171     -0.1245
     80  CA       -60.4020   -2.6280  132.0890 C.3   171  VAL171      0.1561
     81  C        -58.8850   -2.5780  132.1330 C.2   171  VAL171      0.2260
     82  O        -58.3000   -2.2270  133.1560 O.2   171  VAL171     -0.2867
     83  CB       -60.9620   -1.1940  132.0670 C.3   171  VAL171      0.0252
     84  CG1      -60.3310   -0.3850  130.9440 C.3   171  VAL171      0.0019
     85  CG2      -62.4690   -1.2320  131.9040 C.3   171  VAL171      0.0019
     86  N        -55.7200    1.0290  132.8450 N.3   174  LEU174     -0.1245
     87  CA       -55.9950    2.0000  133.9110 C.3   174  LEU174      0.1561
     88  C        -55.0910    1.8190  135.1300 C.2   174  LEU174      0.2260
     89  O        -54.5500    2.7900  135.6650 O.2   174  LEU174     -0.2867
     90  CB       -57.4540    1.9220  134.3440 C.3   174  LEU174      0.0270
     91  CG       -58.4500    2.3180  133.2560 C.3   174  LEU174      0.0019
     92  CD1      -59.8450    2.3600  133.8400 C.3   174  LEU174      0.0001
     93  CD2      -58.0800    3.6540  132.6010 C.3   174  LEU174      0.0001
     94  N        -54.3200    4.4310  138.2430 N.3   179  LEU179     -0.1245
     95  CA       -55.6780    4.5000  138.7910 C.3   179  LEU179      0.1561
     96  C        -56.3610    3.1370  138.6890 C.2   179  LEU179      0.2260
     97  O        -57.1590    2.8630  137.7920 O.2   179  LEU179     -0.2867
     98  CB       -56.4670    5.6220  138.1050 C.3   179  LEU179      0.0270
     99  CG       -56.6450    5.6540  136.5860 C.3   179  LEU179      0.0019
    100  CD1      -58.1110    5.8790  136.1770 C.3   179  LEU179      0.0001
    101  CD2      -55.7490    6.7080  136.0040 C.3   179  LEU179      0.0001
    102  N        -58.8270    0.3070  139.2760 N.3   181  MET181     -0.1245
    103  CA       -60.2480    0.1390  139.5590 C.3   181  MET181      0.1570
    104  C        -60.4100   -1.1520  140.3500 C.2   181  MET181      0.2261
    105  O        -60.2790   -2.2420  139.7980 O.2   181  MET181     -0.2867
    106  CB       -61.0340    0.1210  138.2550 C.3   181  MET181      0.0387
    107  CG       -60.8460    1.3910  137.4090 C.3   181  MET181      0.0595
    108  SD       -61.6050    2.8830  138.1230 S.3   181  MET181     -0.1393
    109  CE       -60.2330    3.6280  139.0310 C.3   181  MET181      0.0692
    110  N        -69.2530    8.6450  139.2920 N.3   206  ILE206     -0.1245
    111  CA       -68.3500    8.0420  140.2670 C.3   206  ILE206      0.1561
    112  C        -68.9970    6.8570  140.9950 C.2   206  ILE206      0.2260
    113  O        -68.3740    5.8010  141.1710 O.2   206  ILE206     -0.2867
    114  CB       -67.8890    9.1050  141.2950 C.3   206  ILE206      0.0252
    115  CG1      -67.0030   10.1560  140.6100 C.3   206  ILE206      0.0019
    116  CG2      -67.1860    8.4710  142.4780 C.3   206  ILE206      0.0019
    117  CD1      -65.6210    9.6780  140.2870 C.3   206  ILE206      0.0001
    118  N        -69.7010    4.3660  129.4750 N.3   214  PHE214     -0.1241
    119  CA       -68.3790    4.1710  128.9300 C.3   214  PHE214      0.1605
    120  C        -68.3430    3.6750  127.4790 C.2   214  PHE214      0.2264
    121  O        -67.3180    3.3650  126.9930 O.2   214  PHE214     -0.2867
    122  CB       -67.5120    3.3130  129.8380 C.3   214  PHE214      0.0534
    123  CG       -67.4420    3.8200  131.2300 C.ar  214  PHE214     -0.0203
    124  CD1      -66.6460    4.8350  131.5500 C.ar  214  PHE214     -0.0042
    125  CD2      -68.2460    3.3070  132.1880 C.ar  214  PHE214     -0.0042
    126  CE1      -66.6180    5.3300  132.8180 C.ar  214  PHE214     -0.0003
    127  CE2      -68.2240    3.7880  133.4530 C.ar  214  PHE214     -0.0003
    128  CZ       -67.4080    4.7910  133.7710 C.ar  214  PHE214     -0.0000
    129  N        -68.3880    8.1510  126.0230 N.3   219  LEU219     -0.1245
    130  CA       -67.1440    8.3020  126.7750 C.3   219  LEU219      0.1561
    131  C        -66.5750    9.7310  126.8180 C.2   219  LEU219      0.2260
    132  O        -66.1110   10.1650  127.8670 O.2   219  LEU219     -0.2867
    133  CB       -66.0780    7.3420  126.2360 C.3   219  LEU219      0.0270
    134  CG       -64.8300    7.2570  127.1240 C.3   219  LEU219      0.0019
    135  CD1      -65.1990    6.8050  128.5250 C.3   219  LEU219      0.0001
    136  CD2      -63.8360    6.3060  126.5250 C.3   219  LEU219      0.0001
    137  N        -65.9500   11.4650  130.3710 N.3   223  LEU223     -0.1245
    138  CA       -64.6430   11.9800  130.7900 C.3   223  LEU223      0.1561
    139  C        -64.7230   13.4180  131.2810 C.2   223  LEU223      0.2260
    140  O        -64.1310   13.7640  132.3050 O.2   223  LEU223     -0.2867
    141  CB       -63.6270   11.8910  129.6490 C.3   223  LEU223      0.0270
    142  CG       -63.1680   10.5010  129.2260 C.3   223  LEU223      0.0019
    143  CD1      -62.1250   10.6130  128.1190 C.3   223  LEU223      0.0001
    144  CD2      -62.6180    9.7520  130.4210 C.3   223  LEU223      0.0001
    145  N        -66.3750   13.4200  134.7090 N.3   226  LEU226     -0.1245
    146  CA       -65.4580   12.9390  135.7380 C.3   226  LEU226      0.1561
    147  C        -64.3480   13.9490  136.0170 C.2   226  LEU226      0.2260
    148  O        -63.8350   14.0270  137.1350 O.2   226  LEU226     -0.2867
    149  CB       -64.8570   11.5910  135.3260 C.3   226  LEU226      0.0270
    150  CG       -65.8650   10.4370  135.2740 C.3   226  LEU226      0.0019
    151  CD1      -65.2470    9.1740  134.6810 C.3   226  LEU226      0.0001
    152  CD2      -66.4310   10.1680  136.6580 C.3   226  LEU226      0.0001
@<TRIPOS>BOND
     1   129   130    1
     2   133   130    1
     3   133   134    1
     4   136   134    1
     5   130   131    1
     6   131   132    2
     7   121   120    2
     8   134   135    1
     9   120   119    1
    10   143   142    1
    11   119   118    1
    12   119   122    1
    13   142   141    1
    14   142   144    1
    15   141   138    1
    16   122   123    1
    17   137   138    1
    18   138   139    1
    19    84    83    1
    20   123   124   ar
    21   123   125   ar
    22   139   140    2
    23   124   126   ar
    24    85    83    1
    25    83    80    1
    26    80    81    1
    27    80    79    1
    28    81    82    2
    29   125   127   ar
    30    93    91    1
    31   126   128   ar
    32    86    87    1
    33    78    76    1
    34    91    92    1
    35    91    90    1
    36   127   128   ar
    37    87    90    1
    38    87    88    1
    39    76    77    1
    40    76    75    1
    41   151   150    1
    42   145   146    1
    43    88    89    2
    44    72    75    1
    45    72    73    1
    46    72    71    1
    47   150   149    1
    48   150   152    1
    49   149   146    1
    50    74    73    2
    51   146   147    1
    52   101    99    1
    53   147   148    2
    54   100    99    1
    55    99    98    1
    56   107   108    1
    57   107   106    1
    58    97    96    2
    59    60    59    2
    60    98    95    1
    61   108   109    1
    62    94    95    1
    63   106   103    1
    64    61    58    1
    65    58    59    1
    66    58    57    1
    67    17    15   ar
    68    17    18   ar
    69    96    95    1
    70    59    62   am
    71    11    10    2
    72    15    13   ar
    73   102   103    1
    74    18    16   ar
    75   110   111    1
    76   103   104    1
    77   105   104    2
    78    10     9    1
    79    65    64    2
    80    62    63    1
    81    64    63    1
    82    63    66    1
    83   111   112    1
    84   111   114    1
    85   117   115    1
    86    13    14   ar
    87    13    12    1
    88    16    14   ar
    89   115   114    1
    90   112   113    2
    91    12     9    1
    92     9     8    1
    93   114   116    1
    94    23    24    1
    95    23    20    1
    96    19    20    1
    97    66    67    1
    98    67    68    1
    99    26    24   ar
   100    26    28   ar
   101    24    25   ar
   102    20    21    1
   103    56    55    2
   104    28    29   ar
   105    68    70   ar
   106    68    69   ar
   107    21    22    2
   108    25    27   ar
   109    55    54    1
   110    54    53    1
   111    29    27   ar
   112    29    30    1
   113     7     5    1
   114     5     6    1
   115     5     2    1
   116    36    35    1
   117    45    43   am
   118     4     3    2
   119     2     3    1
   120     2     1    1
   121    35    32    1
   122    52    50    1
   123    43    44    2
   124    43    42    1
   125    41    38    1
   126    41    42    1
   127    37    33   am
   128    37    38    1
   129    32    33    1
   130    32    31    1
   131    33    34    2
   132    38    39    1
   133    51    50    1
   134    50    47    1
   135    39    40    2
   136    47    46    1
   137    47    48    1
   138    48    49    2
