@<TRIPOS>MOLECULE
tmp/5w97B01.pdb
 107 103 0 0 0
SMALL
GASTEIGER

@<TRIPOS>ATOM
      1  N          6.6750   48.9870  -13.2980 N.3     2  TYR2       -0.1241
      2  CA         6.7830   50.4140  -13.6070 C.3     2  TYR2        0.1605
      3  C          5.3870   51.0970  -13.5500 C.2     2  TYR2        0.2264
      4  O          4.3560   50.4200  -13.5610 O.2     2  TYR2       -0.2867
      5  CB         7.3600   50.5960  -15.0060 C.3     2  TYR2        0.0534
      6  CG         6.7110   49.7150  -16.0690 C.ar    2  TYR2       -0.0201
      7  CD1        5.5790   50.1280  -16.7730 C.ar    2  TYR2       -0.0009
      8  CD2        7.2390   48.4670  -16.3640 C.ar    2  TYR2       -0.0009
      9  CE1        5.0080   49.3100  -17.7620 C.ar    2  TYR2        0.0417
     10  CE2        6.6700   47.6430  -17.3410 C.ar    2  TYR2        0.0417
     11  CZ         5.5550   48.0650  -18.0450 C.ar    2  TYR2        0.1957
     12  OH         4.9910   47.2160  -18.9970 O.3     2  TYR2       -0.2866
     13  N          1.7450   52.8850  -14.1510 N.3     4  MET4       -0.1245
     14  CA         0.6290   52.5770  -15.0010 C.3     4  MET4        0.1570
     15  C          0.7840   51.2590  -15.7290 C.2     4  MET4        0.2261
     16  O          0.2420   51.0930  -16.8400 O.2     4  MET4       -0.2867
     17  CB         0.3860   53.6600  -16.0230 C.3     4  MET4        0.0387
     18  CG        -0.1820   54.9240  -15.4680 C.3     4  MET4        0.0595
     19  SD        -0.4490   56.0970  -16.8310 S.3     4  MET4       -0.1393
     20  CE        -1.8670   55.3280  -17.6360 C.3     4  MET4        0.0692
     21  N         -0.0470   47.6780  -17.0270 N.3     6  LEU6       -0.1231
     22  CA        -1.2910   46.9260  -17.2300 C.3     6  LEU6        0.1693
     23  C         -1.1310   45.4080  -17.1080 C.2     6  LEU6        0.2593
     24  O         -1.9800   44.7360  -16.5490 O.2     6  LEU6       -0.2718
     25  CB        -1.8810   47.2470  -18.6070 C.3     6  LEU6        0.0284
     26  CG        -2.3570   48.6710  -18.8610 C.3     6  LEU6        0.0019
     27  CD1       -3.1000   48.6670  -20.1640 C.3     6  LEU6        0.0001
     28  CD2       -3.2690   49.2090  -17.7740 C.3     6  LEU6        0.0001
     29  N         -0.0500   44.8730  -17.6550 N.am    7  GLY7       -0.1942
     30  CA         0.1420   43.4160  -17.7590 C.3     7  GLY7        0.2014
     31  C          1.3200   42.9130  -16.9550 C.2     7  GLY7        0.2638
     32  O          1.7120   43.5160  -15.9420 O.2     7  GLY7       -0.2714
     33  N          1.8670   41.7900  -17.3960 N.am    8  PHE8       -0.1973
     34  CA         2.9630   41.1640  -16.6890 C.3     8  PHE8        0.1639
     35  C          4.2510   41.9600  -16.8610 C.2     8  PHE8        0.2290
     36  O          4.4820   42.5780  -17.9040 O.2     8  PHE8       -0.2864
     37  CB         3.1980   39.7400  -17.2010 C.3     8  PHE8        0.0560
     38  CG         2.2060   38.7190  -16.7030 C.ar    8  PHE8       -0.0200
     39  CD1        2.0300   38.5060  -15.3530 C.ar    8  PHE8       -0.0042
     40  CD2        1.5050   37.9210  -17.5830 C.ar    8  PHE8       -0.0042
     41  CE1        1.1200   37.5700  -14.8820 C.ar    8  PHE8       -0.0003
     42  CE2        0.6110   36.9440  -17.1240 C.ar    8  PHE8       -0.0003
     43  CZ         0.4160   36.7600  -15.7680 C.ar    8  PHE8       -0.0000
     44  N         -0.7610   33.2350  -21.4430 N.3    23  HIS23      -0.1226
     45  CA        -1.7360   34.1980  -20.9390 C.3    23  HIS23       0.1752
     46  C         -2.4700   34.8980  -22.0530 C.2    23  HIS23       0.2596
     47  O         -3.6300   35.2010  -21.9100 O.2    23  HIS23      -0.2718
     48  CB        -1.0970   35.2560  -20.0340 C.3    23  HIS23       0.0759
     49  CG        -2.0890   36.1990  -19.4400 C.ar   23  HIS23       0.0818
     50  ND1       -2.1250   37.5380  -19.7530 N.ar   23  HIS23      -0.2268
     51  CD2       -3.1140   35.9880  -18.5820 C.ar   23  HIS23       0.1154
     52  CE1       -3.0880   38.1240  -19.0670 C.ar   23  HIS23       0.1986
     53  NE2       -3.6960   37.2100  -18.3350 N.ar   23  HIS23      -0.2212
     54  N         -1.7810   35.1840  -23.1510 N.am   24  ASP24      -0.1974
     55  CA        -2.3830   35.9110  -24.2840 C.3    24  ASP24       0.1709
     56  C         -3.4160   35.0220  -24.9680 C.2    24  ASP24       0.2293
     57  O         -4.4660   35.5020  -25.3840 O.2    24  ASP24      -0.2864
     58  CB        -1.3100   36.3460  -25.3080 C.3    24  ASP24       0.1436
     59  CG        -0.5280   37.5800  -24.8730 C.2    24  ASP24       0.3671
     60  OD1       -0.8920   38.2650  -23.9030 O.co2  24  ASP24      -0.2456
     61  OD2        0.4790   37.8740  -25.5290 O.co2  24  ASP24      -0.2456
     62  N         -6.4260   34.9140  -22.4940 N.3    27  LEU27      -0.1245
     63  CA        -7.1370   36.1840  -22.4430 C.3    27  LEU27       0.1561
     64  C         -7.9270   36.4600  -23.7480 C.2    27  LEU27       0.2260
     65  O         -9.0090   37.0600  -23.7280 O.2    27  LEU27      -0.2867
     66  CB        -6.1280   37.3060  -22.1660 C.3    27  LEU27       0.0270
     67  CG        -6.6900   38.6690  -21.7860 C.3    27  LEU27       0.0019
     68  CD1       -7.5140   38.5140  -20.5120 C.3    27  LEU27       0.0001
     69  CD2       -5.5950   39.7000  -21.5730 C.3    27  LEU27       0.0001
     70  N        -11.0120   34.6250  -23.0740 N.3    30  VAL30      -0.1231
     71  CA       -11.7680   35.4060  -22.0940 C.3    30  VAL30       0.1692
     72  C        -12.4960   36.5480  -22.8030 C.2    30  VAL30       0.2592
     73  O        -13.6870   36.7790  -22.5490 O.2    30  VAL30      -0.2718
     74  CB       -10.8690   35.9340  -20.9640 C.3    30  VAL30       0.0266
     75  CG1      -11.5780   36.9770  -20.1250 C.3    30  VAL30       0.0020
     76  CG2      -10.4510   34.7970  -20.0730 C.3    30  VAL30       0.0020
     77  N        -11.7770   37.2380  -23.7020 N.am   31  PHE31      -0.1976
     78  CA       -12.3390   38.3680  -24.4430 C.3    31  PHE31       0.1639
     79  C        -13.4240   37.9210  -25.4040 C.2    31  PHE31       0.2290
     80  O        -14.3980   38.6560  -25.5820 O.2    31  PHE31      -0.2864
     81  CB       -11.2740   39.1770  -25.2080 C.3    31  PHE31       0.0560
     82  CG       -10.4640   40.1200  -24.3420 C.ar   31  PHE31      -0.0200
     83  CD1      -11.0600   40.9050  -23.3500 C.ar   31  PHE31      -0.0042
     84  CD2       -9.0970   40.2570  -24.5480 C.ar   31  PHE31      -0.0042
     85  CE1      -10.2930   41.7690  -22.5600 C.ar   31  PHE31      -0.0003
     86  CE2       -8.3450   41.1130  -23.7760 C.ar   31  PHE31      -0.0003
     87  CZ        -8.9310   41.8620  -22.7770 C.ar   31  PHE31      -0.0000
     88  N        -16.6060   36.9540  -23.0320 N.3    34  SER34      -0.1202
     89  CA       -17.2870   38.0660  -22.3630 C.3    34  SER34       0.2020
     90  C        -17.9670   39.0130  -23.3620 C.2    34  SER34       0.2619
     91  O        -19.0440   39.5170  -23.0880 O.2    34  SER34      -0.2717
     92  CB       -16.3350   38.8220  -21.4300 C.3    34  SER34       0.2103
     93  OG       -15.1860   39.1990  -22.1240 O.3    34  SER34      -0.2182
     94  N        -17.3610   39.2250  -24.5280 N.am   35  SER35      -0.1951
     95  CA       -17.9780   40.0740  -25.5450 C.3    35  SER35       0.1924
     96  C        -19.2090   39.3900  -26.1510 C.2    35  SER35       0.2314
     97  O        -20.2100   40.0530  -26.4310 O.2    35  SER35      -0.2863
     98  CB       -16.9760   40.4770  -26.6160 C.3    35  SER35       0.2116
     99  OG       -16.6110   39.3630  -27.3900 O.3    35  SER35      -0.2180
    100  N        -22.0550   39.6730  -23.6450 N.3    38  LEU38      -0.1245
    101  CA       -22.5480   41.0570  -23.5640 C.3    38  LEU38       0.1561
    102  C        -23.3900   41.4070  -24.7910 C.2    38  LEU38       0.2260
    103  O        -24.3730   42.1150  -24.7040 O.2    38  LEU38      -0.2867
    104  CB       -21.3630   42.0160  -23.4860 C.3    38  LEU38       0.0270
    105  CG       -21.6790   43.4960  -23.3590 C.3    38  LEU38       0.0019
    106  CD1      -22.4900   43.7590  -22.1140 C.3    38  LEU38       0.0001
    107  CD2      -20.3850   44.2650  -23.2730 C.3    38  LEU38       0.0001
@<TRIPOS>BOND
     1    99    98    1
     2    98    95    1
     3    97    96    2
     4    96    95    1
     5    80    79    2
     6    95    94    1
     7    61    59   ar
     8    79    78    1
     9    57    56    2
    10    58    59    1
    11    58    55    1
    12    81    78    1
    13    81    82    1
    14    56    55    1
    15    59    60   ar
    16   102   103    2
    17   102   101    1
    18    84    82   ar
    19    84    86   ar
    20    94    90   am
    21    78    77    1
    22    82    83   ar
    23    55    54    1
    24    86    87   ar
    25    64    65    2
    26    64    63    1
    27    77    72   am
    28   100   101    1
    29   101   104    1
    30   104   105    1
    31    90    91    2
    32    90    89    1
    33   105   107    1
    34   105   106    1
    35    83    85   ar
    36    54    46   am
    37    70    71    1
    38    88    89    1
    39    72    73    2
    40    72    71    1
    41    87    85   ar
    42    62    63    1
    43    63    66    1
    44    89    92    1
    45    66    67    1
    46    93    92    1
    47    71    74    1
    48    46    47    2
    49    46    45    1
    50    67    69    1
    51    67    68    1
    52    44    45    1
    53    74    75    1
    54    74    76    1
    55    45    48    1
    56    27    26    1
    57    48    49    1
    58    50    49   ar
    59    50    52   ar
    60    49    51   ar
    61    52    53   ar
    62    12    11    1
    63    26    25    1
    64    26    28    1
    65    25    22    1
    66    51    53   ar
    67    11     9   ar
    68    11    10   ar
    69    36    35    2
    70     9     7   ar
    71    30    29    1
    72    30    31    1
    73    29    23   am
    74    20    19    1
    75    40    42   ar
    76    40    38   ar
    77    33    31   am
    78    33    34    1
    79    10     8   ar
    80    22    23    1
    81    22    21    1
    82    37    38    1
    83    37    34    1
    84    42    43   ar
    85    23    24    2
    86    31    32    2
    87    35    34    1
    88    16    15    2
    89    19    18    1
    90     7     6   ar
    91    38    39   ar
    92     8     6   ar
    93     6     5    1
    94    17    18    1
    95    17    14    1
    96    43    41   ar
    97    15    14    1
    98    39    41   ar
    99     5     2    1
   100    14    13    1
   101     2     3    1
   102     2     1    1
   103     4     3    2
