@<TRIPOS>MOLECULE
tmp/5w99A00.pdb
 163 156 0 0 0
SMALL
GASTEIGER

@<TRIPOS>ATOM
      1  N         12.0710    1.2150    3.1810 N.3   168  GLU168     -0.1231
      2  CA        12.3220    1.5170    4.5710 C.3   168  GLU168      0.1699
      3  C         13.5000    2.5370    4.6660 C.2   168  GLU168      0.2592
      4  O         14.5530    2.4420    3.9700 O.2   168  GLU168     -0.2718
      5  CB        12.5330    0.2540    5.4060 C.3   168  GLU168      0.0402
      6  CG        11.2940    0.0250    6.2780 C.3   168  GLU168      0.1161
      7  CD        11.7030   -0.3890    7.6510 C.2   168  GLU168      0.3649
      8  OE1       12.0970   -1.5490    7.7900 O.co2 168  GLU168     -0.2457
      9  OE2       11.6840    0.4510    8.5650 O.co2 168  GLU168     -0.2457
     10  N         13.2440    3.5580    5.4360 N.am  169  GLY169     -0.1957
     11  CA        14.1980    4.6120    5.6370 C.3   169  GLY169      0.1869
     12  C         14.0590    5.6800    4.5670 C.2   169  GLY169      0.2309
     13  O         14.7620    6.6990    4.6530 O.2   169  GLY169     -0.2863
     14  N         17.0240    7.9240    1.5940 N.3   172  THR172     -0.1203
     15  CA        18.3770    7.6050    2.0380 C.3   172  THR172      0.1994
     16  C         18.5700    6.1690    2.4480 C.2   172  THR172      0.2618
     17  O         19.6790    5.8070    2.8230 O.2   172  THR172     -0.2717
     18  CB        18.9010    8.5570    3.1440 C.3   172  THR172      0.1784
     19  OG1       18.0780    8.4240    4.2830 O.3   172  THR172     -0.2211
     20  CG2       18.9330    9.9760    2.6950 C.3   172  THR172      0.0376
     21  N         17.5020    5.3730    2.3700 N.am  173  GLY173     -0.1942
     22  CA        17.5780    3.9020    2.4050 C.3   173  GLY173      0.2014
     23  C         17.4890    3.3270    1.0190 C.2   173  GLY173      0.2639
     24  O         18.3600    2.5500    0.5510 O.2   173  GLY173     -0.2714
     25  N         16.4030    3.6590    0.3240 N.am  174  GLY174     -0.1954
     26  CA        16.1160    3.0080   -0.9710 C.3   174  GLY174      0.1869
     27  C         17.1450    3.2560   -2.0740 C.2   174  GLY174      0.2309
     28  O         17.3230    2.4330   -2.9580 O.2   174  GLY174     -0.2863
     29  N         20.2890    2.9290   -2.0180 N.3   176  VAL176     -0.1231
     30  CA        21.3930    1.9550   -2.0730 C.3   176  VAL176      0.1692
     31  C         21.0930    0.9190   -3.1740 C.2   176  VAL176      0.2592
     32  O         21.9860    0.4550   -3.9030 O.2   176  VAL176     -0.2718
     33  CB        21.5700    1.2720   -0.6890 C.3   176  VAL176      0.0266
     34  CG1       22.6520    0.2060   -0.7410 C.3   176  VAL176      0.0020
     35  CG2       21.8720    2.3130    0.3880 C.3   176  VAL176      0.0020
     36  N         19.8070    0.6230   -3.3840 N.am  177  SER177     -0.1952
     37  CA        19.4180   -0.2700   -4.4640 C.3   177  SER177      0.1924
     38  C         19.8440    0.2740   -5.8510 C.2   177  SER177      0.2314
     39  O         20.1970   -0.4800   -6.7580 O.2   177  SER177     -0.2863
     40  CB        17.8910   -0.6090   -4.4700 C.3   177  SER177      0.2116
     41  OG        17.5460   -1.2740   -3.2570 O.3   177  SER177     -0.2180
     42  N         23.4420   -0.3750   -6.3650 N.3   180  SER180     -0.1202
     43  CA        23.5850   -1.7940   -6.5790 C.3   180  SER180      0.2020
     44  C         23.2840   -2.1510   -8.0250 C.2   180  SER180      0.2618
     45  O         24.0290   -2.8650   -8.6990 O.2   180  SER180     -0.2717
     46  CB        22.6340   -2.5930   -5.6520 C.3   180  SER180      0.2103
     47  OG        22.7510   -3.9560   -5.9710 O.3   180  SER180     -0.2182
     48  N         22.1950   -1.6170   -8.5400 N.am  181  HIS181     -0.1975
     49  CA        21.7910   -1.9690   -9.8900 C.3   181  HIS181      0.1656
     50  C         22.7160   -1.4030  -10.9530 C.2   181  HIS181      0.2291
     51  O         23.0580   -2.1070  -11.9360 O.2   181  HIS181     -0.2864
     52  CB        20.3180   -1.6060  -10.1940 C.3   181  HIS181      0.0771
     53  CG        19.3490   -2.1920   -9.1920 C.ar  181  HIS181      0.0820
     54  ND1       18.0260   -1.7670   -9.0510 N.ar  181  HIS181     -0.2267
     55  CD2       19.5610   -3.0980   -8.2100 C.ar  181  HIS181      0.1154
     56  CE1       17.4840   -2.4000   -8.0270 C.ar  181  HIS181      0.1986
     57  NE2       18.3730   -3.2510   -7.5260 N.ar  181  HIS181     -0.2212
     58  N         31.3760   -3.0360   -4.7140 N.3   250  PHE250     -0.1241
     59  CA        30.1400   -2.8510   -3.9510 C.3   250  PHE250      0.1605
     60  C         29.5390   -4.1610   -3.4880 C.2   250  PHE250      0.2264
     61  O         29.1050   -4.2560   -2.3290 O.2   250  PHE250     -0.2867
     62  CB        29.1230   -2.0600   -4.8200 C.3   250  PHE250      0.0534
     63  CG        27.8210   -1.8090   -4.1570 C.ar  250  PHE250     -0.0203
     64  CD1       27.5960   -0.6840   -3.4010 C.ar  250  PHE250     -0.0042
     65  CD2       26.8010   -2.7200   -4.3290 C.ar  250  PHE250     -0.0042
     66  CE1       26.3980   -0.5000   -2.7490 C.ar  250  PHE250     -0.0003
     67  CE2       25.5590   -2.5100   -3.6990 C.ar  250  PHE250     -0.0003
     68  CZ        25.3680   -1.3990   -2.9000 C.ar  250  PHE250     -0.0000
     69  N         28.9300   -5.8460    0.2740 N.3   254  LEU254     -0.1245
     70  CA        27.6190   -6.1600    0.7310 C.3   254  LEU254      0.1561
     71  C         27.5670   -7.5810    1.2490 C.2   254  LEU254      0.2260
     72  O         26.9980   -7.8600    2.3170 O.2   254  LEU254     -0.2867
     73  CB        26.6710   -5.9380   -0.4610 C.3   254  LEU254      0.0270
     74  CG        25.2290   -5.9010   -0.2710 C.3   254  LEU254      0.0019
     75  CD1       24.8250   -4.6890    0.5940 C.3   254  LEU254      0.0001
     76  CD2       24.5670   -5.8270   -1.6440 C.3   254  LEU254      0.0001
     77  N         28.5770   -7.9950    4.8520 N.3   257  ASN257     -0.1240
     78  CA        27.9220   -7.0950    5.7960 C.3   257  ASN257      0.1653
     79  C         26.7880   -7.8990    6.3860 C.2   257  ASN257      0.2266
     80  O         25.8070   -8.2130    5.6860 O.2   257  ASN257     -0.2867
     81  CB        27.4710   -5.8370    5.0340 C.3   257  ASN257      0.1155
     82  CG        26.7170   -4.8460    5.9160 C.2   257  ASN257      0.2627
     83  OD1       26.0620   -5.2310    6.8850 O.2   257  ASN257     -0.2716
     84  ND2       26.7270   -3.5440    5.5180 N.am  257  ASN257     -0.0877
     85  N         24.4100   -7.0510    8.3750 N.3   259  THR259     -0.1203
     86  CA        23.1260   -6.3430    8.3690 C.3   259  THR259      0.1994
     87  C         22.4040   -6.5500    7.0580 C.2   259  THR259      0.2617
     88  O         21.1690   -6.6990    7.0180 O.2   259  THR259     -0.2717
     89  CB        23.3410   -4.8360    8.6420 C.3   259  THR259      0.1784
     90  OG1       23.9140   -4.6750    9.9690 O.3   259  THR259     -0.2211
     91  CG2       22.0210   -4.0680    8.5390 C.3   259  THR259      0.0376
     92  N         23.1850   -6.6030    6.0080 N.am  260  TRP260     -0.1975
     93  CA        22.5560   -6.9600    4.6790 C.3   260  TRP260      0.1640
     94  C         21.8460   -8.2980    4.7630 C.2   260  TRP260      0.2290
     95  O         20.6770   -8.4530    4.4000 O.2   260  TRP260     -0.2864
     96  CB        23.5930   -6.9330    3.5410 C.3   260  TRP260      0.0576
     97  CG        23.2200   -7.7190    2.3190 C.ar  260  TRP260      0.0006
     98  CD1       23.7830   -8.8740    1.9020 C.ar  260  TRP260      0.0946
     99  CD2       22.2220   -7.3880    1.3420 C.ar  260  TRP260      0.0152
    100  NE1       23.2150   -9.2740    0.7050 N.ar  260  TRP260     -0.2442
    101  CE2       22.2570   -8.3920    0.3470 C.ar  260  TRP260      0.0810
    102  CE3       21.3210   -6.3500    1.2200 C.ar  260  TRP260      0.0012
    103  CZ2       21.4130   -8.3820   -0.7860 C.ar  260  TRP260      0.0191
    104  CZ3       20.4500   -6.3520    0.0940 C.ar  260  TRP260      0.0001
    105  CH2       20.4870   -7.3860   -0.8520 C.ar  260  TRP260      0.0015
    106  N         18.2110   -6.6730    5.9050 N.3   264  VAL264     -0.1245
    107  CA        17.8060   -6.0950    4.6010 C.3   264  VAL264      0.1561
    108  C         17.2160   -7.1860    3.6990 C.2   264  VAL264      0.2260
    109  O         15.9680   -7.2710    3.4930 O.2   264  VAL264     -0.2867
    110  CB        18.9410   -5.2780    3.9020 C.3   264  VAL264      0.0252
    111  CG1       18.3900   -4.6330    2.6080 C.3   264  VAL264      0.0019
    112  CG2       19.4820   -4.1900    4.8130 C.3   264  VAL264      0.0019
    113  N         11.9080   -4.9520    2.6450 N.3   270  PHE270     -0.1241
    114  CA        12.8380   -4.8250    1.4430 C.3   270  PHE270      0.1605
    115  C         12.2600   -5.6020    0.2660 C.2   270  PHE270      0.2264
    116  O         12.3600   -5.1640   -0.8920 O.2   270  PHE270     -0.2867
    117  CB        14.2130   -5.3300    1.7960 C.3   270  PHE270      0.0534
    118  CG        15.1920   -5.3400    0.6460 C.ar  270  PHE270     -0.0203
    119  CD1       15.7180   -4.1580    0.1450 C.ar  270  PHE270     -0.0042
    120  CD2       15.5910   -6.5370    0.0700 C.ar  270  PHE270     -0.0042
    121  CE1       16.6260   -4.2090   -0.9290 C.ar  270  PHE270     -0.0003
    122  CE2       16.5130   -6.5970   -0.9460 C.ar  270  PHE270     -0.0003
    123  CZ        17.0170   -5.4070   -1.4380 C.ar  270  PHE270     -0.0000
    124  N          9.5880   -3.3780   -1.2220 N.3   273  TYR273     -0.1227
    125  CA        10.2680   -2.2990   -1.9570 C.3   273  TYR273      0.1736
    126  C         10.7820   -2.8200   -3.3050 C.2   273  TYR273      0.2595
    127  O         10.5850   -2.1610   -4.3490 O.2   273  TYR273     -0.2718
    128  CB        11.4040   -1.6870   -1.1330 C.3   273  TYR273      0.0548
    129  CG        12.2570   -0.7100   -1.9040 C.ar  273  TYR273     -0.0200
    130  CD1       11.7330    0.3090   -2.6170 C.ar  273  TYR273     -0.0009
    131  CD2       13.6400   -0.8430   -1.8990 C.ar  273  TYR273     -0.0009
    132  CE1       12.5560    1.2000   -3.3510 C.ar  273  TYR273      0.0417
    133  CE2       14.4600    0.0530   -2.5410 C.ar  273  TYR273      0.0417
    134  CZ        13.9150    1.0580   -3.2910 C.ar  273  TYR273      0.1957
    135  OH        14.7350    1.9660   -3.9950 O.3   273  TYR273     -0.2866
    136  N         11.4920   -3.9520   -3.2820 N.am  274  ARG274     -0.1980
    137  CA        12.0770   -4.4590   -4.5050 C.3   274  ARG274      0.1597
    138  C         11.0340   -4.8400   -5.5450 C.2   274  ARG274      0.2287
    139  O         11.2400   -4.5970   -6.7440 O.2   274  ARG274     -0.2864
    140  CB        13.0460   -5.5440   -4.2190 C.3   274  ARG274      0.0334
    141  CG        14.3980   -5.0020   -3.6630 C.3   274  ARG274      0.0492
    142  CD        15.2560   -4.2280   -4.6690 C.3   274  ARG274      0.2205
    143  NE        15.8090   -5.0900   -5.7180 N.pl3 274  ARG274     -0.0865
    144  CZ        15.4270   -5.1670   -6.9880 C.cat 274  ARG274      0.5346
    145  NH1       14.3590   -4.4270   -7.4610 N.pl3 274  ARG274      0.1354
    146  NH2       16.1610   -5.9620   -7.8430 N.pl3 274  ARG274      0.1354
    147  N         27.7040    2.5490    3.1110 N.3   316  ILE316     -0.1231
    148  CA        26.6210    1.8300    3.7810 C.3   316  ILE316      0.1692
    149  C         26.8880    0.3530    3.5420 C.2   316  ILE316      0.2591
    150  O         26.7900   -0.4710    4.4630 O.2   316  ILE316     -0.2718
    151  CB        25.1990    2.2750    3.2730 C.3   316  ILE316      0.0266
    152  CG1       24.8700    3.6510    3.8640 C.3   316  ILE316      0.0019
    153  CG2       24.1400    1.2500    3.6770 C.3   316  ILE316      0.0020
    154  CD1       23.7400    4.3610    3.0720 C.3   316  ILE316      0.0001
    155  N         27.1780   -0.0170    2.3050 N.am  317  ALA317     -0.1980
    156  CA        27.4130   -1.4550    2.0010 C.3   317  ALA317      0.1597
    157  C         28.5420   -2.0330    2.8220 C.2   317  ALA317      0.2287
    158  O         28.4820   -3.1990    3.2230 O.2   317  ALA317     -0.2864
    159  CB        27.6390   -1.7230    0.5190 C.3   317  ALA317      0.0319
    160  N         29.7240   -1.0670    5.7630 N.3   319  GLY319     -0.1225
    161  CA        29.2260   -1.2410    7.1280 C.3   319  GLY319      0.1811
    162  C         30.2540   -0.9420    8.2150 C.2   319  GLY319      0.2280
    163  O         31.2950   -0.3430    7.9000 O.2   319  GLY319     -0.2866
@<TRIPOS>BOND
     1    51    50    2
     2    50    49    1
     3    52    49    1
     4    52    53    1
     5    49    48    1
     6    53    54   ar
     7    53    55   ar
     8    54    56   ar
     9    45    44    2
    10    48    44   am
    11    55    57   ar
    12    56    57   ar
    13    44    43    1
    14   146   144    1
    15   145   144    1
    16   144   143    2
    17    39    38    2
    18   139   138    2
    19    43    42    1
    20    43    46    1
    21    47    46    1
    22    38    37    1
    23   143   142    1
    24   138   137    1
    25    62    63    1
    26    62    59    1
    27    58    59    1
    28   142   141    1
    29   137   140    1
    30   137   136    1
    31    40    37    1
    32    40    41    1
    33    37    36    1
    34   127   126    2
    35    65    63   ar
    36    65    67   ar
    37   140   141    1
    38    63    64   ar
    39   135   134    1
    40    59    60    1
    41    32    31    2
    42    67    68   ar
    43    60    61    2
    44    64    66   ar
    45    36    31   am
    46   132   134   ar
    47   132   130   ar
    48   126   136   am
    49   126   125    1
    50   134   133   ar
    51    31    30    1
    52    28    27    2
    53    68    66   ar
    54   130   129   ar
    55   133   131   ar
    56    27    26    1
    57    30    29    1
    58    30    33    1
    59   125   124    1
    60   125   128    1
    61   129   131   ar
    62   129   128    1
    63    76    74    1
    64   123   122   ar
    65   123   121   ar
    66    26    25    1
    67   122   120   ar
    68   121   119   ar
    69   116   115    2
    70   105   103   ar
    71   105   104   ar
    72   103   101   ar
    73    34    33    1
    74    33    35    1
    75    73    74    1
    76    73    70    1
    77    74    75    1
    78   120   118   ar
    79   104   102   ar
    80   119   118   ar
    81   115   114    1
    82    69    70    1
    83    25    23   am
    84   101   100   ar
    85   101    99   ar
    86   159   156    1
    87    24    23    2
    88   118   117    1
    89   100    98   ar
    90    70    71    1
    91    23    22    1
    92   102    99   ar
    93    71    72    2
    94    99    97   ar
    95   114   117    1
    96   114   113    1
    97    14    15    1
    98    98    97   ar
    99   156   155    1
   100   156   157    1
   101    15    16    1
   102    15    18    1
   103   155   149   am
   104    97    96    1
   105    21    22    1
   106    21    16   am
   107    16    17    2
   108   111   110    1
   109    20    18    1
   110   157   158    2
   111   154   152    1
   112   147   148    1
   113    18    19    1
   114     1     2    1
   115   151   153    1
   116   151   148    1
   117   151   152    1
   118   109   108    2
   119    96    93    1
   120   149   148    1
   121   149   150    2
   122   108   107    1
   123   110   107    1
   124   110   112    1
   125     4     3    2
   126    95    94    2
   127    12    13    2
   128    12    11    1
   129     2     3    1
   130     2     5    1
   131   107   106    1
   132     3    10   am
   133    93    94    1
   134    93    92    1
   135    77    78    1
   136    81    78    1
   137    81    82    1
   138     5     6    1
   139    10    11    1
   140    84    82   am
   141    80    79    2
   142   160   161    1
   143    78    79    1
   144    82    83    2
   145    92    87   am
   146     6     7    1
   147    88    87    2
   148    87    86    1
   149   161   162    1
   150     7     8   ar
   151     7     9   ar
   152   163   162    2
   153    86    85    1
   154    86    89    1
   155    91    89    1
   156    89    90    1
