@<TRIPOS>MOLECULE
tmp/5w9eA00.pdb
 170 160 0 0 0
SMALL
GASTEIGER

@<TRIPOS>ATOM
      1  N         -0.9790  -14.5240   98.3560 N.3    14  LEU14      -0.1231
      2  CA        -0.9650  -14.9890   96.9640 C.3    14  LEU14       0.1693
      3  C         -1.0960  -13.8040   95.9910 C.2    14  LEU14       0.2593
      4  O         -0.4450  -13.7990   94.9450 O.2    14  LEU14      -0.2718
      5  CB        -2.0880  -16.0120   96.7150 C.3    14  LEU14       0.0284
      6  CG        -1.9210  -17.3550   97.4380 C.3    14  LEU14       0.0019
      7  CD1       -3.2320  -18.1090   97.4960 C.3    14  LEU14       0.0001
      8  CD2       -0.8490  -18.2120   96.7760 C.3    14  LEU14       0.0001
      9  N         -1.9180  -12.8170   96.3450 N.am   15  GLY15      -0.1942
     10  CA        -2.0980  -11.6210   95.5280 C.3    15  GLY15       0.2014
     11  C         -3.3520  -10.8350   95.8470 C.2    15  GLY15       0.2639
     12  O         -4.0160  -11.0930   96.8530 O.2    15  GLY15      -0.2714
     13  N         -3.6690   -9.8520   94.9870 N.am   16  LYS16      -0.1963
     14  CA        -4.8370   -8.9820   95.1390 C.3    16  LYS16       0.1728
     15  C         -5.8400   -9.2820   94.0290 C.2    16  LYS16       0.2616
     16  O         -5.4710   -9.3100   92.8540 O.2    16  LYS16      -0.2715
     17  CB        -4.4040   -7.4990   95.0900 C.3    16  LYS16       0.0311
     18  CG        -5.5370   -6.4710   95.2550 C.3    16  LYS16       0.0038
     19  CD        -6.2500   -6.5700   96.6040 C.3    16  LYS16       0.0206
     20  CE        -7.3110   -5.5050   96.7930 C.3    16  LYS16       0.1093
     21  NZ        -8.4010   -5.6010   95.7810 N.3    16  LYS16      -0.1314
     22  N         -7.0940   -9.5030   94.4180 N.am   17  GLY17      -0.1955
     23  CA        -8.1820   -9.8000   93.4980 C.3    17  GLY17       0.1869
     24  C         -9.3130   -8.8060   93.6220 C.2    17  GLY17       0.2309
     25  O         -9.1660   -7.7770   94.2840 O.2    17  GLY17      -0.2863
     26  N         -6.1480  -12.0110   98.5150 N.3    22  VAL22      -0.1245
     27  CA        -6.1910  -13.4760   98.5530 C.3    22  VAL22       0.1561
     28  C         -4.9950  -13.9860   99.3680 C.2    22  VAL22       0.2260
     29  O         -3.8600  -13.5880   99.1010 O.2    22  VAL22      -0.2867
     30  CB        -6.1920  -14.0840   97.1290 C.3    22  VAL22       0.0252
     31  CG1       -6.4230  -15.5980   97.1790 C.3    22  VAL22       0.0019
     32  CG2       -7.2400  -13.4090   96.2400 C.3    22  VAL22       0.0019
     33  N         -7.2970  -21.1740   99.3970 N.3    35  ALA35      -0.1231
     34  CA        -7.1700  -19.7640   99.0410 C.3    35  ALA35       0.1694
     35  C         -8.3160  -19.0480   99.7340 C.2    35  ALA35       0.2592
     36  O         -9.4480  -19.5270   99.6720 O.2    35  ALA35      -0.2718
     37  CB        -7.2880  -19.5900   97.5370 C.3    35  ALA35       0.0304
     38  N         -8.0390  -17.9250  100.4090 N.am   36  VAL36      -0.1966
     39  CA        -9.0720  -17.1870  101.1370 C.3    36  VAL36       0.1727
     40  C         -9.1180  -15.7430  100.6820 C.2    36  VAL36       0.2616
     41  O         -8.1340  -15.0210  100.8450 O.2    36  VAL36      -0.2715
     42  CB        -8.8310  -17.2580  102.6590 C.3    36  VAL36       0.0290
     43  CG1       -9.8940  -16.4610  103.4240 C.3    36  VAL36       0.0023
     44  CG2       -8.7940  -18.7070  103.1280 C.3    36  VAL36       0.0023
     45  N        -10.2860  -15.2930  100.2020 N.am   37  LYS37      -0.1977
     46  CA       -10.4780  -13.9040   99.8120 C.3    37  LYS37       0.1596
     47  C        -11.0640  -13.1460  100.9980 C.2    37  LYS37       0.2287
     48  O        -12.1620  -13.4720  101.4490 O.2    37  LYS37      -0.2864
     49  CB       -11.4030  -13.8060   98.6000 C.3    37  LYS37       0.0298
     50  CG       -11.6320  -12.3770   98.1450 C.3    37  LYS37       0.0038
     51  CD       -12.0830  -12.3090   96.7120 C.3    37  LYS37       0.0206
     52  CE       -10.9250  -12.3450   95.7520 C.3    37  LYS37       0.1093
     53  NZ       -11.3780  -12.1640   94.3650 N.3    37  LYS37      -0.1314
     54  N        -14.2830  -22.2230   89.8580 N.3    69  MET69      -0.1245
     55  CA       -13.5900  -22.3460   91.1420 C.3    69  MET69       0.1570
     56  C        -14.4860  -22.9950   92.1990 C.2    69  MET69       0.2261
     57  O        -15.6510  -22.6220   92.3280 O.2    69  MET69      -0.2867
     58  CB       -13.1110  -20.9860   91.6580 C.3    69  MET69       0.0387
     59  CG       -12.6710  -21.0370   93.1090 C.3    69  MET69       0.0595
     60  SD       -11.8130  -19.5850   93.6740 S.3    69  MET69      -0.1393
     61  CE       -11.5730  -20.0210   95.3580 C.3    69  MET69       0.0692
     62  N        -15.7380  -23.3820   95.9200 N.3    71  LEU71      -0.1245
     63  CA       -15.8780  -22.6410   97.1710 C.3    71  LEU71       0.1561
     64  C        -16.1840  -23.6720   98.2680 C.2    71  LEU71       0.2260
     65  O        -17.0060  -24.5590   98.0460 O.2    71  LEU71      -0.2867
     66  CB       -17.0350  -21.6340   97.0200 C.3    71  LEU71       0.0270
     67  CG       -17.2200  -20.5980   98.1280 C.3    71  LEU71       0.0019
     68  CD1      -16.0950  -19.5640   98.1180 C.3    71  LEU71       0.0001
     69  CD2      -18.5500  -19.8770   97.9630 C.3    71  LEU71       0.0001
     70  N        -14.1480  -15.6400  102.1910 N.3    83  LEU83      -0.1231
     71  CA       -14.5700  -16.6650  101.2390 C.3    83  LEU83       0.1693
     72  C        -13.4280  -17.6550  101.1050 C.2    83  LEU83       0.2592
     73  O        -12.3490  -17.2700  100.6720 O.2    83  LEU83      -0.2718
     74  CB       -14.8960  -16.0410   99.8770 C.3    83  LEU83       0.0284
     75  CG       -16.0990  -15.1080   99.8610 C.3    83  LEU83       0.0019
     76  CD1      -16.0030  -14.1200   98.7250 C.3    83  LEU83       0.0001
     77  CD2      -17.3800  -15.8840   99.7450 C.3    83  LEU83       0.0001
     78  N        -13.6380  -18.9090  101.5380 N.am   84  VAL84      -0.1966
     79  CA       -12.6120  -19.9500  101.5080 C.3    84  VAL84       0.1727
     80  C        -12.9110  -20.9040  100.3510 C.2    84  VAL84       0.2617
     81  O        -14.0260  -21.4170  100.2620 O.2    84  VAL84      -0.2715
     82  CB       -12.5800  -20.7140  102.8540 C.3    84  VAL84       0.0290
     83  CG1      -11.4470  -21.7380  102.8810 C.3    84  VAL84       0.0023
     84  CG2      -12.4820  -19.7490  104.0380 C.3    84  VAL84       0.0023
     85  N        -11.9100  -21.1680   99.5120 N.am   85  GLY85      -0.1940
     86  CA       -12.0610  -22.0660   98.3710 C.3    85  GLY85       0.2014
     87  C        -10.7770  -22.7410   97.9370 C.2    85  GLY85       0.2639
     88  O         -9.7540  -22.6490   98.6190 O.2    85  GLY85      -0.2714
     89  N        -10.8290  -23.4430   96.7970 N.am   86  GLU86      -0.1963
     90  CA        -9.6840  -24.1960   96.2780 C.3    86  GLU86       0.1733
     91  C         -8.6120  -23.2560   95.7200 C.2    86  GLU86       0.2616
     92  O         -8.9370  -22.2740   95.0520 O.2    86  GLU86      -0.2715
     93  CB       -10.1430  -25.1830   95.1950 C.3    86  GLU86       0.0429
     94  CG        -9.0750  -26.1790   94.7670 C.3    86  GLU86       0.1163
     95  CD        -9.5460  -27.2270   93.7760 C.2    86  GLU86       0.3649
     96  OE1      -10.6420  -27.0530   93.1930 O.co2  86  GLU86      -0.2457
     97  OE2       -8.7900  -28.1960   93.5400 O.co2  86  GLU86      -0.2457
     98  N         -7.3300  -23.5920   95.9710 N.am   87  VAL87      -0.1963
     99  CA        -6.1870  -22.7950   95.5180 C.3    87  VAL87       0.1727
    100  C         -5.6580  -23.3660   94.1850 C.2    87  VAL87       0.2616
    101  O         -5.5660  -24.5820   94.0270 O.2    87  VAL87      -0.2715
    102  CB        -5.0600  -22.6940   96.5980 C.3    87  VAL87       0.0290
    103  CG1       -4.3900  -24.0410   96.8810 C.3    87  VAL87       0.0023
    104  CG2       -4.0170  -21.6530   96.2060 C.3    87  VAL87       0.0023
    105  N         -5.3400  -22.4680   93.2260 N.am   88  TYR88      -0.1974
    106  CA        -4.7940  -22.8270   91.9120 C.3    88  TYR88       0.1639
    107  C         -3.4160  -22.1730   91.7500 C.2    88  TYR88       0.2290
    108  O         -3.2270  -21.0240   92.1500 O.2    88  TYR88      -0.2864
    109  CB        -5.7600  -22.4050   90.7950 C.3    88  TYR88       0.0560
    110  CG        -7.1510  -22.9700   90.9930 C.ar   88  TYR88      -0.0198
    111  CD1       -7.3620  -24.3420   91.0650 C.ar   88  TYR88      -0.0009
    112  CD2       -8.2390  -22.1330   91.2220 C.ar   88  TYR88      -0.0009
    113  CE1       -8.6260  -24.8690   91.3080 C.ar   88  TYR88       0.0417
    114  CE2       -9.5090  -22.6490   91.4720 C.ar   88  TYR88       0.0417
    115  CZ        -9.7010  -24.0200   91.5100 C.ar   88  TYR88       0.1957
    116  OH       -10.9550  -24.5270   91.7690 O.3    88  TYR88      -0.2866
    117  N         -1.4020  -19.9480   87.6320 N.3    91  GLY91      -0.1210
    118  CA        -1.3520  -18.5290   87.3030 C.3    91  GLY91       0.1956
    119  C         -2.4150  -18.1000   86.3160 C.2    91  GLY91       0.2611
    120  O         -3.2610  -18.9000   85.9090 O.2    91  GLY91      -0.2717
    121  N         -2.3660  -16.8270   85.9120 N.am   92  GLU92      -0.1979
    122  CA        -3.3300  -16.2620   84.9730 C.3    92  GLU92       0.1602
    123  C         -3.0800  -16.7930   83.5650 C.2    92  GLU92       0.2287
    124  O         -1.9340  -17.0040   83.1770 O.2    92  GLU92      -0.2864
    125  CB        -3.2660  -14.7270   84.9900 C.3    92  GLU92       0.0415
    126  CG        -3.7430  -14.1350   86.3070 C.3    92  GLU92       0.1163
    127  CD        -3.5740  -12.6370   86.4550 C.2    92  GLU92       0.3649
    128  OE1       -3.1650  -11.9750   85.4730 O.co2  92  GLU92      -0.2457
    129  OE2       -3.8480  -12.1220   87.5630 O.co2  92  GLU92      -0.2457
    130  N         -7.9800  -11.8000   83.6990 N.3   135  GLU135     -0.1245
    131  CA        -7.4920  -11.8580   85.0880 C.3   135  GLU135      0.1567
    132  C         -8.2720  -12.9070   85.9090 C.2   135  GLU135      0.2260
    133  O         -7.6900  -13.5360   86.7930 O.2   135  GLU135     -0.2867
    134  CB        -7.6160  -10.4630   85.7480 C.3   135  GLU135      0.0388
    135  CG        -6.9300  -10.3180   87.0960 C.3   135  GLU135      0.1160
    136  CD        -7.1230   -8.9580   87.7430 C.2   135  GLU135      0.3649
    137  OE1       -7.1590   -7.9440   87.0090 O.co2 135  GLU135     -0.2457
    138  OE2       -7.2260   -8.9060   88.9900 O.co2 135  GLU135     -0.2457
    139  N         -7.8410  -18.4060   85.7610 N.3   138  LEU138     -0.1245
    140  CA        -6.6340  -19.0060   86.3260 C.3   138  LEU138      0.1561
    141  C         -6.4750  -20.4180   85.8050 C.2   138  LEU138      0.2260
    142  O         -7.4630  -21.0620   85.4590 O.2   138  LEU138     -0.2867
    143  CB        -6.6930  -19.0390   87.8660 C.3   138  LEU138      0.0270
    144  CG        -6.9310  -17.7120   88.5810 C.3   138  LEU138      0.0019
    145  CD1       -6.7470  -17.8760   90.0740 C.3   138  LEU138      0.0001
    146  CD2       -6.0100  -16.6170   88.0590 C.3   138  LEU138      0.0001
    147  N        -12.8200  -17.6310   88.2140 N.3   151  ILE151     -0.1231
    148  CA       -12.9010  -17.2060   89.6150 C.3   151  ILE151      0.1692
    149  C        -13.8810  -16.0230   89.7610 C.2   151  ILE151      0.2592
    150  O        -14.2530  -15.3940   88.7680 O.2   151  ILE151     -0.2718
    151  CB       -11.4950  -16.8490   90.1810 C.3   151  ILE151      0.0266
    152  CG1      -10.7920  -15.7660   89.3350 C.3   151  ILE151      0.0019
    153  CG2      -10.6120  -18.0970   90.2450 C.3   151  ILE151      0.0020
    154  CD1       -9.8020  -14.9310   90.0970 C.3   151  ILE151      0.0001
    155  N        -14.3150  -15.7620   91.0100 N.am  152  ASP152     -0.1974
    156  CA       -15.2300  -14.6730   91.3800 C.3   152  ASP152      0.1709
    157  C        -16.5820  -14.7550   90.6430 C.2   152  ASP152      0.2293
    158  O        -17.1760  -13.7220   90.3590 O.2   152  ASP152     -0.2864
    159  CB       -14.5810  -13.2960   91.1170 C.3   152  ASP152      0.1436
    160  CG       -13.2820  -13.0900   91.8600 C.2   152  ASP152      0.3671
    161  OD1      -13.0870  -13.7460   92.9100 O.co2 152  ASP152     -0.2456
    162  OD2      -12.4790  -12.2330   91.4250 O.co2 152  ASP152     -0.2456
    163  N        -19.9200  -13.0240   92.6240 N.3   155  LEU155     -0.1245
    164  CA       -19.5770  -12.0390   93.6630 C.3   155  LEU155      0.1561
    165  C        -20.0350  -10.6140   93.2930 C.2   155  LEU155      0.2260
    166  O        -20.2770   -9.8080   94.1880 O.2   155  LEU155     -0.2867
    167  CB       -18.0600  -12.0310   93.9290 C.3   155  LEU155      0.0270
    168  CG       -17.4280  -13.3530   94.3930 C.3   155  LEU155      0.0019
    169  CD1      -15.9660  -13.1440   94.7660 C.3   155  LEU155      0.0001
    170  CD2      -18.1790  -13.9470   95.5700 C.3   155  LEU155      0.0001
@<TRIPOS>BOND
     1   124   123    2
     2   123   122    1
     3   130   131    1
     4   122   125    1
     5   122   121    1
     6   125   126    1
     7   131   134    1
     8   131   132    1
     9   142   141    2
    10   128   127   ar
    11   134   135    1
    12   139   140    1
    13   141   140    1
    14   120   119    2
    15   132   133    2
    16   121   119   am
    17   126   127    1
    18   119   118    1
    19   140   143    1
    20   127   129   ar
    21   137   136   ar
    22   135   136    1
    23   118   117    1
    24   136   138   ar
    25   143   144    1
    26   146   144    1
    27   147   148    1
    28   144   145    1
    29   150   149    2
    30   152   154    1
    31   152   151    1
    32   148   149    1
    33   148   151    1
    34   149   155   am
    35    54    55    1
    36   151   153    1
    37   158   157    2
    38   157   156    1
    39   109   110    1
    40   109   106    1
    41   110   111   ar
    42   110   112   ar
    43   155   156    1
    44   111   113   ar
    45   159   156    1
    46   159   160    1
    47    55    58    1
    48    55    56    1
    49   112   114   ar
    50   113   115   ar
    51   162   160   ar
    52   114   115   ar
    53   115   116    1
    54    58    59    1
    55   107   106    1
    56   107   108    2
    57   160   161   ar
    58   106   105    1
    59    56    57    2
    60   163   164    1
    61    16    15    2
    62    59    60    1
    63    96    95   ar
    64   105   100   am
    65   165   164    1
    66   165   166    2
    67    23    24    1
    68    23    22    1
    69    97    95   ar
    70    24    25    2
    71   164   167    1
    72    60    61    1
    73    95    94    1
    74   167   168    1
    75   101   100    2
    76    15    22   am
    77    15    14    1
    78   100    99    1
    79    53    52    1
    80   168   169    1
    81   168   170    1
    82    94    93    1
    83     4     3    2
    84    13    14    1
    85    13    11   am
    86    92    91    2
    87    17    14    1
    88    17    18    1
    89    93    90    1
    90    18    19    1
    91    99    98    1
    92    99   102    1
    93    10    11    1
    94    10     9    1
    95    91    98   am
    96    91    90    1
    97    52    51    1
    98    21    20    1
    99    11    12    2
   100    62    63    1
   101     3     9   am
   102     3     2    1
   103   104   102    1
   104    32    30    1
   105    90    89    1
   106   102   103    1
   107    19    20    1
   108    51    50    1
   109     5     2    1
   110     5     6    1
   111     8     6    1
   112    89    87   am
   113     2     1    1
   114    66    63    1
   115    66    67    1
   116    30    31    1
   117    30    27    1
   118    63    64    1
   119     6     7    1
   120    37    34    1
   121    87    86    1
   122    87    88    2
   123    69    67    1
   124    65    64    2
   125    68    67    1
   126    50    49    1
   127    86    85    1
   128    26    27    1
   129    27    28    1
   130    49    46    1
   131    76    75    1
   132    34    33    1
   133    34    35    1
   134    29    28    2
   135    85    80   am
   136    36    35    2
   137    35    38   am
   138    77    75    1
   139    46    45    1
   140    46    47    1
   141    75    74    1
   142    74    71    1
   143    45    40   am
   144    81    80    2
   145    80    79    1
   146    38    39    1
   147    73    72    2
   148    40    41    2
   149    40    39    1
   150    47    48    2
   151    72    71    1
   152    72    78   am
   153    39    42    1
   154    71    70    1
   155    79    78    1
   156    79    82    1
   157    42    44    1
   158    42    43    1
   159    82    83    1
   160    82    84    1
