@<TRIPOS>MOLECULE
tmp/5w9gA00.pdb
 167 158 0 0 0
SMALL
GASTEIGER

@<TRIPOS>ATOM
      1  N        -63.0200  178.1250  276.6620 N.3    24  ALA24      -0.1231
      2  CA       -62.0680  178.2000  277.7660 C.3    24  ALA24       0.1694
      3  C        -60.7210  177.6020  277.3780 C.2    24  ALA24       0.2591
      4  O        -59.6770  178.2470  277.5260 O.2    24  ALA24      -0.2718
      5  CB       -62.6370  177.4890  278.9970 C.3    24  ALA24       0.0304
      6  N        -60.7250  176.3650  276.8720 N.am   25  MET25      -0.1979
      7  CA       -59.4720  175.7060  276.5100 C.3    25  MET25       0.1605
      8  C        -58.7370  176.4650  275.4150 C.2    25  MET25       0.2287
      9  O        -57.5300  176.7140  275.5240 O.2    25  MET25      -0.2864
     10  CB       -59.7310  174.2570  276.0870 C.3    25  MET25       0.0413
     11  CG       -60.5290  173.4520  277.0930 C.3    25  MET25       0.0598
     12  SD       -61.0250  171.8280  276.4990 S.3    25  MET25      -0.1393
     13  CE       -59.4420  171.0970  276.1430 C.3    25  MET25       0.0692
     14  N        -56.9880  179.4250  276.6560 N.3    28  TYR28      -0.1241
     15  CA       -55.7390  179.0790  277.3170 C.3    28  TYR28       0.1605
     16  C        -54.8280  178.2320  276.4380 C.2    28  TYR28       0.2264
     17  O        -53.8130  177.7230  276.9240 O.2    28  TYR28      -0.2867
     18  CB       -56.0250  178.3660  278.6400 C.3    28  TYR28       0.0534
     19  CG       -56.4800  179.3090  279.7310 C.ar   28  TYR28      -0.0201
     20  CD1      -55.5760  179.8270  280.6490 C.ar   28  TYR28      -0.0009
     21  CD2      -57.8100  179.6990  279.8280 C.ar   28  TYR28      -0.0009
     22  CE1      -55.9850  180.6960  281.6410 C.ar   28  TYR28       0.0417
     23  CE2      -58.2290  180.5680  280.8170 C.ar   28  TYR28       0.0417
     24  CZ       -57.3120  181.0640  281.7200 C.ar   28  TYR28       0.1957
     25  OH       -57.7220  181.9280  282.7080 O.3    28  TYR28      -0.2866
     26  N        -55.4330  175.3140  274.6470 N.3    30  GLU30      -0.1245
     27  CA       -55.6110  173.8700  274.6160 C.3    30  GLU30       0.1567
     28  C        -56.6410  173.4850  273.5590 C.2    30  GLU30       0.2260
     29  O        -57.5110  174.2800  273.1960 O.2    30  GLU30      -0.2867
     30  CB       -56.0440  173.3430  275.9870 C.3    30  GLU30       0.0388
     31  CG       -55.2740  173.9390  277.1570 C.3    30  GLU30       0.1160
     32  CD       -54.2130  172.9990  277.6970 C.2    30  GLU30       0.3649
     33  OE1      -54.3520  171.7730  277.5060 O.co2  30  GLU30      -0.2457
     34  OE2      -53.2430  173.4860  278.3130 O.co2  30  GLU30      -0.2457
     35  N        -59.2310  166.5030  279.5360 N.3    38  LYS38      -0.1245
     36  CA       -59.4010  167.8470  280.0810 C.3    38  LYS38       0.1561
     37  C        -60.7160  168.4600  279.6160 C.2    38  LYS38       0.2260
     38  O        -61.4500  169.0590  280.4120 O.2    38  LYS38      -0.2867
     39  CB       -58.2160  168.7340  279.6900 C.3    38  LYS38       0.0271
     40  CG       -57.7180  169.6110  280.8330 C.3    38  LYS38       0.0035
     41  CD       -56.5810  170.5300  280.4090 C.3    38  LYS38       0.0206
     42  CE       -55.2690  170.1270  281.0650 C.3    38  LYS38       0.1093
     43  NZ       -54.1200  170.9380  280.5730 N.3    38  LYS38      -0.1314
     44  N        -63.1750  167.0370  281.7860 N.3    41  ALA41      -0.1231
     45  CA       -63.0670  167.5870  283.1340 C.3    41  ALA41       0.1694
     46  C        -63.6110  169.0080  283.2020 C.2    41  ALA41       0.2591
     47  O        -64.2640  169.3840  284.1820 O.2    41  ALA41      -0.2718
     48  CB       -61.6100  167.5520  283.5980 C.3    41  ALA41       0.0304
     49  N        -63.3560  169.8100  282.1680 N.am   42  ILE42      -0.1980
     50  CA       -63.8130  171.1970  282.1710 C.3    42  ILE42       0.1595
     51  C        -65.3370  171.2570  282.1590 C.2    42  ILE42       0.2287
     52  O        -65.9480  172.0210  282.9150 O.2    42  ILE42      -0.2864
     53  CB       -63.2070  171.9680  280.9860 C.3    42  ILE42       0.0276
     54  CG1      -61.7280  172.2490  281.2340 C.3    42  ILE42       0.0022
     55  CG2      -63.9330  173.2900  280.7950 C.3    42  ILE42       0.0022
     56  CD1      -61.4960  173.3080  282.2750 C.3    42  ILE42       0.0001
     57  N        -66.6540  170.2380  285.7470 N.3    45  HIS45      -0.1241
     58  CA       -66.4940  171.3610  286.6660 C.3    45  HIS45       0.1621
     59  C        -67.4960  172.4640  286.3610 C.2    45  HIS45       0.2264
     60  O        -68.1540  172.9960  287.2630 O.2    45  HIS45      -0.2867
     61  CB       -65.0660  171.8960  286.5640 C.3    45  HIS45       0.0745
     62  CG       -64.7660  173.0300  287.4940 C.ar   45  HIS45       0.0817
     63  ND1      -64.8470  174.3500  287.1070 N.ar   45  HIS45      -0.2268
     64  CD2      -64.3600  173.0400  288.7860 C.ar   45  HIS45       0.1154
     65  CE1      -64.5160  175.1260  288.1250 C.ar   45  HIS45       0.1986
     66  NE2      -64.2170  174.3550  289.1550 N.ar   45  HIS45      -0.2212
     67  N        -66.7500  181.5390  287.1510 N.3    65  GLU65      -0.1245
     68  CA       -66.3040  180.5840  286.1490 C.3    65  GLU65       0.1567
     69  C        -67.2710  180.5770  284.9700 C.2    65  GLU65       0.2260
     70  O        -68.4510  180.9160  285.1000 O.2    65  GLU65      -0.2867
     71  CB       -66.1910  179.1870  286.7700 C.3    65  GLU65       0.0388
     72  CG       -65.8940  178.0440  285.8000 C.3    65  GLU65       0.1160
     73  CD       -64.4540  178.0380  285.3220 C.2    65  GLU65       0.3649
     74  OE1      -63.5370  178.0840  286.1760 O.co2  65  GLU65      -0.2457
     75  OE2      -64.2390  178.0040  284.0940 O.co2  65  GLU65      -0.2457
     76  N        -58.3940  183.3970  290.2010 N.3    91  LEU91      -0.1231
     77  CA       -59.8160  183.4830  289.8830 C.3    91  LEU91       0.1678
     78  C        -60.5940  182.3810  290.5880 C.2    91  LEU91       0.2434
     79  O        -60.2970  181.1970  290.3830 O.2    91  LEU91      -0.2733
     80  CB       -60.0270  183.3900  288.3740 C.3    91  LEU91       0.0284
     81  CG       -60.2230  184.6910  287.5960 C.3    91  LEU91       0.0019
     82  CD1      -60.5220  184.3830  286.1360 C.3    91  LEU91       0.0001
     83  CD2      -61.3280  185.5350  288.2090 C.3    91  LEU91       0.0001
     84  N        -61.5860  182.7120  291.4140 N.am   92  PRO92      -0.2718
     85  CA       -62.4400  181.6730  291.9980 C.3    92  PRO92       0.1535
     86  C        -63.6000  181.3380  291.0780 C.2    92  PRO92       0.2598
     87  O        -63.6920  181.8860  289.9740 O.2    92  PRO92      -0.2715
     88  CB       -62.9140  182.3140  293.3040 C.3    92  PRO92       0.0310
     89  CG       -62.9900  183.7760  292.9690 C.3    92  PRO92       0.0237
     90  CD       -61.9790  184.0570  291.8680 C.3    92  PRO92       0.0939
     91  N        -64.4910  180.4490  291.5130 N.am   93  ASP93      -0.1972
     92  CA       -65.5930  180.0330  290.6540 C.3    93  ASP93       0.1709
     93  C        -66.8770  180.8040  290.9310 C.2    93  ASP93       0.2293
     94  O        -67.6300  181.0960  289.9980 O.2    93  ASP93      -0.2864
     95  CB       -65.8430  178.5280  290.8020 C.3    93  ASP93       0.1436
     96  CG       -64.6250  177.6970  290.4500 C.2    93  ASP93       0.3671
     97  OD1      -64.1000  177.8560  289.3300 O.co2  93  ASP93      -0.2456
     98  OD2      -64.1880  176.8890  291.2940 O.co2  93  ASP93      -0.2456
     99  N        -64.0580  178.5010  295.7700 N.3   104  GLU104     -0.1231
    100  CA       -63.3260  177.6950  294.8000 C.3   104  GLU104      0.1699
    101  C        -63.9240  176.2930  294.8180 C.2   104  GLU104      0.2592
    102  O        -63.8410  175.5910  295.8310 O.2   104  GLU104     -0.2718
    103  CB       -61.8350  177.6570  295.1290 C.3   104  GLU104      0.0402
    104  CG       -61.0460  176.6680  294.2830 C.3   104  GLU104      0.1161
    105  CD       -61.3710  176.7750  292.8040 C.2   104  GLU104      0.3649
    106  OE1      -61.1940  177.8700  292.2380 O.co2 104  GLU104     -0.2457
    107  OE2      -61.7990  175.7730  292.2020 O.co2 104  GLU104     -0.2457
    108  N        -64.5350  175.8940  293.7060 N.am  105  ILE105     -0.1966
    109  CA       -65.1910  174.5980  293.5870 C.3   105  ILE105      0.1727
    110  C        -64.2270  173.6170  292.9410 C.2   105  ILE105      0.2617
    111  O        -63.6710  173.8910  291.8690 O.2   105  ILE105     -0.2715
    112  CB       -66.4920  174.7050  292.7740 C.3   105  ILE105      0.0290
    113  CG1      -67.5640  175.4280  293.5890 C.3   105  ILE105      0.0022
    114  CG2      -66.9670  173.3180  292.3430 C.3   105  ILE105      0.0023
    115  CD1      -68.9550  175.2040  293.0790 C.3   105  ILE105      0.0001
    116  N        -64.0390  172.4740  293.5800 N.am  106  GLY106     -0.1940
    117  CA       -63.1390  171.4530  293.0710 C.3   106  GLY106      0.2014
    118  C        -63.8570  170.1610  292.7520 C.2   106  GLY106      0.2638
    119  O        -64.7810  169.7580  293.4590 O.2   106  GLY106     -0.2714
    120  N        -63.4320  169.5260  291.6630 N.am  107  VAL107     -0.1977
    121  CA       -63.9390  168.2250  291.2410 C.3   107  VAL107      0.1596
    122  C        -62.7240  167.3550  290.9560 C.2   107  VAL107      0.2287
    123  O        -61.9890  167.6090  289.9940 O.2   107  VAL107     -0.2864
    124  CB       -64.8500  168.3160  290.0070 C.3   107  VAL107      0.0276
    125  CG1      -65.3940  166.9370  289.6500 C.3   107  VAL107      0.0022
    126  CG2      -65.9850  169.2990  290.2460 C.3   107  VAL107      0.0022
    127  N        -60.8160  163.3120  290.8280 N.3   109  ARG109     -0.1245
    128  CA       -60.9390  161.8670  290.6980 C.3   109  ARG109      0.1563
    129  C        -60.0300  161.1300  291.6720 C.2   109  ARG109      0.2260
    130  O        -59.8720  159.9100  291.5600 O.2   109  ARG109     -0.2867
    131  CB       -60.6360  161.4320  289.2630 C.3   109  ARG109      0.0307
    132  CG       -61.8130  161.8180  288.2920 C.3   109  ARG109      0.0489
    133  CD       -61.6620  163.2780  287.8310 C.3   109  ARG109      0.2205
    134  NE       -60.6830  163.3140  286.7050 N.pl3 109  ARG109     -0.0865
    135  CZ       -60.0780  164.4400  286.2690 C.cat 109  ARG109      0.5346
    136  NH1      -60.2390  165.6330  286.9200 N.pl3 109  ARG109      0.1354
    137  NH2      -59.3040  164.3340  285.1800 N.pl3 109  ARG109      0.1354
    138  N        -56.4910  166.8720  297.1740 N.3   115  TYR115     -0.1241
    139  CA       -56.7930  168.0440  296.3510 C.3   115  TYR115      0.1605
    140  C        -57.0830  169.2620  297.2190 C.2   115  TYR115      0.2264
    141  O        -56.5850  170.3580  296.9370 O.2   115  TYR115     -0.2867
    142  CB       -57.9580  167.7640  295.3920 C.3   115  TYR115      0.0534
    143  CG       -58.3040  168.9240  294.4500 C.ar  115  TYR115     -0.0201
    144  CD1      -59.5380  168.9840  293.8090 C.ar  115  TYR115     -0.0009
    145  CD2      -57.3930  169.9510  294.1920 C.ar  115  TYR115     -0.0009
    146  CE1      -59.8550  170.0380  292.9530 C.ar  115  TYR115      0.0417
    147  CE2      -57.7090  171.0080  293.3470 C.ar  115  TYR115      0.0417
    148  CZ       -58.9380  171.0460  292.7260 C.ar  115  TYR115      0.1957
    149  OH       -59.2450  172.0910  291.8800 O.3   115  TYR115     -0.2866
    150  N        -55.2450  172.4360  296.7500 N.3   119  LYS119     -0.1245
    151  CA       -56.0040  173.6590  296.5030 C.3   119  LYS119      0.1561
    152  C        -55.7450  174.7040  297.5830 C.2   119  LYS119      0.2260
    153  O        -55.5770  175.8900  297.2790 O.2   119  LYS119     -0.2867
    154  CB       -57.4970  173.3410  296.4110 C.3   119  LYS119      0.0271
    155  CG       -58.3550  174.6140  296.0650 C.3   119  LYS119      0.0035
    156  CD       -58.0330  175.0010  294.5880 C.3   119  LYS119      0.0206
    157  CE       -57.7610  176.4940  294.5160 C.3   119  LYS119      0.1093
    158  NZ       -57.4110  176.8610  293.0820 N.3   119  LYS119     -0.1314
    159  N        -52.2780  176.4350  297.4140 N.3   122  LYS122     -0.1245
    160  CA       -52.1460  177.4030  296.3330 C.3   122  LYS122      0.1561
    161  C        -52.9900  178.6530  296.5430 C.2   122  LYS122      0.2260
    162  O        -52.6610  179.7040  295.9820 O.2   122  LYS122     -0.2867
    163  CB       -52.5230  176.7530  295.0000 C.3   122  LYS122      0.0271
    164  CG       -52.1000  177.6770  293.8260 C.3   122  LYS122      0.0035
    165  CD       -52.1740  177.0160  292.4970 C.3   122  LYS122      0.0206
    166  CE       -53.6230  176.7490  292.1510 C.3   122  LYS122      0.1093
    167  NZ       -53.7040  175.9300  290.9510 N.3   122  LYS122     -0.1314
@<TRIPOS>BOND
     1    29    28    2
     2    28    27    1
     3    27    26    1
     4    27    30    1
     5     8     9    2
     6     8     7    1
     7    30    31    1
     8    10     7    1
     9    10    11    1
    10    13    12    1
    11    16    17    2
    12    16    15    1
    13    12    11    1
    14     7     6    1
    15    14    15    1
    16     1     2    1
    17     6     3   am
    18    31    32    1
    19    15    18    1
    20     3     4    2
    21     3     2    1
    22    33    32   ar
    23    32    34   ar
    24     2     5    1
    25    18    19    1
    26    35    36    1
    27    37    36    1
    28    37    38    2
    29    39    36    1
    30    39    40    1
    31    19    21   ar
    32    19    20   ar
    33    21    23   ar
    34    41    40    1
    35    41    42    1
    36    43    42    1
    37    20    22   ar
    38    55    53    1
    39    23    24   ar
    40    53    54    1
    41    53    50    1
    42    54    56    1
    43    22    24   ar
    44    24    25    1
    45    44    45    1
    46    51    50    1
    47    51    52    2
    48    49    50    1
    49    49    46   am
    50    45    46    1
    51    45    48    1
    52    46    47    2
    53    75    73   ar
    54    69    70    2
    55    69    68    1
    56   137   135    1
    57    73    72    1
    58    73    74   ar
    59    57    58    1
    60    72    71    1
    61    82    81    1
    62    68    71    1
    63    68    67    1
    64   135   134    2
    65   135   136    1
    66    59    58    1
    67    59    60    2
    68    61    58    1
    69    61    62    1
    70   134   133    1
    71    63    62   ar
    72    63    65   ar
    73    62    64   ar
    74    81    83    1
    75    81    80    1
    76   133   132    1
    77    65    66   ar
    78   132   131    1
    79    80    77    1
    80    64    66   ar
    81   131   128    1
    82    97    96   ar
    83   125   124    1
    84    77    76    1
    85    77    78    1
    86    87    86    2
    87   123   122    2
    88    94    93    2
    89   124   126    1
    90   124   121    1
    91    79    78    2
    92    96    95    1
    93    96    98   ar
    94    78    84   am
    95    92    95    1
    96    92    93    1
    97    92    91    1
    98   128   127    1
    99   128   129    1
   100   167   166    1
   101   122   121    1
   102    86    91   am
   103    86    85    1
   104   121   120    1
   105    84    90    1
   106    84    85    1
   107   130   129    2
   108   120   118   am
   109    90    89    1
   110   111   110    2
   111   149   148    1
   112    85    88    1
   113   166   165    1
   114   107   105   ar
   115   106   105   ar
   116   114   112    1
   117   165   164    1
   118   148   146   ar
   119   148   147   ar
   120   118   117    1
   121   118   119    2
   122   112   109    1
   123   112   113    1
   124   105   104    1
   125   110   116   am
   126   110   109    1
   127   146   144   ar
   128    89    88    1
   129   117   116    1
   130   115   113    1
   131   158   157    1
   132   147   145   ar
   133   109   108    1
   134   108   101   am
   135   144   143   ar
   136   164   163    1
   137   145   143   ar
   138   104   103    1
   139   143   142    1
   140   157   156    1
   141   156   155    1
   142   100   101    1
   143   100   103    1
   144   100    99    1
   145   101   102    2
   146   163   160    1
   147   142   139    1
   148   162   161    2
   149   155   154    1
   150   160   161    1
   151   160   159    1
   152   139   138    1
   153   139   140    1
   154   154   151    1
   155   151   150    1
   156   151   152    1
   157   141   140    2
   158   153   152    2
