@<TRIPOS>MOLECULE
tmp/5w9rA00.pdb
 156 144 0 0 0
SMALL
GASTEIGER

@<TRIPOS>ATOM
      1  N         -1.3610  -14.7040   99.2880 N.3    14  LEU14      -0.1231
      2  CA        -1.2990  -15.1530   97.8950 C.3    14  LEU14       0.1693
      3  C         -1.3960  -13.9580   96.9300 C.2    14  LEU14       0.2593
      4  O         -0.6920  -13.9330   95.9210 O.2    14  LEU14      -0.2718
      5  CB        -2.4070  -16.1730   97.6000 C.3    14  LEU14       0.0284
      6  CG        -2.2910  -17.4970   98.3620 C.3    14  LEU14       0.0019
      7  CD1       -3.6260  -18.2130   98.4230 C.3    14  LEU14       0.0001
      8  CD2       -1.2240  -18.4010   97.7450 C.3    14  LEU14       0.0001
      9  N         -2.2450  -12.9820   97.2520 N.am   15  GLY15      -0.1942
     10  CA        -2.3910  -11.7790   96.4380 C.3    15  GLY15       0.2014
     11  C         -3.6110  -10.9440   96.7720 C.2    15  GLY15       0.2639
     12  O         -4.2360  -11.1330   97.8200 O.2    15  GLY15      -0.2714
     13  N         -3.9450   -9.9990   95.8750 N.am   16  LYS16      -0.1963
     14  CA        -5.0850   -9.0930   96.0280 C.3    16  LYS16       0.1728
     15  C         -6.1050   -9.3810   94.9310 C.2    16  LYS16       0.2616
     16  O         -5.7790   -9.2780   93.7470 O.2    16  LYS16      -0.2715
     17  CB        -4.6080   -7.6270   95.9380 C.3    16  LYS16       0.0311
     18  CG        -5.7150   -6.5660   96.0550 C.3    16  LYS16       0.0038
     19  CD        -6.3600   -6.5290   97.4430 C.3    16  LYS16       0.0206
     20  CE        -7.3900   -5.4250   97.5710 C.3    16  LYS16       0.1093
     21  NZ        -8.6980   -5.7820   96.9460 N.3    16  LYS16      -0.1314
     22  N         -7.3280   -9.7160   95.3360 N.am   17  GLY17      -0.1955
     23  CA        -8.4320   -9.9870   94.4230 C.3    17  GLY17       0.1869
     24  C         -9.5580   -8.9890   94.5920 C.2    17  GLY17       0.2309
     25  O         -9.4230   -8.0170   95.3410 O.2    17  GLY17      -0.2863
     26  N         -6.4230  -12.2550   99.5380 N.3    22  VAL22      -0.1245
     27  CA        -6.5380  -13.7100   99.5670 C.3    22  VAL22       0.1561
     28  C         -5.3460  -14.2690  100.3460 C.2    22  VAL22       0.2260
     29  O         -4.2020  -14.0730   99.9400 O.2    22  VAL22      -0.2867
     30  CB        -6.6050  -14.2840   98.1320 C.3    22  VAL22       0.0252
     31  CG1       -6.8460  -15.7910   98.1520 C.3    22  VAL22       0.0019
     32  CG2       -7.6880  -13.5800   97.3190 C.3    22  VAL22       0.0019
     33  N         -7.5910  -21.1980  100.2440 N.3    35  ALA35      -0.1245
     34  CA        -7.3800  -19.8030   99.8480 C.3    35  ALA35       0.1562
     35  C         -8.5830  -19.0260  100.3640 C.2    35  ALA35       0.2260
     36  O         -9.6920  -19.2230   99.8690 O.2    35  ALA35      -0.2867
     37  CB        -7.2830  -19.6860   98.3310 C.3    35  ALA35       0.0290
     38  N        -10.5910  -15.5660  101.0020 N.3    37  LYS37      -0.1245
     39  CA       -10.7520  -14.1620  100.6210 C.3    37  LYS37       0.1561
     40  C        -11.3350  -13.4010  101.8140 C.2    37  LYS37       0.2260
     41  O        -12.4350  -13.7210  102.2630 O.2    37  LYS37      -0.2867
     42  CB       -11.6650  -14.0280   99.3920 C.3    37  LYS37       0.0271
     43  CG       -11.9170  -12.5850   98.9760 C.3    37  LYS37       0.0035
     44  CD       -12.3300  -12.4730   97.5260 C.3    37  LYS37       0.0206
     45  CE       -11.1420  -12.4040   96.6000 C.3    37  LYS37       0.1093
     46  NZ       -11.5590  -12.2470   95.1940 N.3    37  LYS37      -0.1314
     47  N        -14.5460  -22.3950   90.7400 N.3    69  MET69      -0.1245
     48  CA       -13.8510  -22.5150   92.0220 C.3    69  MET69       0.1570
     49  C        -14.7450  -23.1690   93.0790 C.2    69  MET69       0.2261
     50  O        -15.9180  -22.8120   93.1890 O.2    69  MET69      -0.2867
     51  CB       -13.3920  -21.1410   92.5270 C.3    69  MET69       0.0387
     52  CG       -12.9490  -21.1700   93.9680 C.3    69  MET69       0.0595
     53  SD       -12.2080  -19.6570   94.5430 S.3    69  MET69      -0.1393
     54  CE       -11.9180  -20.0860   96.1590 C.3    69  MET69       0.0692
     55  N        -16.0340  -23.6210   96.8620 N.3    71  LEU71      -0.1245
     56  CA       -16.1850  -22.8990   98.1260 C.3    71  LEU71       0.1561
     57  C        -16.4940  -23.9300   99.2120 C.2    71  LEU71       0.2260
     58  O        -17.3940  -24.7500   99.0270 O.2    71  LEU71      -0.2867
     59  CB       -17.3430  -21.8940   97.9960 C.3    71  LEU71       0.0270
     60  CG       -17.5760  -20.9450   99.1760 C.3    71  LEU71       0.0019
     61  CD1      -16.4840  -19.8890   99.2580 C.3    71  LEU71       0.0001
     62  CD2      -18.9280  -20.2530   99.0500 C.3    71  LEU71       0.0001
     63  N        -14.5100  -15.9010  103.1160 N.3    83  LEU83      -0.1245
     64  CA       -14.9430  -16.8740  102.1150 C.3    83  LEU83       0.1561
     65  C        -13.8010  -17.8810  101.9570 C.2    83  LEU83       0.2260
     66  O        -12.7260  -17.5020  101.5040 O.2    83  LEU83      -0.2867
     67  CB       -15.2320  -16.1730  100.7720 C.3    83  LEU83       0.0270
     68  CG       -16.1370  -14.9450  100.8180 C.3    83  LEU83       0.0019
     69  CD1      -16.4290  -14.4470   99.4240 C.3    83  LEU83       0.0001
     70  CD2      -17.4140  -15.2400  101.5350 C.3    83  LEU83       0.0001
     71  N        -12.1760  -21.1650  100.2830 N.3    85  GLY85      -0.1210
     72  CA       -12.2310  -22.0220   99.1040 C.3    85  GLY85       0.1956
     73  C        -10.9250  -22.7090   98.7430 C.2    85  GLY85       0.2612
     74  O         -9.9430  -22.6370   99.4850 O.2    85  GLY85      -0.2717
     75  N        -10.9220  -23.4080   97.5990 N.am   86  GLU86      -0.1965
     76  CA        -9.7860  -24.2140   97.1380 C.3    86  GLU86       0.1733
     77  C         -8.6470  -23.3450   96.5770 C.2    86  GLU86       0.2616
     78  O         -8.9030  -22.2940   95.9870 O.2    86  GLU86      -0.2715
     79  CB       -10.2680  -25.2070   96.0680 C.3    86  GLU86       0.0429
     80  CG        -9.3110  -26.3520   95.7720 C.3    86  GLU86       0.1163
     81  CD        -9.8420  -27.3790   94.7870 C.2    86  GLU86       0.3649
     82  OE1      -10.9640  -27.1890   94.2620 O.co2  86  GLU86      -0.2457
     83  OE2       -9.1230  -28.3710   94.5280 O.co2  86  GLU86      -0.2457
     84  N         -7.3870  -23.8210   96.7430 N.am   87  VAL87      -0.1963
     85  CA        -6.1770  -23.1290   96.2780 C.3    87  VAL87       0.1727
     86  C         -5.8430  -23.5960   94.8640 C.2    87  VAL87       0.2616
     87  O         -5.8860  -24.7960   94.5930 O.2    87  VAL87      -0.2715
     88  CB        -4.9430  -23.3930   97.2010 C.3    87  VAL87       0.0290
     89  CG1       -3.7710  -22.4910   96.8110 C.3    87  VAL87       0.0023
     90  CG2       -5.2810  -23.2100   98.6750 C.3    87  VAL87       0.0023
     91  N         -5.4180  -22.6630   93.9960 N.am   88  TYR88      -0.1974
     92  CA        -4.9760  -22.9710   92.6310 C.3    88  TYR88       0.1639
     93  C         -3.6100  -22.3090   92.4120 C.2    88  TYR88       0.2290
     94  O         -3.4850  -21.0890   92.5270 O.2    88  TYR88      -0.2864
     95  CB        -6.0160  -22.5090   91.5940 C.3    88  TYR88       0.0560
     96  CG        -7.3970  -23.0760   91.8530 C.ar   88  TYR88      -0.0198
     97  CD1       -7.5990  -24.4470   91.9640 C.ar   88  TYR88      -0.0009
     98  CD2       -8.4940  -22.2400   92.0310 C.ar   88  TYR88      -0.0009
     99  CE1       -8.8540  -24.9730   92.2550 C.ar   88  TYR88       0.0417
    100  CE2       -9.7600  -22.7560   92.3020 C.ar   88  TYR88       0.0417
    101  CZ        -9.9380  -24.1240   92.4100 C.ar   88  TYR88       0.1957
    102  OH       -11.1850  -24.6240   92.7060 O.3    88  TYR88      -0.2866
    103  N         -1.7290  -19.9960   88.6670 N.3    91  GLY91      -0.1210
    104  CA        -1.7180  -18.5600   88.4150 C.3    91  GLY91       0.1956
    105  C         -2.7350  -18.1490   87.3720 C.2    91  GLY91       0.2611
    106  O         -3.5890  -18.9500   86.9840 O.2    91  GLY91      -0.2717
    107  N         -2.6460  -16.8970   86.9000 N.am   92  GLU92      -0.1979
    108  CA        -3.5820  -16.3720   85.9040 C.3    92  GLU92       0.1602
    109  C         -3.3480  -17.0030   84.5300 C.2    92  GLU92       0.2287
    110  O         -2.2250  -17.3770   84.1980 O.2    92  GLU92      -0.2864
    111  CB        -3.4690  -14.8460   85.7990 C.3    92  GLU92       0.0415
    112  CG        -3.9660  -14.1180   87.0340 C.3    92  GLU92       0.1163
    113  CD        -3.7910  -12.6120   86.9980 C.2    92  GLU92       0.3649
    114  OE1       -3.7050  -12.0420   85.8860 O.co2  92  GLU92      -0.2457
    115  OE2       -3.7530  -11.9990   88.0890 O.co2  92  GLU92      -0.2457
    116  N         -8.2430  -11.8170   84.7260 N.3   135  GLU135     -0.1245
    117  CA        -7.7300  -11.8650   86.1030 C.3   135  GLU135      0.1567
    118  C         -8.4710  -12.9340   86.9450 C.2   135  GLU135      0.2260
    119  O         -7.8760  -13.5020   87.8620 O.2   135  GLU135     -0.2867
    120  CB        -7.8680  -10.4790   86.7670 C.3   135  GLU135      0.0388
    121  CG        -6.9340  -10.2600   87.9450 C.3   135  GLU135      0.1160
    122  CD        -7.0580   -8.9010   88.6090 C.2   135  GLU135      0.3649
    123  OE1       -6.8790   -8.8290   89.8460 O.co2 135  GLU135     -0.2457
    124  OE2       -7.3310   -7.9070   87.8970 O.co2 135  GLU135     -0.2457
    125  N         -8.1090  -18.3800   86.6910 N.3   138  LEU138     -0.1245
    126  CA        -6.9180  -19.0140   87.2610 C.3   138  LEU138      0.1561
    127  C         -6.7820  -20.4300   86.7240 C.2   138  LEU138      0.2260
    128  O         -7.7820  -21.0590   86.3820 O.2   138  LEU138     -0.2867
    129  CB        -6.9850  -19.0640   88.8020 C.3   138  LEU138      0.0270
    130  CG        -7.0900  -17.7340   89.5400 C.3   138  LEU138      0.0019
    131  CD1       -6.9710  -17.9470   91.0350 C.3   138  LEU138      0.0001
    132  CD2       -6.0250  -16.7480   89.0780 C.3   138  LEU138      0.0001
    133  N        -13.0910  -17.6410   89.1550 N.3   151  ILE151     -0.1231
    134  CA       -13.2160  -17.2070   90.5550 C.3   151  ILE151      0.1692
    135  C        -14.1840  -16.0070   90.6480 C.2   151  ILE151      0.2592
    136  O        -14.4940  -15.3860   89.6350 O.2   151  ILE151     -0.2718
    137  CB       -11.8190  -16.8790   91.1840 C.3   151  ILE151      0.0266
    138  CG1      -11.0990  -15.7350   90.4420 C.3   151  ILE151      0.0019
    139  CG2      -10.9250  -18.1190   91.1750 C.3   151  ILE151      0.0020
    140  CD1      -10.1440  -14.9320   91.3050 C.3   151  ILE151      0.0001
    141  N        -14.6900  -15.7350   91.8710 N.am  152  ASP152     -0.1974
    142  CA       -15.5920  -14.6170   92.2040 C.3   152  ASP152      0.1709
    143  C        -16.9690  -14.7020   91.4920 C.2   152  ASP152      0.2293
    144  O        -17.5170  -13.6670   91.1220 O.2   152  ASP152     -0.2864
    145  CB       -14.9360  -13.2570   91.8810 C.3   152  ASP152      0.1436
    146  CG       -13.6390  -13.0160   92.6180 C.2   152  ASP152      0.3671
    147  OD1      -13.5010  -13.5160   93.7500 O.co2 152  ASP152     -0.2456
    148  OD2      -12.7930  -12.2580   92.0970 O.co2 152  ASP152     -0.2456
    149  N        -20.2630  -12.8020   93.6040 N.3   155  LEU155     -0.1245
    150  CA       -19.8790  -11.8090   94.6220 C.3   155  LEU155      0.1561
    151  C        -20.4100  -10.4200   94.2760 C.2   155  LEU155      0.2260
    152  O        -20.8490   -9.6950   95.1670 O.2   155  LEU155     -0.2867
    153  CB       -18.3520  -11.7420   94.7800 C.3   155  LEU155      0.0270
    154  CG       -17.6340  -13.0300   95.1860 C.3   155  LEU155      0.0019
    155  CD1      -16.1730  -12.7450   95.4760 C.3   155  LEU155      0.0001
    156  CD2      -18.2870  -13.6790   96.3930 C.3   155  LEU155      0.0001
@<TRIPOS>BOND
     1   110   109    2
     2   109   108    1
     3   116   117    1
     4   111   108    1
     5   111   112    1
     6   114   113   ar
     7   108   107    1
     8   117   120    1
     9   117   118    1
    10   128   127    2
    11   125   126    1
    12   127   126    1
    13   120   121    1
    14   107   105   am
    15   118   119    2
    16   106   105    2
    17   113   112    1
    18   113   115   ar
    19   126   129    1
    20   105   104    1
    21   124   122   ar
    22   121   122    1
    23   104   103    1
    24   122   123   ar
    25   129   130    1
    26   132   130    1
    27   133   134    1
    28   130   131    1
    29   136   135    2
    30   138   137    1
    31   138   140    1
    32   134   135    1
    33   134   137    1
    34   135   141   am
    35    47    48    1
    36   144   143    2
    37   139   137    1
    38   143   142    1
    39    95    96    1
    40    95    92    1
    41    96    97   ar
    42    96    98   ar
    43   141   142    1
    44   145   142    1
    45   145   146    1
    46    97    99   ar
    47    48    51    1
    48    48    49    1
    49    98   100   ar
    50   148   146   ar
    51    99   101   ar
    52   100   101   ar
    53   101   102    1
    54    93    94    2
    55    93    92    1
    56    51    52    1
    57   146   147   ar
    58    92    91    1
    59    49    50    2
    60   149   150    1
    61    16    15    2
    62    52    53    1
    63    91    86   am
    64    82    81   ar
    65   151   150    1
    66   151   152    2
    67    23    24    1
    68    23    22    1
    69    83    81   ar
    70    53    54    1
    71    24    25    2
    72    87    86    2
    73   150   153    1
    74   153   154    1
    75    81    80    1
    76    86    85    1
    77    15    22   am
    78    15    14    1
    79   154   155    1
    80   154   156    1
    81    46    45    1
    82    80    79    1
    83    13    14    1
    84    13    11   am
    85     4     3    2
    86    17    14    1
    87    17    18    1
    88    78    77    2
    89    18    19    1
    90    79    76    1
    91    85    84    1
    92    85    88    1
    93    10    11    1
    94    10     9    1
    95    77    84   am
    96    77    76    1
    97    45    44    1
    98    11    12    2
    99    89    88    1
   100    55    56    1
   101     3     9   am
   102     3     2    1
   103    21    20    1
   104    76    75    1
   105    88    90    1
   106    32    30    1
   107    19    20    1
   108    44    43    1
   109    75    73   am
   110     5     2    1
   111     5     6    1
   112     8     6    1
   113     2     1    1
   114    59    56    1
   115    59    60    1
   116    56    57    1
   117    30    31    1
   118    30    27    1
   119    37    34    1
   120     6     7    1
   121    73    72    1
   122    73    74    2
   123    43    42    1
   124    58    57    2
   125    62    60    1
   126    72    71    1
   127    60    61    1
   128    42    39    1
   129    69    68    1
   130    26    27    1
   131    27    28    1
   132    34    33    1
   133    34    35    1
   134    36    35    2
   135    29    28    2
   136    39    38    1
   137    39    40    1
   138    67    68    1
   139    67    64    1
   140    68    70    1
   141    66    65    2
   142    40    41    2
   143    65    64    1
   144    64    63    1
