@<TRIPOS>MOLECULE
tmp/5wa6A00.pdb
 167 158 0 0 0
SMALL
GASTEIGER

@<TRIPOS>ATOM
      1  N        495.7280  199.1880  546.7840 N.3    24  ALA24      -0.1231
      2  CA       495.7650  198.2500  547.9020 C.3    24  ALA24       0.1694
      3  C        495.0460  196.9520  547.5690 C.2    24  ALA24       0.2591
      4  O        495.4310  195.8900  548.0690 O.2    24  ALA24      -0.2718
      5  CB       495.1540  198.8840  549.1520 C.3    24  ALA24       0.0304
      6  N        494.0060  197.0100  546.7350 N.am   25  MET25      -0.1979
      7  CA       493.2820  195.8050  546.3510 C.3    25  MET25       0.1605
      8  C        493.9260  195.0780  545.1810 C.2    25  MET25       0.2287
      9  O        493.8720  193.8440  545.1290 O.2    25  MET25      -0.2864
     10  CB       491.8320  196.1410  545.9970 C.3    25  MET25       0.0413
     11  CG       490.9920  196.5550  547.1850 C.3    25  MET25       0.0598
     12  SD       489.2810  196.8630  546.7250 S.3    25  MET25      -0.1393
     13  CE       488.6860  195.1920  546.4650 C.3    25  MET25       0.0692
     14  N        497.7960  192.3140  546.7550 N.3    28  TYR28      -0.1241
     15  CA       497.0600  191.2420  547.4290 C.3    28  TYR28       0.1605
     16  C        496.0490  190.5640  546.5070 C.2    28  TYR28       0.2264
     17  O        495.3670  189.6300  546.9440 O.2    28  TYR28      -0.2867
     18  CB       496.3230  191.7090  548.6960 C.3    28  TYR28       0.0534
     19  CG       497.2040  192.3120  549.7690 C.ar   28  TYR28      -0.0201
     20  CD1      497.7550  191.5190  550.7700 C.ar   28  TYR28      -0.0009
     21  CD2      497.4680  193.6760  549.7940 C.ar   28  TYR28      -0.0009
     22  CE1      498.5550  192.0660  551.7570 C.ar   28  TYR28       0.0417
     23  CE2      498.2680  194.2320  550.7780 C.ar   28  TYR28       0.0417
     24  CZ       498.8080  193.4220  551.7560 C.ar   28  TYR28       0.1957
     25  OH       499.6030  193.9720  552.7360 O.3    28  TYR28      -0.2866
     26  N        493.0210  191.5650  544.3950 N.3    30  GLU30      -0.1245
     27  CA       491.5750  191.7310  544.4630 C.3    30  GLU30       0.1567
     28  C        491.1450  192.7560  543.4200 C.2    30  GLU30       0.2260
     29  O        491.9400  193.5840  542.9680 O.2    30  GLU30      -0.2867
     30  CB       491.1120  192.1660  545.8630 C.3    30  GLU30       0.0388
     31  CG       491.4920  191.2040  546.9800 C.3    30  GLU30       0.1160
     32  CD       490.2850  190.5580  547.6350 C.2    30  GLU30       0.3649
     33  OE1      490.4270  190.0330  548.7600 O.co2  30  GLU30      -0.2457
     34  OE2      489.1950  190.5750  547.0250 O.co2  30  GLU30      -0.2457
     35  N        483.8910  195.3960  549.5450 N.3    38  LYS38      -0.1245
     36  CA       485.2310  195.5040  550.1130 C.3    38  LYS38       0.1561
     37  C        485.9280  196.7730  549.6380 C.2    38  LYS38       0.2260
     38  O        486.6520  197.4180  550.4060 O.2    38  LYS38      -0.2867
     39  CB       486.0450  194.2700  549.7330 C.3    38  LYS38       0.0271
     40  CG       487.4430  194.2480  550.2930 C.3    38  LYS38       0.0035
     41  CD       487.8650  192.8270  550.5910 C.3    38  LYS38       0.0206
     42  CE       489.0420  192.8250  551.5240 C.3    38  LYS38       0.1093
     43  NZ       488.5520  193.1790  552.8720 N.3    38  LYS38      -0.1314
     44  N        484.7020  199.3700  551.8470 N.3    41  ALA41      -0.1231
     45  CA       485.2410  199.2590  553.1990 C.3    41  ALA41       0.1694
     46  C        486.6630  199.8020  553.2780 C.2    41  ALA41       0.2591
     47  O        487.0230  200.4740  554.2530 O.2    41  ALA41      -0.2718
     48  CB       485.1930  197.8040  553.6650 C.3    41  ALA41       0.0304
     49  N        487.4830  199.5310  552.2590 N.am   42  ILE42      -0.1980
     50  CA       488.8600  200.0120  552.2740 C.3    42  ILE42       0.1595
     51  C        488.8940  201.5340  552.2040 C.2    42  ILE42       0.2287
     52  O        489.6400  202.1850  552.9450 O.2    42  ILE42      -0.2864
     53  CB       489.6670  199.3740  551.1280 C.3    42  ILE42       0.0276
     54  CG1      489.9490  197.9020  551.4250 C.3    42  ILE42       0.0022
     55  CG2      490.9850  200.1020  550.9430 C.3    42  ILE42       0.0022
     56  CD1      490.8960  197.6920  552.5850 C.3    42  ILE42       0.0001
     57  N        487.8110  202.9010  555.6690 N.3    45  HIS45      -0.1241
     58  CA       488.8400  202.7800  556.6950 C.3    45  HIS45       0.1621
     59  C        490.0420  203.6610  556.3830 C.2    45  HIS45       0.2264
     60  O        490.6770  204.1910  557.3020 O.2    45  HIS45      -0.2867
     61  CB       489.2440  201.3120  556.8290 C.3    45  HIS45       0.0745
     62  CG       490.5160  201.0820  557.5880 C.ar   45  HIS45       0.0817
     63  ND1      491.7610  201.2180  557.0140 N.ar   45  HIS45      -0.2268
     64  CD2      490.7340  200.6800  558.8650 C.ar   45  HIS45       0.1154
     65  CE1      492.6900  200.9340  557.9080 C.ar   45  HIS45       0.1986
     66  NE2      492.0940  200.6030  559.0400 N.ar   45  HIS45      -0.2212
     67  N        499.1300  202.8700  557.2050 N.3    65  GLU65      -0.1245
     68  CA       498.1570  202.4230  556.2200 C.3    65  GLU65       0.1567
     69  C        498.1870  203.3450  555.0080 C.2    65  GLU65       0.2260
     70  O        498.5330  204.5240  555.1070 O.2    65  GLU65      -0.2867
     71  CB       496.7510  202.3880  556.8330 C.3    65  GLU65       0.0388
     72  CG       495.6540  201.8550  555.9090 C.3    65  GLU65       0.1160
     73  CD       495.5230  200.3420  555.9630 C.2    65  GLU65       0.3649
     74  OE1      494.4030  199.8250  555.7620 O.co2  65  GLU65      -0.2457
     75  OE2      496.5430  199.6680  556.2130 O.co2  65  GLU65      -0.2457
     76  N        500.9930  194.4720  560.2580 N.3    91  LEU91      -0.1231
     77  CA       501.0580  195.8950  559.9610 C.3    91  LEU91       0.1678
     78  C        499.9810  196.6500  560.7340 C.2    91  LEU91       0.2434
     79  O        498.7900  196.3270  560.6020 O.2    91  LEU91      -0.2733
     80  CB       500.8920  196.1310  558.4610 C.3    91  LEU91       0.0284
     81  CG       502.1440  196.3850  557.6120 C.3    91  LEU91       0.0019
     82  CD1      501.7630  196.9250  556.2380 C.3    91  LEU91       0.0001
     83  CD2      503.1120  197.3350  558.3090 C.3    91  LEU91       0.0001
     84  N        500.3430  197.6340  561.5520 N.am   92  PRO92      -0.2718
     85  CA       499.3250  198.5020  562.1490 C.3    92  PRO92       0.1535
     86  C        499.0130  199.6570  561.2160 C.2    92  PRO92       0.2598
     87  O        499.5950  199.7430  560.1280 O.2    92  PRO92      -0.2715
     88  CB       499.9940  198.9700  563.4430 C.3    92  PRO92       0.0310
     89  CG       501.4450  199.0500  563.0680 C.3    92  PRO92       0.0237
     90  CD       501.6980  197.9880  562.0090 C.3    92  PRO92       0.0939
     91  N        498.1170  200.5560  561.6190 N.am   93  ASP93      -0.1972
     92  CA       497.7040  201.6490  560.7460 C.3    93  ASP93       0.1709
     93  C        498.4320  202.9580  561.0270 C.2    93  ASP93       0.2293
     94  O        498.7500  203.6930  560.0890 O.2    93  ASP93      -0.2864
     95  CB       496.1920  201.8710  560.8530 C.3    93  ASP93       0.1436
     96  CG       495.3980  200.6140  560.5530 C.2    93  ASP93       0.3671
     97  OD1      494.9850  199.9250  561.5080 O.co2  93  ASP93      -0.2456
     98  OD2      495.2090  200.2960  559.3620 O.co2  93  ASP93      -0.2456
     99  N        495.9670  200.1610  565.7710 N.3   104  GLU104     -0.1231
    100  CA       495.2140  199.4370  564.7500 C.3   104  GLU104      0.1699
    101  C        493.7770  199.9410  564.7970 C.2   104  GLU104      0.2592
    102  O        493.0340  199.6330  565.7370 O.2   104  GLU104     -0.2718
    103  CB       495.2800  197.9190  564.9440 C.3   104  GLU104      0.0402
    104  CG       494.2660  197.1920  564.0880 C.3   104  GLU104      0.1161
    105  CD       494.6700  197.2290  562.6300 C.2   104  GLU104      0.3649
    106  OE1      495.8860  197.2130  562.3550 O.co2 104  GLU104     -0.2457
    107  OE2      493.7740  197.3520  561.7680 O.co2 104  GLU104     -0.2457
    108  N        493.3930  200.7250  563.7880 N.am  105  ILE105     -0.1966
    109  CA       492.0480  201.2770  563.7220 C.3   105  ILE105      0.1727
    110  C        491.1180  200.2660  563.0670 C.2   105  ILE105      0.2617
    111  O        491.4850  199.5740  562.1050 O.2   105  ILE105     -0.2715
    112  CB       492.0520  202.6280  562.9820 C.3   105  ILE105      0.0290
    113  CG1      493.2350  203.4780  563.4610 C.3   105  ILE105      0.0022
    114  CG2      490.7360  203.3750  563.2110 C.3   105  ILE105      0.0023
    115  CD1      493.0850  204.9650  563.1640 C.3   105  ILE105      0.0001
    116  N        489.9180  200.1550  563.6110 N.am  106  GLY106     -0.1940
    117  CA       488.9030  199.2680  563.0600 C.3   106  GLY106      0.2014
    118  C        487.6320  200.0120  562.7470 C.2   106  GLY106      0.2638
    119  O        487.1910  200.8720  563.5130 O.2   106  GLY106     -0.2714
    120  N        487.0290  199.6820  561.5980 N.am  107  VAL107     -0.1977
    121  CA       485.7200  200.2010  561.2120 C.3   107  VAL107      0.1596
    122  C        484.8260  199.0100  560.9050 C.2   107  VAL107      0.2287
    123  O        485.0740  198.2770  559.9380 O.2   107  VAL107     -0.2864
    124  CB       485.7920  201.1580  560.0110 C.3   107  VAL107      0.0276
    125  CG1      484.4170  201.7500  559.7200 C.3   107  VAL107      0.0022
    126  CG2      486.8010  202.2770  560.2710 C.3   107  VAL107      0.0022
    127  N        480.8690  196.9040  560.8470 N.3   109  ARG109     -0.1245
    128  CA       479.4260  196.9170  560.6440 C.3   109  ARG109      0.1563
    129  C        478.6510  196.2290  561.7640 C.2   109  ARG109      0.2260
    130  O        477.5000  196.5990  562.0180 O.2   109  ARG109     -0.2867
    131  CB       479.0780  196.2530  559.3070 C.3   109  ARG109      0.0307
    132  CG       479.3950  197.1500  558.1410 C.3   109  ARG109      0.0489
    133  CD       479.8080  196.4280  556.8830 C.3   109  ARG109      0.2205
    134  NE       481.2270  196.1190  556.8800 N.pl3 109  ARG109     -0.0865
    135  CZ       481.8270  195.4810  555.8520 C.cat 109  ARG109      0.5346
    136  NH1      481.1690  195.0960  554.7610 N.pl3 109  ARG109      0.1354
    137  NH2      483.1290  195.2020  555.8840 N.pl3 109  ARG109      0.1354
    138  N        484.1270  192.6670  567.2790 N.3   115  TYR115     -0.1241
    139  CA       485.2740  192.8770  566.3980 C.3   115  TYR115      0.1605
    140  C        486.5520  193.1020  567.1940 C.2   115  TYR115      0.2264
    141  O        487.6170  192.6030  566.8120 O.2   115  TYR115     -0.2867
    142  CB       485.0370  194.0500  565.4490 C.3   115  TYR115      0.0534
    143  CG       486.2490  194.3770  564.5910 C.ar  115  TYR115     -0.0201
    144  CD1      486.8370  195.6340  564.6410 C.ar  115  TYR115     -0.0009
    145  CD2      486.8020  193.4330  563.7310 C.ar  115  TYR115     -0.0009
    146  CE1      487.9400  195.9480  563.8620 C.ar  115  TYR115      0.0417
    147  CE2      487.9140  193.7410  562.9430 C.ar  115  TYR115      0.0417
    148  CZ       488.4760  195.0020  563.0170 C.ar  115  TYR115      0.1957
    149  OH       489.5740  195.3300  562.2510 O.3   115  TYR115     -0.2866
    150  N        489.9490  191.4200  566.6660 N.3   119  LYS119     -0.1245
    151  CA       491.1380  192.2290  566.4130 C.3   119  LYS119      0.1561
    152  C        492.2150  191.9760  567.4620 C.2   119  LYS119      0.2260
    153  O        493.4040  191.9030  567.1320 O.2   119  LYS119     -0.2867
    154  CB       490.7650  193.7120  566.3670 C.3   119  LYS119      0.0271
    155  CG       491.9120  194.6430  566.0460 C.3   119  LYS119      0.0035
    156  CD       492.3860  194.5340  564.5870 C.3   119  LYS119      0.0206
    157  CE       493.2770  193.3100  564.3490 C.3   119  LYS119      0.1093
    158  NZ       494.4530  193.2990  565.2740 N.3   119  LYS119     -0.1314
    159  N        493.9840  188.3930  566.9470 N.3   122  LYS122     -0.1245
    160  CA       495.1140  188.4590  566.0290 C.3   122  LYS122      0.1561
    161  C        496.2100  189.4090  566.5050 C.2   122  LYS122      0.2260
    162  O        497.1590  189.6610  565.7550 O.2   122  LYS122     -0.2867
    163  CB       494.6370  188.8770  564.6340 C.3   122  LYS122      0.0271
    164  CG       493.8210  187.6910  564.0530 C.3   122  LYS122      0.0035
    165  CD       493.5330  188.0380  562.5950 C.3   122  LYS122      0.0206
    166  CE       492.0530  187.7350  562.3410 C.3   122  LYS122      0.1093
    167  NZ       491.2930  188.4380  563.4410 N.3   122  LYS122     -0.1314
@<TRIPOS>BOND
     1    29    28    2
     2    28    27    1
     3    26    27    1
     4    27    30    1
     5     9     8    2
     6     8     7    1
     7    30    31    1
     8    10     7    1
     9    10    11    1
    10     7     6    1
    11    13    12    1
    12    16    17    2
    13    16    15    1
    14    12    11    1
    15     6     3   am
    16    14    15    1
    17     1     2    1
    18    31    32    1
    19    34    32   ar
    20    15    18    1
    21     3     2    1
    22     3     4    2
    23    32    33   ar
    24     2     5    1
    25    18    19    1
    26    35    36    1
    27    37    36    1
    28    37    38    2
    29    39    36    1
    30    39    40    1
    31    19    21   ar
    32    19    20   ar
    33    21    23   ar
    34    40    41    1
    35    41    42    1
    36    20    22   ar
    37    23    24   ar
    38    55    53    1
    39    53    54    1
    40    53    50    1
    41    54    56    1
    42    42    43    1
    43    24    22   ar
    44    24    25    1
    45    44    45    1
    46    51    50    1
    47    51    52    2
    48    49    50    1
    49    49    46   am
    50    45    46    1
    51    45    48    1
    52    46    47    2
    53   136   135    1
    54    69    70    2
    55    69    68    1
    56    57    58    1
    57    74    73   ar
    58   135   137    1
    59   135   134    2
    60    72    73    1
    61    72    71    1
    62    73    75   ar
    63    68    71    1
    64    68    67    1
    65    82    81    1
    66    59    58    1
    67    59    60    2
    68    58    61    1
    69    61    62    1
    70   134   133    1
    71   133   132    1
    72    63    62   ar
    73    63    65   ar
    74    62    64   ar
    75    81    83    1
    76    81    80    1
    77    65    66   ar
    78   132   131    1
    79    80    77    1
    80    64    66   ar
    81   131   128    1
    82    98    96   ar
    83   125   124    1
    84   123   122    2
    85    77    76    1
    86    77    78    1
    87   124   126    1
    88   124   121    1
    89    94    93    2
    90    87    86    2
    91    96    95    1
    92    96    97   ar
    93    79    78    2
    94   128   127    1
    95   128   129    1
    96    78    84   am
    97    92    95    1
    98    92    93    1
    99    92    91    1
   100   122   121    1
   101   121   120    1
   102    86    91   am
   103    86    85    1
   104    84    90    1
   105    84    85    1
   106   120   118   am
   107   129   130    2
   108   107   105   ar
   109    90    89    1
   110   111   110    2
   111    85    88    1
   112   149   148    1
   113   166   165    1
   114   166   167    1
   115   106   105   ar
   116   165   164    1
   117   105   104    1
   118   118   117    1
   119   118   119    2
   120   147   148   ar
   121   147   145   ar
   122   112   114    1
   123   112   113    1
   124   112   109    1
   125   148   146   ar
   126   117   116    1
   127   110   116   am
   128   110   109    1
   129    89    88    1
   130   115   113    1
   131   109   108    1
   132   145   143   ar
   133   108   101   am
   134   146   144   ar
   135   164   163    1
   136   104   103    1
   137   157   156    1
   138   157   158    1
   139   156   155    1
   140   143   144   ar
   141   143   142    1
   142   163   160    1
   143   100   101    1
   144   100   103    1
   145   100    99    1
   146   101   102    2
   147   142   139    1
   148   162   161    2
   149   160   161    1
   150   160   159    1
   151   155   154    1
   152   154   151    1
   153   139   140    1
   154   139   138    1
   155   151   150    1
   156   151   152    1
   157   141   140    2
   158   153   152    2
