@<TRIPOS>MOLECULE
tmp/5wa7A00.pdb
 169 157 0 0 0
SMALL
GASTEIGER

@<TRIPOS>ATOM
      1  N        494.2290  198.4530  548.9370 N.3    24  ALA24      -0.1231
      2  CA       494.2900  197.4700  550.0130 C.3    24  ALA24       0.1694
      3  C        493.6370  196.1570  549.5990 C.2    24  ALA24       0.2591
      4  O        494.2010  195.0760  549.8070 O.2    24  ALA24      -0.2718
      5  CB       493.6240  198.0300  551.2690 C.3    24  ALA24       0.0304
      6  N        492.4420  196.2320  549.0080 N.am   25  MET25      -0.1979
      7  CA       491.7290  195.0180  548.6240 C.3    25  MET25       0.1605
      8  C        492.4820  194.2570  547.5410 C.2    25  MET25       0.2287
      9  O        492.6700  193.0390  547.6380 O.2    25  MET25      -0.2864
     10  CB       490.3160  195.3640  548.1560 C.3    25  MET25       0.0413
     11  CG       489.3700  195.7550  549.2790 C.3    25  MET25       0.0598
     12  SD       487.6790  195.9940  548.7020 S.3    25  MET25      -0.1393
     13  CE       487.0900  194.3030  548.6500 C.3    25  MET25       0.0692
     14  N        495.4500  192.3220  548.7550 N.3    28  TYR28      -0.1241
     15  CA       495.0600  191.0470  549.3410 C.3    28  TYR28       0.1605
     16  C        494.1530  190.2360  548.4220 C.2    28  TYR28       0.2264
     17  O        493.3600  189.4150  548.9020 O.2    28  TYR28      -0.2867
     18  CB       494.3960  191.2760  550.6990 C.3    28  TYR28       0.0534
     19  CG       495.3540  191.8000  551.7480 C.ar   28  TYR28      -0.0201
     20  CD1      495.6520  193.1540  551.8300 C.ar   28  TYR28      -0.0009
     21  CD2      495.9710  190.9380  552.6450 C.ar   28  TYR28      -0.0009
     22  CE1      496.5310  193.6370  552.7820 C.ar   28  TYR28       0.0417
     23  CE2      496.8510  191.4120  553.6010 C.ar   28  TYR28       0.0417
     24  CZ       497.1280  192.7610  553.6650 C.ar   28  TYR28       0.1957
     25  OH       498.0030  193.2380  554.6140 O.3    28  TYR28      -0.2866
     26  N        491.4330  190.8310  546.3770 N.3    30  GLU30      -0.1245
     27  CA       489.9880  190.9510  546.4920 C.3    30  GLU30       0.1567
     28  C        489.4890  192.0530  545.5690 C.2    30  GLU30       0.2260
     29  O        490.1980  193.0240  545.2910 O.2    30  GLU30      -0.2867
     30  CB       489.5630  191.2300  547.9400 C.3    30  GLU30       0.0388
     31  CG       489.6830  190.0160  548.8530 C.3    30  GLU30       0.1160
     32  CD       488.9610  190.1990  550.1730 C.2    30  GLU30       0.3649
     33  OE1      489.0270  191.3090  550.7380 O.co2  30  GLU30      -0.2457
     34  OE2      488.3280  189.2310  550.6470 O.co2  30  GLU30      -0.2457
     35  N        482.4650  194.5840  551.8240 N.3    38  LYS38      -0.1245
     36  CA       483.7960  194.7820  552.3880 C.3    38  LYS38       0.1561
     37  C        484.3810  196.1100  551.9310 C.2    38  LYS38       0.2260
     38  O        484.8200  196.9240  552.7520 O.2    38  LYS38      -0.2867
     39  CB       484.7120  193.6140  552.0080 C.3    38  LYS38       0.0271
     40  CG       485.6830  193.2240  553.1150 C.3    38  LYS38       0.0035
     41  CD       486.5800  192.0610  552.7290 C.3    38  LYS38       0.0206
     42  CE       487.1020  191.3610  553.9760 C.3    38  LYS38       0.1093
     43  NZ       487.6640  190.0060  553.7090 N.3    38  LYS38      -0.1314
     44  N        483.3860  198.5220  553.9690 N.3    41  ALA41      -0.1231
     45  CA       483.8500  198.3760  555.3460 C.3    41  ALA41       0.1694
     46  C        485.2190  199.0160  555.5470 C.2    41  ALA41       0.2591
     47  O        485.4370  199.7330  556.5300 O.2    41  ALA41      -0.2718
     48  CB       483.8750  196.8990  555.7440 C.3    41  ALA41       0.0304
     49  N        486.1610  198.7690  554.6280 N.am   42  ILE42      -0.1980
     50  CA       487.5090  199.3110  554.7990 C.3    42  ILE42       0.1595
     51  C        487.5130  200.8210  554.5720 C.2    42  ILE42       0.2287
     52  O        488.2790  201.5490  555.2140 O.2    42  ILE42      -0.2864
     53  CB       488.5510  198.6010  553.9000 C.3    42  ILE42       0.0276
     54  CG1      488.4360  197.0700  553.9280 C.3    42  ILE42       0.0022
     55  CG2      489.9710  199.0440  554.2820 C.3    42  ILE42       0.0022
     56  CD1      487.7640  196.4310  552.7200 C.3    42  ILE42       0.0001
     57  N        486.4630  202.0800  557.8380 N.3    45  HIS45      -0.1241
     58  CA       487.5690  201.9100  558.7740 C.3    45  HIS45       0.1621
     59  C        488.6680  202.9360  558.5200 C.2    45  HIS45       0.2264
     60  O        489.2160  203.5240  559.4600 O.2    45  HIS45      -0.2867
     61  CB       488.1190  200.4880  558.6660 C.3    45  HIS45       0.0745
     62  CG       489.2430  200.1990  559.6090 C.ar   45  HIS45       0.0817
     63  ND1      490.5670  200.3640  559.2620 N.ar   45  HIS45      -0.2268
     64  CD2      489.2430  199.7470  560.8850 C.ar   45  HIS45       0.1154
     65  CE1      491.3340  200.0320  560.2860 C.ar   45  HIS45       0.1986
     66  NE2      490.5550  199.6530  561.2830 N.ar   45  HIS45      -0.2212
     67  N        497.6850  202.5420  559.4740 N.3    65  GLU65      -0.1245
     68  CA       496.6630  202.1060  558.5340 C.3    65  GLU65       0.1567
     69  C        496.6630  203.0030  557.3020 C.2    65  GLU65       0.2260
     70  O        496.9040  204.2090  557.3830 O.2    65  GLU65      -0.2867
     71  CB       495.2860  202.1130  559.2080 C.3    65  GLU65       0.0388
     72  CG       494.0960  201.9780  558.2640 C.3    65  GLU65       0.1160
     73  CD       493.8310  200.5420  557.8430 C.2    65  GLU65       0.3649
     74  OE1      494.5550  199.6340  558.3070 O.co2  65  GLU65      -0.2457
     75  OE2      492.8900  200.3190  557.0510 O.co2  65  GLU65      -0.2457
     76  N        499.3710  193.9350  562.2580 N.3    91  LEU91      -0.1245
     77  CA       499.4630  195.3610  561.9910 C.3    91  LEU91       0.1561
     78  C        498.4020  196.1210  562.7820 C.2    91  LEU91       0.2260
     79  O        497.2080  195.8070  562.6740 O.2    91  LEU91      -0.2867
     80  CB       499.3010  195.6390  560.5000 C.3    91  LEU91       0.0270
     81  CG       500.5690  195.8160  559.6640 C.3    91  LEU91       0.0019
     82  CD1      500.1920  196.2220  558.2520 C.3    91  LEU91       0.0001
     83  CD2      501.5110  196.8470  560.2830 C.3    91  LEU91       0.0001
     84  N        496.6390  200.0490  563.7550 N.3    93  ASP93      -0.1239
     85  CA       496.2110  201.1620  562.9150 C.3    93  ASP93       0.1674
     86  C        496.9850  202.4450  563.1800 C.2    93  ASP93       0.2266
     87  O        497.3150  203.1660  562.2350 O.2    93  ASP93      -0.2867
     88  CB       494.7100  201.4130  563.0920 C.3    93  ASP93       0.1410
     89  CG       493.8710  200.2120  562.6940 C.2    93  ASP93       0.3668
     90  OD1      492.9850  199.8110  563.4790 O.co2  93  ASP93      -0.2456
     91  OD2      494.1040  199.6700  561.5930 O.co2  93  ASP93      -0.2456
     92  N        494.5360  199.6590  568.0230 N.3   104  GLU104     -0.1231
     93  CA       493.7810  198.9000  567.0340 C.3   104  GLU104      0.1699
     94  C        492.3430  199.4000  567.0850 C.2   104  GLU104      0.2592
     95  O        491.6370  199.1680  568.0730 O.2   104  GLU104     -0.2718
     96  CB       493.8680  197.4000  567.3050 C.3   104  GLU104      0.0402
     97  CG       492.7860  196.5800  566.6080 C.3   104  GLU104      0.1161
     98  CD       492.7390  196.8350  565.1080 C.2   104  GLU104      0.3649
     99  OE1      491.6340  197.0720  564.5790 O.co2 104  GLU104     -0.2457
    100  OE2      493.8080  196.7990  564.4640 O.co2 104  GLU104     -0.2457
    101  N        491.9170  200.1060  566.0380 N.am  105  ILE105     -0.1966
    102  CA       490.5800  200.6910  566.0040 C.3   105  ILE105      0.1727
    103  C        489.6260  199.7590  565.2790 C.2   105  ILE105      0.2617
    104  O        489.9490  199.2270  564.2070 O.2   105  ILE105     -0.2715
    105  CB       490.5900  202.0820  565.3500 C.3   105  ILE105      0.0290
    106  CG1      491.6720  202.9770  565.9660 C.3   105  ILE105      0.0022
    107  CG2      489.2390  202.7520  565.5190 C.3   105  ILE105      0.0023
    108  CD1      491.7110  204.3770  565.3750 C.3   105  ILE105      0.0001
    109  N        488.4400  199.5720  565.8490 N.am  106  GLY106     -0.1940
    110  CA       487.4490  198.6720  565.3030 C.3   106  GLY106      0.2014
    111  C        486.1510  199.3890  564.9950 C.2   106  GLY106      0.2638
    112  O        485.7440  200.3100  565.7090 O.2   106  GLY106     -0.2714
    113  N        485.5060  198.9660  563.9110 N.am  107  VAL107     -0.1977
    114  CA       484.2040  199.4730  563.4920 C.3   107  VAL107      0.1596
    115  C        483.3370  198.2560  563.2060 C.2   107  VAL107      0.2287
    116  O        483.6020  197.5130  562.2520 O.2   107  VAL107     -0.2864
    117  CB       484.2950  200.3830  562.2590 C.3   107  VAL107      0.0276
    118  CG1      482.9410  200.9910  561.9550 C.3   107  VAL107      0.0022
    119  CG2      485.3380  201.4790  562.4690 C.3   107  VAL107      0.0022
    120  N        479.2440  196.3550  563.1990 N.3   109  ARG109     -0.1245
    121  CA       477.7990  196.4890  563.0930 C.3   109  ARG109      0.1563
    122  C        477.0590  195.6180  564.0960 C.2   109  ARG109      0.2260
    123  O        475.8250  195.6340  564.1200 O.2   109  ARG109     -0.2867
    124  CB       477.3390  196.1470  561.6710 C.3   109  ARG109      0.0307
    125  CG       477.7200  197.2920  560.6600 C.3   109  ARG109      0.0489
    126  CD       479.1730  197.1140  560.1820 C.3   109  ARG109      0.2205
    127  NE       479.1830  196.1020  559.0860 N.pl3 109  ARG109     -0.0865
    128  CZ       480.2970  195.4740  558.6510 C.cat 109  ARG109      0.5346
    129  NH1      481.5010  195.6420  559.2790 N.pl3 109  ARG109      0.1354
    130  NH2      480.1680  194.6680  557.5870 N.pl3 109  ARG109      0.1354
    131  N        482.6190  192.1940  569.5220 N.3   115  TYR115     -0.1241
    132  CA       483.7580  192.5260  568.6680 C.3   115  TYR115      0.1605
    133  C        485.0300  192.7390  569.4820 C.2   115  TYR115      0.2264
    134  O        486.1020  192.2530  569.1020 O.2   115  TYR115     -0.2867
    135  CB       483.4480  193.7640  567.8250 C.3   115  TYR115      0.0534
    136  CG       484.4050  193.9540  566.6690 C.ar  115  TYR115     -0.0201
    137  CD1      484.4280  193.0600  565.6060 C.ar  115  TYR115     -0.0009
    138  CD2      485.2930  195.0220  566.6470 C.ar  115  TYR115     -0.0009
    139  CE1      485.3040  193.2290  564.5500 C.ar  115  TYR115      0.0417
    140  CE2      486.1710  195.1980  565.5960 C.ar  115  TYR115      0.0417
    141  CZ       486.1740  194.2990  564.5510 C.ar  115  TYR115      0.1957
    142  OH       487.0520  194.4750  563.5070 O.3   115  TYR115     -0.2866
    143  N        488.4920  190.7900  569.1920 N.3   119  LYS119     -0.1245
    144  CA       489.6810  191.5920  568.9280 C.3   119  LYS119      0.1561
    145  C        490.7410  191.4010  570.0040 C.2   119  LYS119      0.2260
    146  O        491.9320  191.5610  569.7270 O.2   119  LYS119     -0.2867
    147  CB       489.3060  193.0700  568.8120 C.3   119  LYS119      0.0271
    148  CG       488.7960  193.4020  567.4090 C.3   119  LYS119      0.0035
    149  CD       489.9940  193.2350  566.5000 C.3   119  LYS119      0.0206
    150  CE       489.6450  192.8340  565.1040 C.3   119  LYS119      0.1093
    151  NZ       490.9320  192.5860  564.3550 N.3   119  LYS119     -0.1314
    152  N        492.0140  187.4260  569.7530 N.3   122  LYS122     -0.1245
    153  CA       492.8020  187.3030  568.5340 C.3   122  LYS122      0.1561
    154  C        493.9910  188.2540  568.4980 C.2   122  LYS122      0.2260
    155  O        494.8740  188.0810  567.6530 O.2   122  LYS122     -0.2867
    156  CB       491.9230  187.5390  567.3040 C.3   122  LYS122      0.0271
    157  CG       492.4780  186.9970  566.0300 C.3   122  LYS122      0.0035
    158  CD       491.5640  187.3920  564.8840 C.3   122  LYS122      0.0206
    159  CE       492.3420  187.5580  563.5800 C.3   122  LYS122      0.1093
    160  NZ       493.4350  188.6040  563.6580 N.3   122  LYS122     -0.1314
    161  N        478.6900  191.1980  557.9070 N.3   180  GLU180     -0.1245
    162  CA       479.6120  190.9730  559.0120 C.3   180  GLU180      0.1567
    163  C        479.1110  189.8610  559.9290 C.2   180  GLU180      0.2260
    164  O        477.9050  189.6790  560.0990 O.2   180  GLU180     -0.2867
    165  CB       479.8100  192.2660  559.8080 C.3   180  GLU180      0.0388
    166  CG       480.7610  192.1430  560.9850 C.3   180  GLU180      0.1160
    167  CD       480.7610  193.3830  561.8610 C.2   180  GLU180      0.3649
    168  OE1      480.2930  194.4430  561.3950 O.co2 180  GLU180     -0.2457
    169  OE2      481.2260  193.2960  563.0170 O.co2 180  GLU180     -0.2457
@<TRIPOS>BOND
     1    29    28    2
     2    28    27    1
     3    26    27    1
     4    27    30    1
     5     8     9    2
     6     8     7    1
     7    30    31    1
     8    10     7    1
     9    10    11    1
    10    16    17    2
    11    16    15    1
    12     7     6    1
    13    13    12    1
    14    12    11    1
    15    14    15    1
    16    31    32    1
    17     1     2    1
    18     6     3   am
    19    15    18    1
    20     3     4    2
    21     3     2    1
    22     2     5    1
    23    32    34   ar
    24    32    33   ar
    25    18    19    1
    26    19    20   ar
    27    19    21   ar
    28    35    36    1
    29    20    22   ar
    30    37    36    1
    31    37    38    2
    32    39    36    1
    33    39    40    1
    34    21    23   ar
    35    56    54    1
    36    41    40    1
    37    41    42    1
    38    22    24   ar
    39    23    24   ar
    40    24    25    1
    41    43    42    1
    42    53    54    1
    43    53    55    1
    44    53    50    1
    45    44    45    1
    46    51    50    1
    47    51    52    2
    48    49    50    1
    49    49    46   am
    50    45    46    1
    51    45    48    1
    52    46    47    2
    53    75    73   ar
    54    69    70    2
    55    69    68    1
    56   130   128    1
    57    57    58    1
    58    73    72    1
    59    73    74   ar
    60   161   162    1
    61    82    81    1
    62    72    71    1
    63    59    58    1
    64    59    60    2
    65    68    71    1
    66    68    67    1
    67   128   127    2
    68   128   129    1
    69    61    58    1
    70    61    62    1
    71   162   165    1
    72   162   163    1
    73   127   126    1
    74    63    62   ar
    75    63    65   ar
    76    62    64   ar
    77    81    83    1
    78    81    80    1
    79   165   166    1
    80   163   164    2
    81   126   125    1
    82    65    66   ar
    83    80    77    1
    84   125   124    1
    85    64    66   ar
    86   166   167    1
    87   168   167   ar
    88    91    89   ar
    89   124   121    1
    90   167   169   ar
    91   118   117    1
    92    77    76    1
    93    77    78    1
    94    87    86    2
    95   116   115    2
    96   117   119    1
    97   117   114    1
    98    79    78    2
    99    89    88    1
   100    89    90   ar
   101    85    88    1
   102    85    86    1
   103    85    84    1
   104   121   120    1
   105   121   122    1
   106   115   114    1
   107   114   113    1
   108   142   141    1
   109   159   160    1
   110   159   158    1
   111   113   111   am
   112   122   123    2
   113   104   103    2
   114   151   150    1
   115   100    98   ar
   116   139   141   ar
   117   139   137   ar
   118   141   140   ar
   119    99    98   ar
   120   158   157    1
   121   111   110    1
   122   111   112    2
   123   150   149    1
   124    98    97    1
   125   103   109   am
   126   103   102    1
   127   110   109    1
   128   105   107    1
   129   105   106    1
   130   105   102    1
   131   108   106    1
   132   140   138   ar
   133   137   136   ar
   134   102   101    1
   135   157   156    1
   136   101    94   am
   137   149   148    1
   138    97    96    1
   139   138   136   ar
   140   136   135    1
   141    93    94    1
   142    93    96    1
   143    93    92    1
   144    94    95    2
   145   156   153    1
   146   148   147    1
   147   155   154    2
   148   135   132    1
   149   154   153    1
   150   153   152    1
   151   132   133    1
   152   132   131    1
   153   147   144    1
   154   144   143    1
   155   144   145    1
   156   134   133    2
   157   146   145    2
