@<TRIPOS>MOLECULE
tmp/5wa9A00.pdb
 173 168 0 0 0
SMALL
GASTEIGER

@<TRIPOS>ATOM
      1  N        -32.7140   -1.7900  -33.5730 N.3     7  ILE7       -0.1231
      2  CA       -31.7090   -1.1120  -34.3770 C.3     7  ILE7        0.1692
      3  C        -30.3040   -1.5740  -34.0140 C.2     7  ILE7        0.2592
      4  O        -29.4060   -1.5600  -34.8600 O.2     7  ILE7       -0.2718
      5  CB       -31.8930    0.4100  -34.2910 C.3     7  ILE7        0.0266
      6  CG1      -31.8100    0.8640  -32.8420 C.3     7  ILE7        0.0019
      7  CG2      -33.1980    0.8350  -34.9260 C.3     7  ILE7        0.0020
      8  CD1      -31.5760    2.2910  -32.7330 C.3     7  ILE7        0.0001
      9  N        -30.0910   -2.0110  -32.7690 N.am    8  PHE8       -0.1976
     10  CA       -28.7660   -2.4980  -32.3930 C.3     8  PHE8        0.1639
     11  C        -28.4670   -3.8530  -33.0240 C.2     8  PHE8        0.2290
     12  O        -27.3170   -4.1250  -33.3870 O.2     8  PHE8       -0.2864
     13  CB       -28.6080   -2.5420  -30.8750 C.3     8  PHE8        0.0560
     14  CG       -28.6350   -1.1900  -30.2220 C.ar    8  PHE8       -0.0200
     15  CD1      -28.5530   -0.0170  -30.9730 C.ar    8  PHE8       -0.0042
     16  CD2      -28.7320   -1.0880  -28.8460 C.ar    8  PHE8       -0.0042
     17  CE1      -28.5850    1.2230  -30.3500 C.ar    8  PHE8       -0.0003
     18  CE2      -28.7620    0.1520  -28.2220 C.ar    8  PHE8       -0.0003
     19  CZ       -28.6890    1.3010  -28.9750 C.ar    8  PHE8       -0.0000
     20  N        -27.4190   -2.9390  -36.4310 N.3    11  ILE11      -0.1245
     21  CA       -26.0460   -2.4350  -36.4190 C.3    11  ILE11       0.1561
     22  C        -25.0480   -3.5840  -36.3180 C.2    11  ILE11       0.2260
     23  O        -24.0410   -3.6150  -37.0370 O.2    11  ILE11      -0.2867
     24  CB       -25.8720   -1.4000  -35.2900 C.3    11  ILE11       0.0252
     25  CG1      -26.5610   -0.0860  -35.6730 C.3    11  ILE11       0.0019
     26  CG2      -24.3980   -1.1940  -34.9570 C.3    11  ILE11       0.0019
     27  CD1      -26.5920    0.9530  -34.5700 C.3    11  ILE11       0.0001
     28  N        -27.4310   -1.4150  -40.8450 N.3    16  ILE16      -0.1231
     29  CA       -27.5190    0.0430  -40.7940 C.3    16  ILE16       0.1678
     30  C        -26.1810    0.5540  -40.2750 C.2    16  ILE16       0.2434
     31  O        -25.4840   -0.1660  -39.5430 O.2    16  ILE16      -0.2733
     32  CB       -28.7120    0.5430  -39.9600 C.3    16  ILE16       0.0265
     33  CG1      -28.5480    0.1650  -38.4980 C.3    16  ILE16       0.0019
     34  CG2      -30.0370    0.0250  -40.5080 C.3    16  ILE16       0.0020
     35  CD1      -29.6690    0.6850  -37.6250 C.3    16  ILE16       0.0001
     36  N        -25.7710    1.7620  -40.6390 N.am   17  PRO17      -0.2718
     37  CA       -24.3960    2.1820  -40.3650 C.3    17  PRO17       0.1535
     38  C        -24.1790    2.5870  -38.9170 C.2    17  PRO17       0.2598
     39  O        -25.0910    2.9930  -38.1890 O.2    17  PRO17      -0.2715
     40  CB       -24.2000    3.3840  -41.2930 C.3    17  PRO17       0.0310
     41  CG       -25.5650    3.9350  -41.4670 C.3    17  PRO17       0.0237
     42  CD       -26.4990    2.7560  -41.4470 C.3    17  PRO17       0.0939
     43  N        -22.9200    2.4710  -38.5160 N.am   18  ALA18      -0.1978
     44  CA       -22.4960    2.9020  -37.2000 C.3    18  ALA18       0.1597
     45  C        -21.0290    3.2850  -37.2690 C.2    18  ALA18       0.2287
     46  O        -20.2930    2.8400  -38.1520 O.2    18  ALA18      -0.2864
     47  CB       -22.7310    1.8130  -36.1450 C.3    18  ALA18       0.0319
     48  N        -19.7240    1.5590  -30.1760 N.3    30  PHE30      -0.1227
     49  CA       -19.9760    2.4720  -31.2880 C.3    30  PHE30       0.1736
     50  C        -20.5320    3.7790  -30.7420 C.2    30  PHE30       0.2595
     51  O        -21.1200    3.8220  -29.6590 O.2    30  PHE30      -0.2718
     52  CB       -20.9290    1.8650  -32.3310 C.3    30  PHE30       0.0547
     53  CG       -22.2750    1.4810  -31.7810 C.ar   30  PHE30      -0.0202
     54  CD1      -23.3730    2.3140  -31.9360 C.ar   30  PHE30      -0.0042
     55  CD2      -22.4440    0.2850  -31.1030 C.ar   30  PHE30      -0.0042
     56  CE1      -24.6120    1.9590  -31.4220 C.ar   30  PHE30      -0.0003
     57  CE2      -23.6730   -0.0690  -30.5850 C.ar   30  PHE30      -0.0003
     58  CZ       -24.7570    0.7590  -30.7430 C.ar   30  PHE30      -0.0000
     59  N        -20.3490    4.8540  -31.5050 N.am   31  HIS31      -0.1961
     60  CA       -20.7320    6.1730  -31.0170 C.3    31  HIS31       0.1787
     61  C        -22.2410    6.3740  -31.0310 C.2    31  HIS31       0.2620
     62  O        -22.9370    5.9280  -31.9490 O.2    31  HIS31      -0.2715
     63  CB       -20.0470    7.2500  -31.8440 C.3    31  HIS31       0.0785
     64  CG       -18.5700    7.2810  -31.6480 C.ar   31  HIS31       0.0821
     65  ND1      -17.9720    7.9730  -30.6150 N.ar   31  HIS31      -0.2267
     66  CD2      -17.5690    6.6740  -32.3290 C.ar   31  HIS31       0.1154
     67  CE1      -16.6630    7.8070  -30.6800 C.ar   31  HIS31       0.1986
     68  NE2      -16.3920    7.0210  -31.7080 N.ar   31  HIS31      -0.2212
     69  N        -22.7420    7.0680  -30.0050 N.am   32  ASP32      -0.1957
     70  CA       -24.1620    7.3790  -29.9250 C.3    32  ASP32       0.1840
     71  C        -24.5210    8.4710  -30.9320 C.2    32  ASP32       0.2622
     72  O        -23.8020    9.4630  -31.0730 O.2    32  ASP32      -0.2715
     73  CB       -24.4920    7.8450  -28.5040 C.3    32  ASP32       0.1450
     74  CG       -25.9700    7.7740  -28.1860 C.2    32  ASP32       0.3671
     75  OD1      -26.7460    8.5360  -28.8070 O.co2  32  ASP32      -0.2456
     76  OD2      -26.3540    6.9720  -27.3090 O.co2  32  ASP32      -0.2456
     77  N        -25.6560    8.3020  -31.6190 N.am   33  ILE33      -0.1963
     78  CA       -26.1190    9.2530  -32.6270 C.3    33  ILE33       0.1727
     79  C        -26.5980   10.5710  -32.0180 C.2    33  ILE33       0.2616
     80  O        -26.7090   11.5770  -32.7310 O.2    33  ILE33      -0.2715
     81  CB       -27.2210    8.5610  -33.4570 C.3    33  ILE33       0.0290
     82  CG1      -27.4120    9.2500  -34.8080 C.3    33  ILE33       0.0022
     83  CG2      -28.5320    8.5100  -32.6760 C.3    33  ILE33       0.0023
     84  CD1      -28.3610    8.5170  -35.7310 C.3    33  ILE33       0.0001
     85  N        -26.9220   10.5730  -30.7260 N.am   34  SER34      -0.1950
     86  CA       -27.4030   11.7610  -30.0210 C.3    34  SER34       0.1924
     87  C        -26.5280   11.9640  -28.7930 C.2    34  SER34       0.2314
     88  O        -26.9550   11.7220  -27.6570 O.2    34  SER34      -0.2863
     89  CB       -28.8750   11.6070  -29.6400 C.3    34  SER34       0.2116
     90  OG       -29.6920   11.5420  -30.7940 O.3    34  SER34      -0.2180
     91  N        -24.6170   13.0850  -25.5600 N.3    36  GLN36      -0.1245
     92  CA       -24.9120   13.9320  -24.4120 C.3    36  GLN36       0.1566
     93  C        -23.6540   14.4570  -23.7420 C.2    36  GLN36       0.2260
     94  O        -23.7400   15.1230  -22.7020 O.2    36  GLN36      -0.2867
     95  CB       -25.7420   13.1570  -23.3910 C.3    36  GLN36       0.0367
     96  CG       -27.0140   12.5900  -23.9680 C.3    36  GLN36       0.0905
     97  CD       -27.9540   13.6690  -24.4430 C.2    36  GLN36       0.2608
     98  OE1      -28.3240   14.5570  -23.6800 O.2    36  GLN36      -0.2717
     99  NE2      -28.3450   13.6060  -25.7120 N.am   36  GLN36      -0.0878
    100  N        -19.4630   10.2020  -26.3320 N.3    40  HIS40      -0.1241
    101  CA       -20.5940    9.4300  -25.8330 C.3    40  HIS40       0.1621
    102  C        -20.7360    8.2290  -26.7520 C.2    40  HIS40       0.2264
    103  O        -21.1280    8.3760  -27.9160 O.2    40  HIS40      -0.2867
    104  CB       -21.8530   10.2850  -25.8350 C.3    40  HIS40       0.0745
    105  CG       -23.0700    9.5950  -25.3110 C.ar   40  HIS40       0.0817
    106  ND1      -24.2890   10.2300  -25.2400 N.ar   40  HIS40      -0.2268
    107  CD2      -23.2680    8.3340  -24.8490 C.ar   40  HIS40       0.1154
    108  CE1      -25.1870    9.3920  -24.7540 C.ar   40  HIS40       0.1986
    109  NE2      -24.5940    8.2350  -24.5120 N.ar   40  HIS40      -0.2212
    110  N        -21.6100    3.7000  -26.9080 N.3    42  LEU42      -0.1245
    111  CA       -22.3740    2.5870  -26.3730 C.3    42  LEU42       0.1561
    112  C        -21.5620    1.3160  -26.5240 C.2    42  LEU42       0.2260
    113  O        -20.8460    1.1400  -27.5190 O.2    42  LEU42      -0.2867
    114  CB       -23.6870    2.3950  -27.1450 C.3    42  LEU42       0.0270
    115  CG       -24.5790    3.6360  -27.2050 C.3    42  LEU42       0.0019
    116  CD1      -25.8430    3.3670  -28.0120 C.3    42  LEU42       0.0001
    117  CD2      -24.9400    4.1180  -25.8180 C.3    42  LEU42       0.0001
    118  N        -29.5430    1.7350  -18.5070 N.3    88  ASN88      -0.1240
    119  CA       -30.9170    2.1060  -18.1980 C.3    88  ASN88       0.1653
    120  C        -31.8640    0.9260  -18.3350 C.2    88  ASN88       0.2266
    121  O        -31.8250    0.1970  -19.3320 O.2    88  ASN88      -0.2867
    122  CB       -31.3710    3.2220  -19.1230 C.3    88  ASN88       0.1155
    123  CG       -30.5480    4.4540  -18.9410 C.2    88  ASN88       0.2627
    124  OD1      -30.2410    4.8210  -17.8100 O.2    88  ASN88      -0.2716
    125  ND2      -30.1520    5.0830  -20.0380 N.am   88  ASN88      -0.0877
    126  N        -35.9330    4.2310  -16.0780 N.3    93  GLY93      -0.1210
    127  CA       -34.5540    4.4060  -16.4850 C.3    93  GLY93       0.1956
    128  C        -34.3710    5.1870  -17.7620 C.2    93  GLY93       0.2612
    129  O        -33.2480    5.5920  -18.0750 O.2    93  GLY93      -0.2717
    130  N        -35.4470    5.4010  -18.5150 N.am   94  GLY94      -0.1942
    131  CA       -35.3370    6.0720  -19.7940 C.3    94  GLY94       0.2014
    132  C        -34.9220    5.1830  -20.9420 C.2    94  GLY94       0.2639
    133  O        -34.5170    5.6940  -21.9930 O.2    94  GLY94      -0.2714
    134  N        -35.0010    3.8630  -20.7780 N.am   95  GLN95      -0.1963
    135  CA       -34.6100    2.9610  -21.8500 C.3    95  GLN95       0.1733
    136  C        -35.4610    3.2010  -23.0970 C.2    95  GLN95       0.2617
    137  O        -36.6840    3.3550  -23.0240 O.2    95  GLN95      -0.2715
    138  CB       -34.7270    1.5120  -21.3710 C.3    95  GLN95       0.0408
    139  CG       -34.1840    0.5200  -22.3820 C.3    95  GLN95       0.0908
    140  CD       -33.9640   -0.8680  -21.8170 C.2    95  GLN95       0.2608
    141  OE1      -34.4460   -1.2130  -20.7380 O.2    95  GLN95      -0.2717
    142  NE2      -33.2160   -1.6720  -22.5560 N.am   95  GLN95      -0.0878
    143  N        -34.8010    3.2430  -24.2560 N.am   96  SER96      -0.1936
    144  CA       -35.4810    3.4790  -25.5200 C.3    96  SER96       0.2055
    145  C        -35.2140    2.4060  -26.5580 C.2    96  SER96       0.2642
    146  O        -35.9870    2.2920  -27.5160 O.2    96  SER96      -0.2714
    147  CB       -35.0920    4.8470  -26.1070 C.3    96  SER96       0.2130
    148  OG       -33.7120    4.8950  -26.4200 O.3    96  SER96      -0.2179
    149  N        -34.1420    1.6380  -26.4120 N.am   97  VAL97      -0.1977
    150  CA       -33.8510    0.4950  -27.2660 C.3    97  VAL97       0.1596
    151  C        -33.7390   -0.7170  -26.3550 C.2    97  VAL97       0.2287
    152  O        -32.8990   -0.7370  -25.4440 O.2    97  VAL97      -0.2864
    153  CB       -32.5630    0.6940  -28.0800 C.3    97  VAL97       0.0276
    154  CG1      -32.3300   -0.4970  -28.9820 C.3    97  VAL97       0.0022
    155  CG2      -32.6300    1.9850  -28.9050 C.3    97  VAL97       0.0022
    156  N        -27.6170   -1.9580  -23.3230 N.3   101  ASN101     -0.1240
    157  CA       -26.6150   -1.0280  -23.8150 C.3   101  ASN101      0.1653
    158  C        -25.9900   -0.2480  -22.6660 C.2   101  ASN101      0.2266
    159  O        -26.6940    0.3160  -21.8180 O.2   101  ASN101     -0.2867
    160  CB       -27.1590   -0.1180  -24.9430 C.3   101  ASN101      0.1155
    161  CG       -28.3140    0.7930  -24.5110 C.2   101  ASN101      0.2627
    162  OD1      -28.0910    1.9370  -24.1300 O.2   101  ASN101     -0.2716
    163  ND2      -29.5470    0.3120  -24.6360 N.am  101  ASN101     -0.0877
    164  N        -23.7990    2.9260  -21.7260 N.3   103  HIS103     -0.1241
    165  CA       -23.3090    4.2200  -22.1940 C.3   103  HIS103      0.1621
    166  C        -21.9960    4.5410  -21.5040 C.2   103  HIS103      0.2264
    167  O        -21.8280    4.2640  -20.3140 O.2   103  HIS103     -0.2867
    168  CB       -24.2680    5.3410  -21.7990 C.3   103  HIS103      0.0745
    169  CG       -25.6310    5.2260  -22.3930 C.ar  103  HIS103      0.0817
    170  ND1      -26.0910    6.0820  -23.3710 N.ar  103  HIS103     -0.2268
    171  CD2      -26.6390    4.3630  -22.1360 C.ar  103  HIS103      0.1154
    172  CE1      -27.3230    5.7340  -23.7000 C.ar  103  HIS103      0.1986
    173  NE2      -27.6790    4.6950  -22.9640 N.ar  103  HIS103     -0.2212
@<TRIPOS>BOND
     1    41    42    1
     2    41    40    1
     3    42    36    1
     4    40    37    1
     5    28    29    1
     6    29    30    1
     7    29    32    1
     8    36    37    1
     9    36    30   am
    10    34    32    1
    11    37    38    1
    12    30    31    2
    13    32    33    1
    14    38    43   am
    15    38    39    2
    16    43    44    1
    17    33    35    1
    18    46    45    2
    19    45    44    1
    20    44    47    1
    21    23    22    2
    22    20    21    1
    23    21    22    1
    24    21    24    1
    25    84    82    1
    26    25    24    1
    27    25    27    1
    28    24    26    1
    29     7     5    1
    30     4     3    2
    31    82    81    1
    32     2     5    1
    33     2     3    1
    34     2     1    1
    35     5     6    1
    36     3     9   am
    37    81    83    1
    38    81    78    1
    39    12    11    2
    40    11    10    1
    41     6     8    1
    42     9    10    1
    43    80    79    2
    44    78    79    1
    45    78    77    1
    46    10    13    1
    47    52    53    1
    48    52    49    1
    49    66    68   ar
    50    66    64   ar
    51    79    85   am
    52    62    61    2
    53    54    53   ar
    54    54    56   ar
    55    63    64    1
    56    63    60    1
    57    53    55   ar
    58    68    67   ar
    59    64    65   ar
    60    77    71   am
    61    59    60    1
    62    59    50   am
    63    56    58   ar
    64    49    50    1
    65    49    48    1
    66    55    57   ar
    67    72    71    2
    68    61    60    1
    69    61    69   am
    70    15    17   ar
    71    15    14   ar
    72    71    70    1
    73    13    14    1
    74    90    89    1
    75    58    57   ar
    76    50    51    2
    77    85    86    1
    78    67    65   ar
    79    17    19   ar
    80    14    16   ar
    81    86    89    1
    82    86    87    1
    83    69    70    1
    84    70    73    1
    85   154   153    1
    86    19    18   ar
    87   155   153    1
    88    16    18   ar
    89    75    74   ar
    90    87    88    2
    91    73    74    1
    92    74    76   ar
    93   153   150    1
    94   116   115    1
    95   103   102    2
    96   113   112    2
    97   146   145    2
    98   150   149    1
    99   150   151    1
   100   115   114    1
   101   115   117    1
   102   114   111    1
   103   110   111    1
   104   102   101    1
   105   145   149   am
   106   145   144    1
   107   112   111    1
   108   148   147    1
   109   151   152    2
   110   100   101    1
   111   147   144    1
   112   104   101    1
   113   104   105    1
   114    99    97   am
   115    91    92    1
   116   144   143    1
   117   105   106   ar
   118   105   107   ar
   119   106   108   ar
   120   160   161    1
   121   160   157    1
   122   107   109   ar
   123   108   109   ar
   124   163   161   am
   125   161   162    2
   126    97    96    1
   127    97    98    2
   128    92    93    1
   129    92    95    1
   130   143   136   am
   131    96    95    1
   132   157   156    1
   133   157   158    1
   134    93    94    2
   135   172   170   ar
   136   172   173   ar
   137   170   169   ar
   138   136   137    2
   139   136   135    1
   140   173   171   ar
   141   158   159    2
   142   142   140   am
   143   169   171   ar
   144   169   168    1
   145   139   140    1
   146   139   138    1
   147   165   168    1
   148   165   164    1
   149   165   166    1
   150   133   132    2
   151   135   138    1
   152   135   134    1
   153   140   141    2
   154   166   167    2
   155   132   134   am
   156   132   131    1
   157   125   123   am
   158   131   130    1
   159   121   120    2
   160   122   123    1
   161   122   119    1
   162   123   124    2
   163   130   128   am
   164   118   119    1
   165   120   119    1
   166   129   128    2
   167   128   127    1
   168   127   126    1
