@<TRIPOS>MOLECULE
tmp/5wacD00.pdb
 128 121 0 0 0
SMALL
GASTEIGER

@<TRIPOS>ATOM
      1  N        -54.8940  -15.4390   31.5760 N.3    60  SER60      -0.1217
      2  CA       -55.0530  -15.0480   33.0030 C.3    60  SER60       0.1889
      3  C        -53.9430  -15.4570   33.9450 C.2    60  SER60       0.2288
      4  O        -53.9180  -14.9980   35.1010 O.2    60  SER60      -0.2866
      5  CB       -56.3840  -15.5300   33.5350 C.3    60  SER60       0.2089
      6  OG       -57.3970  -14.8150   32.8520 O.3    60  SER60      -0.2183
      7  N        -52.1630  -12.5560   35.4780 N.3    63  LYS63      -0.1245
      8  CA       -52.6220  -11.9860   36.7830 C.3    63  LYS63       0.1561
      9  C        -51.6580  -12.2480   37.9380 C.2    63  LYS63       0.2260
     10  O        -51.5770  -11.4600   38.8670 O.2    63  LYS63      -0.2867
     11  CB       -54.0280  -12.4440   37.1300 C.3    63  LYS63       0.0271
     12  CG       -55.1060  -11.9220   36.1840 C.3    63  LYS63       0.0035
     13  CD       -56.3580  -12.7710   36.2710 C.3    63  LYS63       0.0206
     14  CE       -57.5660  -12.1370   35.6390 C.3    63  LYS63       0.1093
     15  NZ       -57.6160  -12.2050   34.1600 N.3    63  LYS63      -0.1314
     16  N        -66.6280   -9.8040   34.1840 N.3   115  LEU115     -0.1231
     17  CA       -65.4820  -10.4510   33.5530 C.3   115  LEU115      0.1693
     18  C        -64.7950   -9.5240   32.5800 C.2   115  LEU115      0.2591
     19  O        -63.5810   -9.3150   32.6560 O.2   115  LEU115     -0.2718
     20  CB       -65.9150  -11.7080   32.8100 C.3   115  LEU115      0.0284
     21  CG       -64.7400  -12.5890   32.3640 C.3   115  LEU115      0.0019
     22  CD1      -64.1060  -13.3250   33.5400 C.3   115  LEU115      0.0001
     23  CD2      -65.2000  -13.5760   31.3180 C.3   115  LEU115      0.0001
     24  N        -65.5770   -8.9690   31.6760 N.am  116  GLN116     -0.1979
     25  CA       -65.0430   -8.0680   30.6730 C.3   116  GLN116      0.1601
     26  C        -65.5410   -6.6520   30.9120 C.2   116  GLN116      0.2287
     27  O        -66.4310   -6.4240   31.7160 O.2   116  GLN116     -0.2864
     28  CB       -65.4350   -8.5230   29.2450 C.3   116  GLN116      0.0394
     29  CG       -65.0460   -9.9500   28.8310 C.3   116  GLN116      0.0908
     30  CD       -63.5600  -10.2930   29.0110 C.2   116  GLN116      0.2608
     31  OE1      -62.7110   -9.4180   29.1860 O.2   116  GLN116     -0.2717
     32  NE2      -63.2520  -11.5870   28.9900 N.am  116  GLN116     -0.0878
     33  N        -64.9880  -12.7950   39.4480 N.3   145  TYR145     -0.1241
     34  CA       -63.8030  -12.7320   38.5630 C.3   145  TYR145      0.1605
     35  C        -63.9520  -11.6310   37.4830 C.2   145  TYR145      0.2264
     36  O        -64.9330  -11.6100   36.7180 O.2   145  TYR145     -0.2867
     37  CB       -63.6010  -14.0810   37.9110 C.3   145  TYR145      0.0534
     38  CG       -62.2210  -14.4000   37.3630 C.ar  145  TYR145     -0.0201
     39  CD1      -61.0910  -14.4260   38.1840 C.ar  145  TYR145     -0.0009
     40  CD2      -62.0670  -14.7850   36.0320 C.ar  145  TYR145     -0.0009
     41  CE1      -59.8450  -14.7900   37.6820 C.ar  145  TYR145      0.0417
     42  CE2      -60.8330  -15.1460   35.5140 C.ar  145  TYR145      0.0417
     43  CZ       -59.7300  -15.1490   36.3300 C.ar  145  TYR145      0.1957
     44  OH       -58.5290  -15.5190   35.7760 O.3   145  TYR145     -0.2866
     45  N        -61.6040   -8.9330   34.7700 N.3   147  ASN147     -0.1240
     46  CA       -60.4600   -8.3070   34.1020 C.3   147  ASN147      0.1653
     47  C        -60.4120   -6.7860   34.3450 C.2   147  ASN147      0.2266
     48  O        -59.3620   -6.2460   34.7430 O.2   147  ASN147     -0.2867
     49  CB       -60.4720   -8.6430   32.6060 C.3   147  ASN147      0.1155
     50  CG       -60.2650  -10.1360   32.3400 C.2   147  ASN147      0.2627
     51  OD1      -59.4540  -10.7830   32.9920 O.2   147  ASN147     -0.2716
     52  ND2      -60.9900  -10.6800   31.3700 N.am  147  ASN147     -0.0877
     53  N        -54.4300  -17.2150   15.3610 N.3   205  ILE205     -0.1231
     54  CA       -54.9640  -16.1070   16.0840 C.3   205  ILE205      0.1692
     55  C        -54.0040  -15.6640   17.1640 C.2   205  ILE205      0.2592
     56  O        -53.1940  -16.4290   17.6170 O.2   205  ILE205     -0.2718
     57  CB       -56.4010  -16.3740   16.5920 C.3   205  ILE205      0.0266
     58  CG1      -57.0730  -15.0560   16.9420 C.3   205  ILE205      0.0019
     59  CG2      -56.4670  -17.4140   17.7220 C.3   205  ILE205      0.0020
     60  CD1      -58.5710  -15.2160   17.1070 C.3   205  ILE205      0.0001
     61  N        -53.9670  -14.3490   17.4220 N.am  206  ARG206     -0.1966
     62  CA       -53.1680  -13.7890   18.4760 C.3   206  ARG206      0.1729
     63  C        -54.1040  -12.8680   19.3190 C.2   206  ARG206      0.2616
     64  O        -55.2220  -12.5260   18.8990 O.2   206  ARG206     -0.2715
     65  CB       -51.9100  -13.0930   17.8980 C.3   206  ARG206      0.0348
     66  CG       -50.7470  -14.0380   17.5480 C.3   206  ARG206      0.0492
     67  CD       -49.3680  -13.4470   17.7660 C.3   206  ARG206      0.2205
     68  NE       -48.3200  -14.2850   17.1930 N.pl3 206  ARG206     -0.0865
     69  CZ       -47.5310  -13.9560   16.1670 C.cat 206  ARG206      0.5346
     70  NH1      -47.6190  -12.7720   15.5770 N.pl3 206  ARG206      0.1354
     71  NH2      -46.6220  -14.8260   15.7310 N.pl3 206  ARG206      0.1354
     72  N        -53.6730  -12.5520   20.5350 N.am  207  VAL207     -0.1963
     73  CA       -54.4930  -11.7780   21.4590 C.3   207  VAL207      0.1727
     74  C        -54.7690  -10.3650   20.8830 C.2   207  VAL207      0.2616
     75  O        -53.8740   -9.6810   20.3850 O.2   207  VAL207     -0.2715
     76  CB       -53.8850  -11.7830   22.8860 C.3   207  VAL207      0.0290
     77  CG1      -52.5880  -10.9760   22.9420 C.3   207  VAL207      0.0023
     78  CG2      -54.8970  -11.3170   23.9390 C.3   207  VAL207      0.0023
     79  N        -56.0420   -9.9990   20.8600 N.am  208  ASN208     -0.1972
     80  CA       -56.4730   -8.6700   20.4550 C.3   208  ASN208      0.1688
     81  C        -56.0990   -7.5890   21.4710 C.2   208  ASN208      0.2292
     82  O        -56.2410   -7.7900   22.6860 O.2   208  ASN208     -0.2864
     83  CB       -57.9900   -8.6230   20.3380 C.3   208  ASN208      0.1181
     84  CG       -58.5150   -9.4910   19.2190 C.2   208  ASN208      0.2629
     85  OD1      -57.8780   -9.6250   18.1800 O.2   208  ASN208     -0.2716
     86  ND2      -59.6960  -10.0730   19.4220 N.am  208  ASN208     -0.0877
     87  N        -54.5110  -10.0830   31.1850 N.3   217  TYR217     -0.1241
     88  CA       -54.2610  -11.2790   30.3260 C.3   217  TYR217      0.1605
     89  C        -53.2060  -11.1420   29.2400 C.2   217  TYR217      0.2264
     90  O        -53.2380  -11.9080   28.2520 O.2   217  TYR217     -0.2867
     91  CB       -55.5990  -11.7960   29.7000 C.3   217  TYR217      0.0534
     92  CG       -56.3450  -10.7500   28.9430 C.ar  217  TYR217     -0.0201
     93  CD1      -55.9420  -10.3740   27.6550 C.ar  217  TYR217     -0.0009
     94  CD2      -57.4490  -10.1110   29.5070 C.ar  217  TYR217     -0.0009
     95  CE1      -56.6050   -9.3900   26.9590 C.ar  217  TYR217      0.0417
     96  CE2      -58.1300   -9.1260   28.8220 C.ar  217  TYR217      0.0417
     97  CZ       -57.7070   -8.7570   27.5550 C.ar  217  TYR217      0.1957
     98  OH       -58.3580   -7.7780   26.8490 O.3   217  TYR217     -0.2866
     99  N        -56.4470  -18.6360   29.7050 N.3   310  SER310     -0.1202
    100  CA       -56.7510  -18.7970   28.3210 C.3   310  SER310      0.2020
    101  C        -56.8230  -17.4760   27.6030 C.2   310  SER310      0.2619
    102  O        -57.2460  -16.4810   28.1620 O.2   310  SER310     -0.2717
    103  CB       -58.1260  -19.5030   28.1850 C.3   310  SER310      0.2103
    104  OG       -57.9920  -20.7960   28.7290 O.3   310  SER310     -0.2182
    105  N        -56.4010  -17.4860   26.3500 N.am  311  THR311     -0.1938
    106  CA       -56.7910  -16.4490   25.4000 C.3   311  THR311      0.2028
    107  C        -57.5360  -17.2230   24.3420 C.2   311  THR311      0.2642
    108  O        -57.6620  -18.4380   24.4530 O.2   311  THR311     -0.2714
    109  CB       -55.5610  -15.7140   24.8380 C.3   311  THR311      0.1808
    110  OG1      -54.6970  -16.6360   24.1440 O.3   311  THR311     -0.2208
    111  CG2      -54.8050  -15.0750   25.9650 C.3   311  THR311      0.0379
    112  N        -57.9540  -16.6000   23.2570 N.am  312  SER312     -0.1949
    113  CA       -58.8200  -17.3210   22.3430 C.3   312  SER312      0.1924
    114  C        -58.0090  -18.4340   21.6860 C.2   312  SER312      0.2314
    115  O        -58.5500  -19.4710   21.3560 O.2   312  SER312     -0.2863
    116  CB       -59.3850  -16.3920   21.3140 C.3   312  SER312      0.2116
    117  OG       -59.9780  -15.3370   22.0240 O.3   312  SER312     -0.2180
    118  N        -56.7250  -23.5520   22.9850 N.3   335  ARG335     -0.1245
    119  CA       -57.5040  -23.6810   24.2280 C.3   335  ARG335      0.1563
    120  C        -57.9890  -25.1380   24.3380 C.2   335  ARG335      0.2260
    121  O        -58.4770  -25.6860   23.3530 O.2   335  ARG335     -0.2867
    122  CB       -58.6860  -22.7120   24.1780 C.3   335  ARG335      0.0307
    123  CG       -59.3190  -22.2600   25.4790 C.3   335  ARG335      0.0489
    124  CD       -60.2230  -21.0660   25.1540 C.3   335  ARG335      0.2205
    125  NE       -61.0130  -20.5420   26.2770 N.pl3 335  ARG335     -0.0865
    126  CZ       -61.4290  -19.2660   26.4050 C.cat 335  ARG335      0.5346
    127  NH1      -61.1340  -18.3180   25.5020 N.pl3 335  ARG335      0.1354
    128  NH2      -62.1400  -18.9090   27.4720 N.pl3 335  ARG335      0.1354
@<TRIPOS>BOND
     1    53    54    1
     2    70    69    1
     3    71    69    1
     4    54    57    1
     5    54    55    1
     6    69    68    2
     7    57    58    1
     8    57    59    1
     9    58    60    1
    10    55    61   am
    11    55    56    2
    12    68    67    1
    13    61    62    1
    14    66    67    1
    15    66    65    1
    16    65    62    1
    17    85    84    2
    18    62    63    1
    19    64    63    2
    20    84    86   am
    21    84    83    1
    22    63    72   am
    23    83    80    1
    24    75    74    2
    25    80    79    1
    26    80    81    1
    27    72    73    1
    28    79    74   am
    29    74    73    1
    30   116   117    1
    31   116   113    1
    32   115   114    2
    33    73    76    1
    34    81    82    2
    35   114   113    1
    36   113   112    1
    37    76    77    1
    38    76    78    1
    39   118   119    1
    40   112   107   am
    41   121   120    2
    42   110   109    1
    43   122   119    1
    44   122   123    1
    45   119   120    1
    46   107   108    2
    47   107   106    1
    48   109   106    1
    49   109   111    1
    50   124   123    1
    51   124   125    1
    52   106   105    1
    53   127   126    1
    54   125   126    2
    55   105   101   am
    56   126   128    1
    57    98    97    1
    58    95    97   ar
    59    95    93   ar
    60    97    96   ar
    61   101   102    2
    62   101   100    1
    63    93    92   ar
    64   103   100    1
    65   103   104    1
    66    90    89    2
    67   100    99    1
    68    96    94   ar
    69    29    30    1
    70    29    28    1
    71    92    94   ar
    72    92    91    1
    73    32    30   am
    74    30    31    2
    75    89    88    1
    76    28    25    1
    77    91    88    1
    78    88    87    1
    79    25    26    1
    80    25    24    1
    81    26    27    2
    82    23    21    1
    83    52    50   am
    84     1     2    1
    85    24    18   am
    86    50    49    1
    87    50    51    2
    88    21    20    1
    89    21    22    1
    90    18    19    2
    91    18    17    1
    92    49    46    1
    93    20    17    1
    94     6     5    1
    95     2     5    1
    96     2     3    1
    97    17    16    1
    98     3     4    2
    99    46    47    1
   100    46    45    1
   101    15    14    1
   102    47    48    2
   103     7     8    1
   104    42    40   ar
   105    42    43   ar
   106    14    13    1
   107    44    43    1
   108    40    38   ar
   109    12    13    1
   110    12    11    1
   111    43    41   ar
   112    36    35    2
   113     8    11    1
   114     8     9    1
   115    38    37    1
   116    38    39   ar
   117    35    34    1
   118    41    39   ar
   119    37    34    1
   120     9    10    2
   121    34    33    1
