@<TRIPOS>MOLECULE
tmp/5wadB00.pdb
 120 113 0 0 0
SMALL
GASTEIGER

@<TRIPOS>ATOM
      1  N        -15.3090   -9.2470  -38.1210 N.3    63  SER63      -0.1217
      2  CA       -14.9620  -10.6690  -38.1740 C.3    63  SER63       0.1889
      3  C        -13.5020  -11.0320  -38.4460 C.2    63  SER63       0.2288
      4  O        -13.1280  -12.1960  -38.2070 O.2    63  SER63      -0.2866
      5  CB       -15.8610  -11.4210  -39.1730 C.3    63  SER63       0.2089
      6  OG       -17.1540  -11.4310  -38.6440 O.3    63  SER63      -0.2183
      7  N        -12.0600  -12.9040  -35.6240 N.3    66  LYS66      -0.1245
      8  CA       -12.0080  -14.3680  -35.6250 C.3    66  LYS66       0.1561
      9  C        -10.6220  -15.0090  -35.8070 C.2    66  LYS66       0.2260
     10  O        -10.3920  -16.1230  -35.2880 O.2    66  LYS66      -0.2867
     11  CB       -13.0050  -14.9770  -36.5860 C.3    66  LYS66       0.0271
     12  CG       -14.4510  -14.6370  -36.2000 C.3    66  LYS66       0.0035
     13  CD       -15.4050  -14.9070  -37.3790 C.3    66  LYS66       0.0206
     14  CE       -16.8330  -14.7230  -36.9610 C.3    66  LYS66       0.1093
     15  NZ       -17.3370  -13.3300  -36.8780 N.3    66  LYS66      -0.1314
     16  N        -26.3160  -16.9560  -37.3430 N.3   118  LEU118     -0.1231
     17  CA       -25.2820  -15.9290  -37.4810 C.3   118  LEU118      0.1693
     18  C        -25.1190  -15.1670  -36.1460 C.2   118  LEU118      0.2591
     19  O        -23.9980  -14.9060  -35.7370 O.2   118  LEU118     -0.2718
     20  CB       -25.5690  -14.9450  -38.6310 C.3   118  LEU118      0.0284
     21  CG       -24.5370  -13.7890  -38.8050 C.3   118  LEU118      0.0019
     22  CD1      -23.1660  -14.3680  -39.1190 C.3   118  LEU118      0.0001
     23  CD2      -24.9130  -12.7820  -39.8780 C.3   118  LEU118      0.0001
     24  N        -26.2390  -14.7970  -35.5010 N.am  119  GLN119     -0.1979
     25  CA       -26.2200  -13.9990  -34.2470 C.3   119  GLN119      0.1601
     26  C        -26.9600  -14.7280  -33.1690 C.2   119  GLN119      0.2287
     27  O        -27.8050  -15.5410  -33.4400 O.2   119  GLN119     -0.2864
     28  CB       -26.9460  -12.6390  -34.3730 C.3   119  GLN119      0.0394
     29  CG       -26.6790  -11.8050  -35.6160 C.3   119  GLN119      0.0908
     30  CD       -25.2880  -11.2160  -35.6330 C.2   119  GLN119      0.2608
     31  OE1      -24.4680  -11.4930  -34.7500 O.2   119  GLN119     -0.2717
     32  NE2      -25.0140  -10.3880  -36.6330 N.am  119  GLN119     -0.0878
     33  N        -22.1680  -20.0020  -40.9810 N.3   149  TYR149     -0.1241
     34  CA       -21.2920  -18.9580  -40.4280 C.3   149  TYR149      0.1605
     35  C        -21.9720  -18.3870  -39.2490 C.2   149  TYR149      0.2264
     36  O        -23.1630  -18.0470  -39.3450 O.2   149  TYR149     -0.2867
     37  CB       -21.0300  -17.8580  -41.4530 C.3   149  TYR149      0.0534
     38  CG       -19.9890  -16.8150  -41.0990 C.ar  149  TYR149     -0.0201
     39  CD1      -18.6640  -17.1440  -40.8110 C.ar  149  TYR149     -0.0009
     40  CD2      -20.3000  -15.4990  -41.1680 C.ar  149  TYR149     -0.0009
     41  CE1      -17.7090  -16.1700  -40.5450 C.ar  149  TYR149      0.0417
     42  CE2      -19.3520  -14.5160  -40.9540 C.ar  149  TYR149      0.0417
     43  CZ       -18.0830  -14.8580  -40.6050 C.ar  149  TYR149      0.1957
     44  OH       -17.2410  -13.8320  -40.3520 O.3   149  TYR149     -0.2866
     45  N        -21.4620  -16.3040  -35.2610 N.3   151  ASN151     -0.1240
     46  CA       -20.7680  -15.6490  -34.1010 C.3   151  ASN151      0.1653
     47  C        -20.9070  -16.4240  -32.8130 C.2   151  ASN151      0.2266
     48  O        -19.9350  -16.5810  -32.1240 O.2   151  ASN151     -0.2867
     49  CB       -21.2070  -14.2030  -33.9300 C.3   151  ASN151      0.1155
     50  CG       -20.8560  -13.3670  -35.1270 C.2   151  ASN151      0.2627
     51  OD1      -19.7310  -13.3970  -35.5670 O.2   151  ASN151     -0.2716
     52  ND2      -21.8080  -12.5680  -35.6430 N.am  151  ASN151     -0.0877
     53  N        -20.0370    3.6680  -33.5050 N.3   210  ARG210     -0.1231
     54  CA       -19.0840    2.6150  -33.0740 C.3   210  ARG210      0.1694
     55  C        -19.7830    1.3120  -32.7020 C.2   210  ARG210      0.2592
     56  O        -20.9680    1.2910  -32.6220 O.2   210  ARG210     -0.2718
     57  CB       -18.2110    3.1120  -31.9150 C.3   210  ARG210      0.0321
     58  CG       -17.1490    4.0690  -32.4310 C.3   210  ARG210      0.0489
     59  CD       -16.2270    4.4730  -31.3130 C.3   210  ARG210      0.2205
     60  NE       -15.2370    5.4580  -31.7650 N.pl3 210  ARG210     -0.0865
     61  CZ       -15.0540    6.6830  -31.2390 C.cat 210  ARG210      0.5346
     62  NH1      -15.6940    7.0770  -30.1530 N.pl3 210  ARG210      0.1354
     63  NH2      -14.1300    7.4750  -31.7290 N.pl3 210  ARG210      0.1354
     64  N        -19.0310    0.2230  -32.5310 N.am  211  VAL211     -0.1966
     65  CA       -19.6140   -1.1240  -32.3230 C.3   211  VAL211      0.1727
     66  C        -20.4760   -1.1340  -31.0500 C.2   211  VAL211      0.2616
     67  O        -20.1810   -0.4570  -30.0700 O.2   211  VAL211     -0.2715
     68  CB       -18.5240   -2.2080  -32.2150 C.3   211  VAL211      0.0290
     69  CG1      -17.6800   -2.0520  -30.9350 C.3   211  VAL211      0.0023
     70  CG2      -19.1270   -3.6130  -32.2530 C.3   211  VAL211      0.0023
     71  N        -21.5440   -1.9000  -31.0730 N.am  212  ASN212     -0.1972
     72  CA       -22.3530   -2.0980  -29.8870 C.3   212  ASN212      0.1688
     73  C        -21.8420   -3.2740  -29.0320 C.2   212  ASN212      0.2292
     74  O        -21.4840   -4.3100  -29.5710 O.2   212  ASN212     -0.2864
     75  CB       -23.8070   -2.3170  -30.2680 C.3   212  ASN212      0.1181
     76  CG       -24.3690   -1.1340  -31.0710 C.2   212  ASN212      0.2629
     77  OD1      -24.3710    0.0010  -30.6080 O.2   212  ASN212     -0.2716
     78  ND2      -24.8010   -1.4020  -32.2910 N.am  212  ASN212     -0.0877
     79  N        -16.1540  -10.6340  -33.0300 N.3   221  TYR221     -0.1241
     80  CA       -15.9480   -9.4300  -33.8290 C.3   221  TYR221      0.1605
     81  C        -15.4490   -8.1870  -33.0670 C.2   221  TYR221      0.2264
     82  O        -15.5250   -7.0640  -33.5890 O.2   221  TYR221     -0.2867
     83  CB       -17.2480   -9.1030  -34.5770 C.3   221  TYR221      0.0534
     84  CG       -18.4380   -8.9900  -33.6970 C.ar  221  TYR221     -0.0201
     85  CD1      -18.6770   -7.8240  -32.9670 C.ar  221  TYR221     -0.0009
     86  CD2      -19.3290  -10.0300  -33.5670 C.ar  221  TYR221     -0.0009
     87  CE1      -19.7660   -7.7180  -32.1410 C.ar  221  TYR221      0.0417
     88  CE2      -20.4400   -9.9200  -32.7470 C.ar  221  TYR221      0.0417
     89  CZ       -20.6360   -8.7640  -32.0270 C.ar  221  TYR221      0.1957
     90  OH       -21.7170   -8.6400  -31.1500 O.3   221  TYR221     -0.2866
     91  N        -16.6670   -6.9820  -41.0910 N.3   314  SER314     -0.1202
     92  CA       -17.4500   -5.7870  -41.0500 C.3   314  SER314      0.2020
     93  C        -18.0790   -5.6170  -39.6560 C.2   314  SER314      0.2619
     94  O        -18.4100   -6.5870  -38.9920 O.2   314  SER314     -0.2717
     95  CB       -18.6000   -5.8940  -42.0800 C.3   314  SER314      0.2103
     96  OG       -18.1230   -5.8460  -43.4070 O.3   314  SER314     -0.2182
     97  N        -18.1460   -4.3760  -39.2170 N.am  315  THR315     -0.1938
     98  CA       -19.0650   -3.9020  -38.1880 C.3   315  THR315      0.2028
     99  C        -19.9830   -2.9710  -38.9750 C.2   315  THR315      0.2642
    100  O        -19.8010   -2.7610  -40.1840 O.2   315  THR315     -0.2714
    101  CB       -18.3170   -3.1470  -37.0440 C.3   315  THR315      0.1808
    102  OG1      -17.5020   -2.1100  -37.6160 O.3   315  THR315     -0.2208
    103  CG2      -17.4080   -4.0740  -36.2790 C.3   315  THR315      0.0379
    104  N        -20.9470   -2.3680  -38.3050 N.am  316  SER316     -0.1949
    105  CA       -21.9200   -1.5620  -39.0070 C.3   316  SER316      0.1924
    106  C        -21.2770   -0.2610  -39.5480 C.2   316  SER316      0.2314
    107  O        -21.7720    0.3010  -40.5390 O.2   316  SER316     -0.2863
    108  CB       -23.1430   -1.3290  -38.0980 C.3   316  SER316      0.2116
    109  OG       -23.9500   -0.2720  -38.5660 O.3   316  SER316     -0.2180
    110  N        -18.4650    0.5820  -44.2880 N.3   339  ARG339     -0.1245
    111  CA       -18.6310   -0.6630  -45.0420 C.3   339  ARG339      0.1563
    112  C        -18.7640   -0.3900  -46.5120 C.2   339  ARG339      0.2260
    113  O        -19.5140    0.5500  -46.9020 O.2   339  ARG339     -0.2867
    114  CB       -19.9240   -1.3480  -44.6710 C.3   339  ARG339      0.0307
    115  CG       -19.9740   -2.1430  -43.3940 C.3   339  ARG339      0.0489
    116  CD       -21.4430   -2.5000  -43.1330 C.3   339  ARG339      0.2205
    117  NE       -21.6330   -3.9370  -42.9170 N.pl3 339  ARG339     -0.0865
    118  CZ       -21.8860   -4.8620  -43.8580 C.cat 339  ARG339      0.5346
    119  NH1      -22.0060   -4.5390  -45.1450 N.pl3 339  ARG339      0.1354
    120  NH2      -22.0310   -6.1450  -43.4960 N.pl3 339  ARG339      0.1354
@<TRIPOS>BOND
     1   113   112    2
     2   112   111    1
     3   119   118    1
     4   111   114    1
     5   111   110    1
     6   114   115    1
     7   118   120    1
     8   118   117    2
     9    96    95    1
    10   115   116    1
    11   116   117    1
    12    95    92    1
    13    37    38    1
    14    37    34    1
    15    40    38   ar
    16    40    42   ar
    17    38    39   ar
    18    91    92    1
    19    92    93    1
    20    33    34    1
    21    42    43   ar
    22    39    41   ar
    23    43    41   ar
    24    43    44    1
    25   107   106    2
    26    34    35    1
    27   100    99    2
    28    23    21    1
    29    93    97   am
    30    93    94    2
    31   106   105    1
    32    36    35    2
    33    97    98    1
    34     5     6    1
    35     5     2    1
    36    22    21    1
    37   105   104    1
    38   105   108    1
    39    99   104   am
    40    99    98    1
    41    21    20    1
    42    20    17    1
    43   109   108    1
    44     3     4    2
    45     3     2    1
    46    98   101    1
    47     2     1    1
    48   102   101    1
    49    17    16    1
    50    17    18    1
    51    13    14    1
    52    13    12    1
    53   101   103    1
    54    14    15    1
    55    32    30   am
    56    11    12    1
    57    11     8    1
    58    18    19    2
    59    18    24   am
    60     9     8    1
    61     9    10    2
    62    52    50   am
    63    30    29    1
    64    30    31    2
    65     8     7    1
    66    29    28    1
    67    51    50    2
    68    24    25    1
    69    45    46    1
    70    50    49    1
    71    83    80    1
    72    83    84    1
    73    28    25    1
    74    25    26    1
    75    46    49    1
    76    46    47    1
    77    80    81    1
    78    80    79    1
    79    84    86   ar
    80    84    85   ar
    81    82    81    2
    82    86    88   ar
    83    53    54    1
    84    27    26    2
    85    54    55    1
    86    54    57    1
    87    85    87   ar
    88    47    48    2
    89    88    89   ar
    90    55    56    2
    91    55    64   am
    92    64    65    1
    93    58    57    1
    94    58    59    1
    95    65    68    1
    96    65    66    1
    97    78    76   am
    98    70    68    1
    99    68    69    1
   100    87    89   ar
   101    89    90    1
   102    60    59    1
   103    60    61    2
   104    63    61    1
   105    61    62    1
   106    71    66   am
   107    71    72    1
   108    76    77    2
   109    76    75    1
   110    66    67    2
   111    75    72    1
   112    72    73    1
   113    74    73    2
