@<TRIPOS>MOLECULE
tmp/5waeA00.pdb
 109 103 0 0 0
SMALL
GASTEIGER

@<TRIPOS>ATOM
      1  N         35.4740  -10.0980  -10.2590 N.3    61  SER61      -0.1217
      2  CA        35.0230  -11.5240  -10.3030 C.3    61  SER61       0.1889
      3  C         33.4870  -11.7100  -10.2650 C.2    61  SER61       0.2288
      4  O         32.9680  -12.7700  -10.5400 O.2    61  SER61      -0.2866
      5  CB        35.7260  -12.3360   -9.1840 C.3    61  SER61       0.2089
      6  OG        37.0950  -12.3830   -9.4930 O.3    61  SER61      -0.2183
      7  N         32.0630  -13.3530  -13.3330 N.3    64  LYS64      -0.1245
      8  CA        31.9510  -14.8030  -13.4120 C.3    64  LYS64       0.1561
      9  C         30.5290  -15.2700  -13.2900 C.2    64  LYS64       0.2260
     10  O         30.1930  -16.3290  -13.7620 O.2    64  LYS64      -0.2867
     11  CB        32.8370  -15.5300  -12.3310 C.3    64  LYS64       0.0271
     12  CG        34.3370  -15.2550  -12.4710 C.3    64  LYS64       0.0035
     13  CD        35.1070  -15.8020  -11.2830 C.3    64  LYS64       0.0206
     14  CE        36.6140  -15.7960  -11.5150 C.3    64  LYS64       0.1093
     15  NZ        37.2700  -14.4510  -11.3730 N.3    64  LYS64      -0.1314
     16  N         45.3940  -18.8940   -9.7130 N.3   116  LEU116     -0.1231
     17  CA        44.5520  -17.7270   -9.8260 C.3   116  LEU116      0.1693
     18  C         44.7030  -16.9970  -11.1210 C.2   116  LEU116      0.2591
     19  O         43.7120  -16.6000  -11.7410 O.2   116  LEU116     -0.2718
     20  CB        44.7530  -16.8070   -8.6580 C.3   116  LEU116      0.0284
     21  CG        43.9720  -15.5120   -8.6440 C.3   116  LEU116      0.0019
     22  CD1       42.5260  -15.9240   -8.4440 C.3   116  LEU116      0.0001
     23  CD2       44.4960  -14.6350   -7.4870 C.3   116  LEU116      0.0001
     24  N         45.9390  -16.7570  -11.5590 N.am  117  GLN117     -0.1979
     25  CA        46.1890  -16.0010  -12.7340 C.3   117  GLN117      0.1601
     26  C         46.9890  -16.7960  -13.7710 C.2   117  GLN117      0.2287
     27  O         47.7950  -17.6910  -13.4010 O.2   117  GLN117     -0.2864
     28  CB        47.0330  -14.7790  -12.3770 C.3   117  GLN117      0.0394
     29  CG        46.5170  -13.8510  -11.2930 C.3   117  GLN117      0.0908
     30  CD        45.2390  -13.1110  -11.6250 C.2   117  GLN117      0.2608
     31  OE1       44.6920  -13.1780  -12.7260 O.2   117  GLN117     -0.2717
     32  NE2       44.7360  -12.4200  -10.6250 N.am  117  GLN117     -0.0878
     33  N         40.7460  -21.6860   -6.9070 N.3   147  TYR147     -0.1241
     34  CA        40.0700  -20.5570   -7.5700 C.3   147  TYR147      0.1605
     35  C         40.9040  -19.9810   -8.6790 C.2   147  TYR147      0.2264
     36  O         42.0660  -19.7150   -8.4540 O.2   147  TYR147     -0.2867
     37  CB        39.7760  -19.5120   -6.4930 C.3   147  TYR147      0.0534
     38  CG        38.9810  -18.3310   -6.9500 C.ar  147  TYR147     -0.0201
     39  CD1       37.7220  -18.4990   -7.5070 C.ar  147  TYR147     -0.0009
     40  CD2       39.4660  -17.0290   -6.8030 C.ar  147  TYR147     -0.0009
     41  CE1       36.9740  -17.4100   -7.9260 C.ar  147  TYR147      0.0417
     42  CE2       38.7060  -15.9320   -7.2180 C.ar  147  TYR147      0.0417
     43  CZ        37.4570  -16.1280   -7.7560 C.ar  147  TYR147      0.1957
     44  OH        36.6870  -15.0140   -8.1310 O.3   147  TYR147     -0.2866
     45  N         41.1410  -17.6760  -12.5980 N.3   149  ASN149     -0.1240
     46  CA        40.7210  -16.9410  -13.7660 C.3   149  ASN149      0.1653
     47  C         40.9330  -17.6780  -15.0370 C.2   149  ASN149      0.2266
     48  O         40.0310  -17.6720  -15.9140 O.2   149  ASN149     -0.2867
     49  CB        41.3660  -15.5290  -13.8350 C.3   149  ASN149      0.1155
     50  CG        40.8760  -14.6230  -12.7210 C.2   149  ASN149      0.2627
     51  OD1       39.7310  -14.7520  -12.2300 O.2   149  ASN149     -0.2716
     52  ND2       41.7880  -13.7680  -12.1820 N.am  149  ASN149     -0.0877
     53  N         41.9340    2.1140  -14.0530 N.3   208  ARG208     -0.1231
     54  CA        40.8900    1.2280  -14.5440 C.3   208  ARG208      0.1694
     55  C         41.5340   -0.0720  -14.8970 C.2   208  ARG208      0.2592
     56  O         42.7640   -0.1480  -15.0080 O.2   208  ARG208     -0.2718
     57  CB        40.1790    1.8670  -15.7070 C.3   208  ARG208      0.0321
     58  CG        39.3430    3.0670  -15.2750 C.3   208  ARG208      0.0489
     59  CD        38.5290    3.5260  -16.4410 C.3   208  ARG208      0.2205
     60  NE        37.6380    4.6190  -16.1520 N.pl3 208  ARG208     -0.0865
     61  CZ        37.7020    5.8250  -16.6920 C.cat 208  ARG208      0.5346
     62  NH1       38.6620    6.1360  -17.5710 N.pl3 208  ARG208      0.1354
     63  NH2       36.8100    6.7460  -16.3470 N.pl3 208  ARG208      0.1354
     64  N         40.7170   -1.1070  -15.0540 N.am  209  VAL209     -0.1966
     65  CA        41.2480   -2.4240  -15.3150 C.3   209  VAL209      0.1727
     66  C         42.0970   -2.4560  -16.6210 C.2   209  VAL209      0.2616
     67  O         41.7270   -1.8550  -17.6010 O.2   209  VAL209     -0.2715
     68  CB        40.1090   -3.5090  -15.3620 C.3   209  VAL209      0.0290
     69  CG1       39.1810   -3.2620  -16.5790 C.3   209  VAL209      0.0023
     70  CG2       40.7480   -4.9020  -15.3960 C.3   209  VAL209      0.0023
     71  N         43.1680   -3.2120  -16.6390 N.am  210  ASN210     -0.1972
     72  CA        43.9620   -3.3080  -17.8640 C.3   210  ASN210      0.1688
     73  C         43.5160   -4.5450  -18.6690 C.2   210  ASN210      0.2292
     74  O         43.1740   -5.5270  -18.0880 O.2   210  ASN210     -0.2864
     75  CB        45.4310   -3.3970  -17.5420 C.3   210  ASN210      0.1181
     76  CG        46.0030   -2.0450  -17.0890 C.2   210  ASN210      0.2629
     77  OD1       45.7390   -1.0010  -17.6890 O.2   210  ASN210     -0.2716
     78  ND2       46.7800   -2.0760  -16.0330 N.am  210  ASN210     -0.0877
     79  N         36.7710  -11.4500  -15.1240 N.3   219  TYR219     -0.1241
     80  CA        36.6810  -10.2590  -14.3640 C.3   219  TYR219      0.1605
     81  C         36.4250   -9.0170  -15.1730 C.2   219  TYR219      0.2264
     82  O         36.6720   -7.9040  -14.6920 O.2   219  TYR219     -0.2867
     83  CB        37.9620  -10.0760  -13.4860 C.3   219  TYR219      0.0534
     84  CG        39.2400   -9.9950  -14.3390 C.ar  219  TYR219     -0.0201
     85  CD1       39.6520   -8.8210  -14.9400 C.ar  219  TYR219     -0.0009
     86  CD2       39.9930  -11.1440  -14.5890 C.ar  219  TYR219     -0.0009
     87  CE1       40.8070   -8.7860  -15.7450 C.ar  219  TYR219      0.0417
     88  CE2       41.1370  -11.0910  -15.3910 C.ar  219  TYR219      0.0417
     89  CZ        41.5210   -9.9240  -15.9330 C.ar  219  TYR219      0.1957
     90  OH        42.6360   -9.9490  -16.7140 O.3   219  TYR219     -0.2866
     91  N         36.7550   -7.9670   -7.1740 N.3   312  SER312     -0.1202
     92  CA        37.6730   -6.8790   -7.0160 C.3   312  SER312      0.2020
     93  C         38.4330   -6.6910   -8.3030 C.2   312  SER312      0.2619
     94  O         38.7340   -7.6580   -9.0400 O.2   312  SER312     -0.2717
     95  CB        38.6530   -7.1860   -5.8750 C.3   312  SER312      0.2103
     96  OG        38.0650   -7.1040   -4.5990 O.3   312  SER312     -0.2182
     97  N         38.7530   -5.4370   -8.5870 N.am  313  THR313     -0.1938
     98  CA        39.7770   -5.1190   -9.5900 C.3   313  THR313      0.2028
     99  C         40.7560   -4.1820   -8.8540 C.2   313  THR313      0.2642
    100  O         40.6110   -3.9810   -7.6540 O.2   313  THR313     -0.2714
    101  CB        39.2700   -4.4390  -10.8520 C.3   313  THR313      0.1808
    102  OG1       38.6910   -3.1920  -10.4990 O.3   313  THR313     -0.2208
    103  CG2       38.2720   -5.3140  -11.6470 C.3   313  THR313      0.0379
    104  N         41.8010   -3.6910   -9.5310 N.am  314  SER314     -0.1949
    105  CA        42.7740   -2.8700   -8.7960 C.3   314  SER314      0.1924
    106  C         42.0820   -1.6930   -8.1080 C.2   314  SER314      0.2314
    107  O         42.4920   -1.3080   -7.0360 O.2   314  SER314     -0.2863
    108  CB        43.9530   -2.3510   -9.7180 C.3   314  SER314      0.2116
    109  OG        43.4470   -1.8720  -10.9950 O.3   314  SER314     -0.2180
@<TRIPOS>BOND
     1    73    74    2
     2    73    72    1
     3    72    75    1
     4    72    71    1
     5    77    76    2
     6    67    66    2
     7    62    61    1
     8    75    76    1
     9    76    78   am
    10    90    89    1
    11    61    63    1
    12    61    60    2
    13    71    66   am
    14    66    65    1
    15    69    68    1
    16    59    60    1
    17    59    58    1
    18    89    87   ar
    19    89    88   ar
    20    48    47    2
    21    87    85   ar
    22    57    58    1
    23    57    54    1
    24    70    68    1
    25    88    86   ar
    26    68    65    1
    27    65    64    1
    28    81    82    2
    29    81    80    1
    30    79    80    1
    31    64    55   am
    32    47    46    1
    33    56    55    2
    34    85    84   ar
    35    55    54    1
    36    86    84   ar
    37    54    53    1
    38    80    83    1
    39    84    83    1
    40    49    46    1
    41    49    50    1
    42    26    27    2
    43    26    25    1
    44    46    45    1
    45    10     9    2
    46     8     7    1
    47     8     9    1
    48     8    11    1
    49    25    28    1
    50    25    24    1
    51    31    30    2
    52    50    51    2
    53    50    52   am
    54    12    11    1
    55    12    13    1
    56    28    29    1
    57    19    18    2
    58   103   101    1
    59    30    29    1
    60    30    32   am
    61    24    18   am
    62    14    15    1
    63    14    13    1
    64    18    17    1
    65   109   108    1
    66   101   102    1
    67   101    98    1
    68     4     3    2
    69     2     3    1
    70     2     1    1
    71     2     5    1
    72    17    16    1
    73    17    20    1
    74   108   105    1
    75    98    99    1
    76    98    97    1
    77   104    99   am
    78   104   105    1
    79     6     5    1
    80    94    93    2
    81    99   100    2
    82   105   106    1
    83    35    36    2
    84    35    34    1
    85    20    21    1
    86    21    22    1
    87    21    23    1
    88    97    93   am
    89    93    92    1
    90    44    43    1
    91   106   107    2
    92    41    43   ar
    93    41    39   ar
    94    43    42   ar
    95    34    33    1
    96    34    37    1
    97    39    38   ar
    98    42    40   ar
    99    91    92    1
   100    92    95    1
   101    38    40   ar
   102    38    37    1
   103    95    96    1
