@<TRIPOS>MOLECULE
tmp/5wafD00.pdb
 120 113 0 0 0
SMALL
GASTEIGER

@<TRIPOS>ATOM
      1  N         52.6210   26.5740  -18.2290 N.3    62  SER62      -0.1217
      2  CA        52.4750   27.0460  -16.8510 C.3    62  SER62       0.1889
      3  C         53.6870   26.7620  -15.9640 C.2    62  SER62       0.2288
      4  O         53.7490   27.2950  -14.8810 O.2    62  SER62      -0.2866
      5  CB        51.1970   26.4990  -16.1760 C.3    62  SER62       0.2089
      6  OG        50.0190   27.0550  -16.7760 O.3    62  SER62      -0.2183
      7  N         55.3930   29.7290  -14.6960 N.3    65  LYS65      -0.1245
      8  CA        54.9630   30.3220  -13.4050 C.3    65  LYS65       0.1561
      9  C         56.0350   30.2010  -12.3020 C.2    65  LYS65       0.2260
     10  O         56.1350   31.0770  -11.4370 O.2    65  LYS65      -0.2867
     11  CB        53.6440   29.7370  -12.9680 C.3    65  LYS65       0.0271
     12  CG        52.4830   30.0710  -13.8980 C.3    65  LYS65       0.0035
     13  CD        51.1630   29.4240  -13.5080 C.3    65  LYS65       0.0206
     14  CE        50.0250   30.1310  -14.2300 C.3    65  LYS65       0.1093
     15  NZ        49.8620   29.6900  -15.6270 N.3    65  LYS65      -0.1314
     16  N         40.8290   31.8660  -15.0350 N.3   117  LEU117     -0.1231
     17  CA        42.0130   31.2440  -15.6770 C.3   117  LEU117      0.1693
     18  C         42.5950   32.1920  -16.7520 C.2   117  LEU117      0.2591
     19  O         43.7890   32.5090  -16.7050 O.2   117  LEU117     -0.2718
     20  CB        41.6930   29.8320  -16.2150 C.3   117  LEU117      0.0284
     21  CG        42.9030   29.0680  -16.7650 C.3   117  LEU117      0.0019
     22  CD1       43.7610   28.5630  -15.6110 C.3   117  LEU117      0.0001
     23  CD2       42.4980   27.9460  -17.6770 C.3   117  LEU117      0.0001
     24  N         41.7500   32.6750  -17.6650 N.am  118  GLN118     -0.1979
     25  CA        42.1810   33.6680  -18.6760 C.3   118  GLN118      0.1601
     26  C         41.5590   35.0320  -18.4340 C.2   118  GLN118      0.2287
     27  O         40.5690   35.1530  -17.7010 O.2   118  GLN118     -0.2864
     28  CB        41.8000   33.2590  -20.1060 C.3   118  GLN118      0.0394
     29  CG        41.9740   31.8020  -20.4780 C.3   118  GLN118      0.0908
     30  CD        43.3960   31.3100  -20.3610 C.2   118  GLN118      0.2608
     31  OE1       44.3150   32.0480  -20.0460 O.2   118  GLN118     -0.2717
     32  NE2       43.5750   30.0390  -20.6060 N.am  118  GLN118     -0.0878
     33  N         42.8590   29.2620   -9.8690 N.3   148  TYR148     -0.1241
     34  CA        44.0810   29.2100  -10.6760 C.3   148  TYR148      0.1605
     35  C         43.9100   30.2030  -11.8070 C.2   148  TYR148      0.2264
     36  O         42.9160   30.1310  -12.5500 O.2   148  TYR148     -0.2867
     37  CB        44.2600   27.8160  -11.1790 C.3   148  TYR148      0.0534
     38  CG        45.5120   27.5340  -11.9530 C.ar  148  TYR148     -0.0201
     39  CD1       46.7600   27.6420  -11.3590 C.ar  148  TYR148     -0.0009
     40  CD2       45.4410   27.0680  -13.2550 C.ar  148  TYR148     -0.0009
     41  CE1       47.9030   27.3680  -12.0630 C.ar  148  TYR148      0.0417
     42  CE2       46.5750   26.7570  -13.9730 C.ar  148  TYR148      0.0417
     43  CZ        47.8030   26.9140  -13.3720 C.ar  148  TYR148      0.1957
     44  OH        48.9300   26.6150  -14.0730 O.3   148  TYR148     -0.2866
     45  N         45.9220   32.8500  -14.8120 N.3   150  ASN150     -0.1240
     46  CA        47.0230   33.5020  -15.5440 C.3   150  ASN150      0.1653
     47  C         47.1280   35.0370  -15.2960 C.2   150  ASN150      0.2266
     48  O         48.2000   35.4840  -14.8610 O.2   150  ASN150     -0.2867
     49  CB        46.9420   33.2100  -17.0680 C.3   150  ASN150      0.1155
     50  CG        47.1700   31.7620  -17.3870 C.2   150  ASN150      0.2627
     51  OD1       48.0250   31.1200  -16.7850 O.2   150  ASN150     -0.2716
     52  ND2       46.3520   31.2260  -18.2670 N.am  150  ASN150     -0.0877
     53  N         52.7080   26.8310  -32.5870 N.3   209  ARG209     -0.1231
     54  CA        53.5640   27.3970  -31.5470 C.3   209  ARG209      0.1694
     55  C         52.6700   28.3100  -30.6980 C.2   209  ARG209      0.2592
     56  O         51.5000   28.5410  -31.0460 O.2   209  ARG209     -0.2718
     57  CB        54.7550   28.1770  -32.1210 C.3   209  ARG209      0.0321
     58  CG        55.8840   27.2370  -32.5050 C.3   209  ARG209      0.0489
     59  CD        57.0490   27.9470  -33.1260 C.3   209  ARG209      0.2205
     60  NE        58.1940   27.0380  -33.2570 N.pl3 209  ARG209     -0.0865
     61  CZ        59.0580   27.0680  -34.2660 C.cat 209  ARG209      0.5346
     62  NH1       58.9400   27.9600  -35.2410 N.pl3 209  ARG209      0.1354
     63  NH2       60.0380   26.1790  -34.3180 N.pl3 209  ARG209      0.1354
     64  N         53.2170   28.8120  -29.6100 N.am  210  VAL210     -0.1966
     65  CA        52.4080   29.5920  -28.6460 C.3   210  VAL210      0.1727
     66  C         51.9730   30.9040  -29.3050 C.2   210  VAL210      0.2616
     67  O         52.7860   31.5540  -29.9210 O.2   210  VAL210     -0.2715
     68  CB        53.1650   29.8650  -27.3290 C.3   210  VAL210      0.0290
     69  CG1       54.3240   30.8560  -27.5120 C.3   210  VAL210      0.0023
     70  CG2       52.1960   30.3130  -26.2270 C.3   210  VAL210      0.0023
     71  N         50.6890   31.2480  -29.2080 N.am  211  ASN211     -0.1972
     72  CA        50.1720   32.5270  -29.7110 C.3   211  ASN211      0.1688
     73  C         50.4940   33.6210  -28.7260 C.2   211  ASN211      0.2292
     74  O         50.5310   33.3370  -27.5180 O.2   211  ASN211     -0.2864
     75  CB        48.6620   32.5000  -29.8200 C.3   211  ASN211      0.1181
     76  CG        48.1840   31.4760  -30.7910 C.2   211  ASN211      0.2629
     77  OD1       48.7590   31.3070  -31.8720 O.2   211  ASN211     -0.2716
     78  ND2       47.1350   30.7500  -30.4010 N.am  211  ASN211     -0.0877
     79  N         52.7410   31.9150  -18.9260 N.3   220  TYR220     -0.1241
     80  CA        53.0140   30.6620  -19.6580 C.3   220  TYR220      0.1605
     81  C         54.0360   30.7390  -20.8350 C.2   220  TYR220      0.2264
     82  O         54.0930   29.8190  -21.6710 O.2   220  TYR220     -0.2867
     83  CB        51.6710   30.0590  -20.1550 C.3   220  TYR220      0.0534
     84  CG        50.8020   31.0310  -20.9530 C.ar  220  TYR220     -0.0201
     85  CD1       51.1530   31.3810  -22.2710 C.ar  220  TYR220     -0.0009
     86  CD2       49.6600   31.6300  -20.3970 C.ar  220  TYR220     -0.0009
     87  CE1       50.3860   32.2550  -23.0060 C.ar  220  TYR220      0.0417
     88  CE2       48.8830   32.5220  -21.1340 C.ar  220  TYR220      0.0417
     89  CZ        49.2560   32.8270  -22.4380 C.ar  220  TYR220      0.1957
     90  OH        48.5280   33.6740  -23.2430 O.3   220  TYR220     -0.2866
     91  N         51.0450   23.3450  -19.7370 N.3   313  SER313     -0.1202
     92  CA        50.5470   23.0550  -21.0770 C.3   313  SER313      0.2020
     93  C         50.4370   24.2920  -21.9150 C.2   313  SER313      0.2619
     94  O         49.9610   25.3090  -21.4240 O.2   313  SER313     -0.2717
     95  CB        49.1850   22.4060  -20.9550 C.3   313  SER313      0.2103
     96  OG        49.3140   21.0380  -20.8510 O.3   313  SER313     -0.2182
     97  N         50.9260   24.2280  -23.1620 N.am  314  THR314     -0.1938
     98  CA        50.4850   25.1450  -24.2130 C.3   314  THR314      0.2028
     99  C         49.6670   24.2690  -25.1300 C.2   314  THR314      0.2642
    100  O         49.5310   23.0590  -24.8720 O.2   314  THR314     -0.2714
    101  CB        51.6270   25.8470  -24.9590 C.3   314  THR314      0.1808
    102  OG1       52.4440   24.8810  -25.6240 O.3   314  THR314     -0.2208
    103  CG2       52.4460   26.6940  -23.9750 C.3   314  THR314      0.0379
    104  N         49.0600   24.8250  -26.1650 N.am  315  SER315     -0.1949
    105  CA        48.1950   23.9600  -26.9810 C.3   315  SER315      0.1924
    106  C         48.9850   22.8360  -27.6600 C.2   315  SER315      0.2314
    107  O         48.4670   21.7510  -27.8700 O.2   315  SER315     -0.2863
    108  CB        47.4320   24.7760  -28.0140 C.3   315  SER315      0.2116
    109  OG        46.7020   25.7690  -27.3620 O.3   315  SER315     -0.2180
    110  N         50.4600   17.6660  -26.3520 N.3   338  ARG338     -0.1245
    111  CA        49.8840   17.5420  -25.0060 C.3   338  ARG338      0.1563
    112  C         49.5370   16.0860  -24.7500 C.2   338  ARG338      0.2260
    113  O         49.1260   15.4210  -25.6730 O.2   338  ARG338     -0.2867
    114  CB        48.5980   18.3330  -24.8800 C.3   338  ARG338      0.0307
    115  CG        48.7770   19.8100  -24.8820 C.3   338  ARG338      0.0489
    116  CD        47.4270   20.5270  -24.8870 C.3   338  ARG338      0.2205
    117  NE        46.8740   20.5950  -23.5510 N.pl3 338  ARG338     -0.0865
    118  CZ        45.7660   21.2530  -23.2050 C.cat 338  ARG338      0.5346
    119  NH1       45.0490   21.9110  -24.1210 N.pl3 338  ARG338      0.1354
    120  NH2       45.3820   21.2600  -21.9250 N.pl3 338  ARG338      0.1354
@<TRIPOS>BOND
     1    62    61    1
     2    63    61    1
     3    61    60    2
     4    60    59    1
     5    59    58    1
     6    53    54    1
     7    58    57    1
     8    57    54    1
     9    77    76    2
    10    54    55    1
    11    56    55    2
    12    76    78   am
    13    76    75    1
    14    55    64   am
    15    67    66    2
    16    75    72    1
    17    72    71    1
    18    72    73    1
    19    64    65    1
    20    66    71   am
    21    66    65    1
    22    73    74    2
    23    65    68    1
    24   108   109    1
    25   108   105    1
    26   107   106    2
    27   106   105    1
    28    69    68    1
    29    68    70    1
    30   105   104    1
    31   110   111    1
    32   104    99   am
    33   113   112    2
    34   102   101    1
    35    99   100    2
    36    99    98    1
    37   111   114    1
    38   111   112    1
    39   101    98    1
    40   101   103    1
    41   116   115    1
    42   116   117    1
    43   115   114    1
    44    98    97    1
    45   119   118    1
    46   117   118    2
    47    90    89    1
    48   118   120    1
    49    97    93   am
    50    87    89   ar
    51    87    85   ar
    52    89    88   ar
    53    85    84   ar
    54    93    94    2
    55    93    92    1
    56    82    81    2
    57    88    86   ar
    58    92    95    1
    59    92    91    1
    60    95    96    1
    61    84    86   ar
    62    84    83    1
    63    81    80    1
    64    32    30   am
    65    29    30    1
    66    29    28    1
    67    30    31    2
    68    83    80    1
    69    28    25    1
    70    80    79    1
    71    25    26    1
    72    25    24    1
    73    26    27    2
    74    52    50   am
    75     1     2    1
    76    23    21    1
    77    24    18   am
    78    50    49    1
    79    50    51    2
    80    49    46    1
    81     2     5    1
    82     2     3    1
    83     6     5    1
    84    21    20    1
    85    21    22    1
    86    18    19    2
    87    18    17    1
    88    20    17    1
    89     3     4    2
    90    17    16    1
    91    15    14    1
    92    46    47    1
    93    46    45    1
    94    47    48    2
    95     7     8    1
    96    14    13    1
    97    44    43    1
    98    42    43   ar
    99    42    40   ar
   100    12    13    1
   101    12    11    1
   102     8    11    1
   103     8     9    1
   104    43    41   ar
   105    40    38   ar
   106    36    35    2
   107     9    10    2
   108    41    39   ar
   109    38    39   ar
   110    38    37    1
   111    35    34    1
   112    37    34    1
   113    34    33    1
