@<TRIPOS>MOLECULE
tmp/5wagC00.pdb
 95 88 0 0 0
SMALL
GASTEIGER

@<TRIPOS>ATOM
      1  N        -10.9930  -16.3770  -78.5980 N.3    62  SER62      -0.1217
      2  CA       -10.8890  -15.9370  -79.9870 C.3    62  SER62       0.1889
      3  C        -12.1300  -16.1830  -80.8390 C.2    62  SER62       0.2288
      4  O        -12.2800  -15.5580  -81.9010 O.2    62  SER62      -0.2866
      5  CB        -9.7020  -16.6070  -80.6810 C.3    62  SER62       0.2089
      6  OG        -8.5200  -15.9690  -80.2420 O.3    62  SER62      -0.2183
      7  N        -13.8090  -13.1830  -82.0360 N.3    65  LYS65      -0.1245
      8  CA       -13.4100  -12.4770  -83.2740 C.3    65  LYS65       0.1561
      9  C        -14.4880  -12.6520  -84.3540 C.2    65  LYS65       0.2260
     10  O        -14.5700  -11.8200  -85.2790 O.2    65  LYS65      -0.2867
     11  CB       -12.0560  -12.9630  -83.7790 C.3    65  LYS65       0.0271
     12  CG       -10.9020  -12.6850  -82.8380 C.3    65  LYS65       0.0035
     13  CD        -9.5460  -13.1070  -83.4160 C.3    65  LYS65       0.0206
     14  CE        -8.3980  -12.6040  -82.5490 C.3    65  LYS65       0.1093
     15  NZ        -8.3260  -13.3950  -81.2840 N.3    65  LYS65      -0.1314
     16  N          0.8310  -11.3360  -81.7910 N.3   117  LEU117     -0.1231
     17  CA        -0.3280  -11.9670  -81.1860 C.3   117  LEU117      0.1693
     18  C         -0.9480  -11.0340  -80.1090 C.2   117  LEU117      0.2591
     19  O         -2.1490  -10.7650  -80.1410 O.2   117  LEU117     -0.2718
     20  CB         0.0460  -13.3460  -80.6040 C.3   117  LEU117      0.0284
     21  CG        -1.1280  -14.1280  -80.0130 C.3   117  LEU117      0.0019
     22  CD1       -2.1480  -14.4630  -81.0870 C.3   117  LEU117      0.0001
     23  CD2       -0.6920  -15.3920  -79.2930 C.3   117  LEU117      0.0001
     24  N         -0.1100  -10.5430  -79.1940 N.am  118  GLN118     -0.1979
     25  CA        -0.5300   -9.6810  -78.0680 C.3   118  GLN118      0.1601
     26  C          0.0530   -8.2840  -78.1970 C.2   118  GLN118      0.2287
     27  O          1.0710   -8.0800  -78.8530 O.2   118  GLN118     -0.2864
     28  CB        -0.0780  -10.2650  -76.7110 C.3   118  GLN118      0.0394
     29  CG        -0.5280  -11.6970  -76.4070 C.3   118  GLN118      0.0908
     30  CD        -2.0430  -11.8890  -76.3680 C.2   118  GLN118      0.2608
     31  OE1       -2.8230  -10.9360  -76.5340 O.2   118  GLN118     -0.2717
     32  NE2       -2.4740  -13.1400  -76.1660 N.am  118  GLN118     -0.0878
     33  N         -1.1750  -13.7100  -86.9480 N.3   148  TYR148     -0.1241
     34  CA        -2.4170  -13.7580  -86.1850 C.3   148  TYR148      0.1605
     35  C         -2.2350  -12.7250  -85.0530 C.2   148  TYR148      0.2264
     36  O         -1.2020  -12.7560  -84.3480 O.2   148  TYR148     -0.2867
     37  CB        -2.6860  -15.1620  -85.6500 C.3   148  TYR148      0.0534
     38  CG        -4.0050  -15.3340  -84.9020 C.ar  148  TYR148     -0.0201
     39  CD1       -5.2200  -14.9320  -85.4620 C.ar  148  TYR148     -0.0009
     40  CD2       -4.0400  -15.9350  -83.6560 C.ar  148  TYR148     -0.0009
     41  CE1       -6.4240  -15.1140  -84.7940 C.ar  148  TYR148      0.0417
     42  CE2       -5.2260  -16.1340  -82.9910 C.ar  148  TYR148      0.0417
     43  CZ        -6.4110  -15.7130  -83.5570 C.ar  148  TYR148      0.1957
     44  OH        -7.5810  -15.8910  -82.8560 O.3   148  TYR148     -0.2866
     45  N         -4.2380  -10.1960  -81.9650 N.3   150  ASN150     -0.1240
     46  CA        -5.2950   -9.5510  -81.1730 C.3   150  ASN150      0.1653
     47  C         -5.3590   -8.0380  -81.3200 C.2   150  ASN150      0.2266
     48  O         -6.4530   -7.5210  -81.4210 O.2   150  ASN150     -0.2867
     49  CB        -5.1870   -9.8940  -79.6720 C.3   150  ASN150      0.1155
     50  CG        -5.5160  -11.3180  -79.3990 C.2   150  ASN150      0.2627
     51  OD1       -6.4220  -11.8830  -80.0230 O.2   150  ASN150     -0.2716
     52  ND2       -4.7600  -11.9330  -78.4830 N.am  150  ASN150     -0.0877
     53  N        -11.1320  -11.0580  -77.8530 N.3   220  TYR220     -0.1241
     54  CA       -11.3560  -12.2950  -77.0710 C.3   220  TYR220      0.1605
     55  C        -12.3750  -12.1660  -75.9370 C.2   220  TYR220      0.2264
     56  O        -12.3960  -12.9630  -74.9960 O.2   220  TYR220     -0.2867
     57  CB        -9.9890  -12.8350  -76.5540 C.3   220  TYR220      0.0534
     58  CG        -9.1450  -11.8230  -75.7640 C.ar  220  TYR220     -0.0201
     59  CD1       -9.5160  -11.4370  -74.4710 C.ar  220  TYR220     -0.0009
     60  CD2       -7.9970  -11.2160  -76.3170 C.ar  220  TYR220     -0.0009
     61  CE1       -8.7480  -10.5500  -73.7260 C.ar  220  TYR220      0.0417
     62  CE2       -7.2640  -10.2700  -75.5860 C.ar  220  TYR220      0.0417
     63  CZ        -7.6400   -9.9500  -74.2950 C.ar  220  TYR220      0.1957
     64  OH        -6.9410   -9.0470  -73.4930 O.3   220  TYR220     -0.2866
     65  N         -0.1810  -19.9480  -86.3510 N.3   290  VAL290     -0.1245
     66  CA        -0.8070  -19.1540  -85.3030 C.3   290  VAL290      0.1561
     67  C          0.1850  -18.0820  -84.7950 C.2   290  VAL290      0.2260
     68  O         -0.2240  -16.9300  -84.5040 O.2   290  VAL290     -0.2867
     69  CB        -1.2950  -20.0500  -84.1370 C.3   290  VAL290      0.0252
     70  CG1       -1.9070  -19.1960  -83.0130 C.3   290  VAL290      0.0019
     71  CG2       -2.3280  -21.1130  -84.5950 C.3   290  VAL290      0.0019
     72  N         -9.3400  -19.6280  -76.9940 N.3   312  SER312     -0.1202
     73  CA        -8.8820  -19.9770  -75.6600 C.3   312  SER312      0.2020
     74  C         -8.7470  -18.7400  -74.8330 C.2   312  SER312      0.2619
     75  O         -8.2960  -17.7300  -75.3470 O.2   312  SER312     -0.2717
     76  CB        -7.5680  -20.7600  -75.7180 C.3   312  SER312      0.2103
     77  OG        -7.7340  -21.9660  -76.4550 O.3   312  SER312     -0.2182
     78  N         -9.1240  -18.8300  -73.5570 N.am  313  THR313     -0.1952
     79  CA        -8.7120  -17.8470  -72.5550 C.3   313  THR313      0.1897
     80  C         -7.9090  -18.6550  -71.5570 C.2   313  THR313      0.2313
     81  O         -7.7030  -19.8840  -71.7540 O.2   313  THR313     -0.2863
     82  CB        -9.9190  -17.1150  -71.9250 C.3   313  THR313      0.1794
     83  OG1      -10.7630  -18.0450  -71.2480 O.3   313  THR313     -0.2208
     84  CG2      -10.7210  -16.4030  -72.9820 C.3   313  THR313      0.0378
     85  N         -8.9160  -25.1190  -70.5980 N.3   337  ARG337     -0.1245
     86  CA        -8.2570  -25.2890  -71.8690 C.3   337  ARG337      0.1563
     87  C         -7.9380  -26.7360  -72.1230 C.2   337  ARG337      0.2260
     88  O         -7.4400  -27.4080  -71.2310 O.2   337  ARG337     -0.2867
     89  CB        -6.8990  -24.6340  -71.8430 C.3   337  ARG337      0.0307
     90  CG        -6.9090  -23.1600  -72.0060 C.3   337  ARG337      0.0489
     91  CD        -5.8230  -22.8940  -73.0070 C.3   337  ARG337      0.2205
     92  NE        -5.1970  -21.6430  -72.8550 N.pl3 337  ARG337     -0.0865
     93  CZ        -4.4050  -21.1210  -73.7590 C.cat 337  ARG337      0.5346
     94  NH1       -4.1600  -21.7540  -74.9130 N.pl3 337  ARG337      0.1354
     95  NH2       -3.8990  -19.9350  -73.5110 N.pl3 337  ARG337      0.1354
@<TRIPOS>BOND
     1    33    34    1
     2    65    66    1
     3    34    37    1
     4    34    35    1
     5    37    38    1
     6    39    38   ar
     7    39    41   ar
     8    66    67    1
     9    66    69    1
    10    10     9    2
    11    35    36    2
    12    38    40   ar
    13    67    68    2
    14    41    43   ar
    15    71    69    1
    16     9     8    1
    17    69    70    1
    18    11     8    1
    19    11    12    1
    20    40    42   ar
    21    43    42   ar
    22    43    44    1
    23    13    12    1
    24    13    14    1
    25     8     7    1
    26    14    15    1
    27    45    46    1
    28     4     3    2
    29    16    17    1
    30    48    47    2
    31    47    46    1
    32    17    20    1
    33    17    18    1
    34    46    49    1
    35    22    21    1
    36     3     2    1
    37     5     6    1
    38     5     2    1
    39    20    21    1
    40    19    18    2
    41    18    24   am
    42    51    50    2
    43    21    23    1
    44     2     1    1
    45    49    50    1
    46    50    52   am
    47    24    25    1
    48    27    26    2
    49    26    25    1
    50    25    28    1
    51    53    54    1
    52    54    57    1
    53    54    55    1
    54    72    73    1
    55    28    29    1
    56    57    58    1
    57    31    30    2
    58    77    76    1
    59    29    30    1
    60    30    32   am
    61    60    58   ar
    62    60    62   ar
    63    55    56    2
    64    58    59   ar
    65    76    73    1
    66    73    74    1
    67    62    63   ar
    68    75    74    2
    69    94    93    1
    70    74    78   am
    71    59    61   ar
    72    63    61   ar
    73    63    64    1
    74    93    95    1
    75    93    92    2
    76    78    79    1
    77    91    92    1
    78    91    90    1
    79    84    82    1
    80    79    82    1
    81    79    80    1
    82    87    86    1
    83    87    88    2
    84    90    89    1
    85    82    83    1
    86    86    89    1
    87    86    85    1
    88    81    80    2
