@<TRIPOS>MOLECULE
tmp/5walA00.pdb
 160 152 0 0 0
SMALL
GASTEIGER

@<TRIPOS>ATOM
      1  N         -1.2110   19.0460   15.6750 N.3    12  ARG12      -0.1245
      2  CA        -0.3980   17.9990   16.2980 C.3    12  ARG12       0.1563
      3  C         -0.5710   16.6280   15.6510 C.2    12  ARG12       0.2260
      4  O         -1.4650   16.4420   14.8250 O.2    12  ARG12      -0.2867
      5  CB        -0.6790   17.9170   17.8110 C.3    12  ARG12       0.0307
      6  CG        -2.0910   17.5430   18.1980 C.3    12  ARG12       0.0489
      7  CD        -2.0820   17.0560   19.6230 C.3    12  ARG12       0.2205
      8  NE        -3.3480   16.4560   20.0360 N.pl3  12  ARG12      -0.0865
      9  CZ        -4.4150   17.1380   20.4460 C.cat  12  ARG12       0.5346
     10  NH1       -4.3970   18.4680   20.4670 N.pl3  12  ARG12       0.1354
     11  NH2       -5.5130   16.4980   20.8210 N.pl3  12  ARG12       0.1354
     12  N         -1.6790   12.7040   16.0090 N.3    14  LEU14      -0.1231
     13  CA        -2.6190   11.9240   16.8210 C.3    14  LEU14       0.1693
     14  C         -2.1150   10.5130   17.0990 C.2    14  LEU14       0.2593
     15  O         -2.2760    9.9940   18.2000 O.2    14  LEU14      -0.2718
     16  CB        -4.0280   11.9290   16.2210 C.3    14  LEU14       0.0284
     17  CG        -4.7230   13.3020   16.1420 C.3    14  LEU14       0.0019
     18  CD1       -6.1150   13.1670   15.5610 C.3    14  LEU14       0.0001
     19  CD2       -4.7720   14.0080   17.5160 C.3    14  LEU14       0.0001
     20  N         -1.4530    9.9270   16.1230 N.am   15  GLY15      -0.1942
     21  CA        -0.8750    8.6070   16.2820 C.3    15  GLY15       0.2014
     22  C         -0.5500    7.9220   14.9800 C.2    15  GLY15       0.2638
     23  O         -0.3560    8.5730   13.9500 O.2    15  GLY15      -0.2714
     24  N         -0.4870    6.5930   15.0370 N.am   16  GLU16      -0.1977
     25  CA        -0.1790    5.7800   13.8780 C.3    16  GLU16       0.1602
     26  C         -1.3470    4.9260   13.4350 C.2    16  GLU16       0.2287
     27  O         -1.9450    4.2000   14.2320 O.2    16  GLU16      -0.2864
     28  CB         1.0670    4.9090   14.1250 C.3    16  GLU16       0.0415
     29  CG         2.3620    5.7030   14.2560 C.3    16  GLU16       0.1163
     30  CD         2.9510    6.2940   12.9860 C.2    16  GLU16       0.3649
     31  OE1        2.6380    5.7930   11.8810 O.co2  16  GLU16      -0.2457
     32  OE2        3.7610    7.2410   13.1030 O.co2  16  GLU16      -0.2457
     33  N         -1.8250    9.3800   11.6960 N.3    22  VAL22      -0.1245
     34  CA        -3.0170   10.2030   11.8920 C.3    22  VAL22       0.1561
     35  C         -2.5520   11.5340   12.5150 C.2    22  VAL22       0.2260
     36  O         -1.7600   11.5430   13.4570 O.2    22  VAL22      -0.2867
     37  CB        -4.1440    9.4950   12.6930 C.3    22  VAL22       0.0252
     38  CG1       -5.4630   10.2670   12.5970 C.3    22  VAL22       0.0019
     39  CG2       -4.3410    8.0610   12.1980 C.3    22  VAL22       0.0019
     40  N         -9.2070   15.2530   11.6520 N.3    39  ALA39      -0.1245
     41  CA        -8.2310   14.1900   11.8340 C.3    39  ALA39       0.1562
     42  C         -7.9380   13.6930   10.4110 C.2    39  ALA39       0.2260
     43  O         -8.8620   13.3910    9.6460 O.2    39  ALA39      -0.2867
     44  CB        -8.8100   13.0790   12.6960 C.3    39  ALA39       0.0290
     45  N        -16.8390    6.1140   12.5490 N.3    71  ILE71      -0.1245
     46  CA       -16.2170    7.4190   12.3150 C.3    71  ILE71       0.1561
     47  C        -16.6590    8.0070   10.9630 C.2    71  ILE71       0.2260
     48  O        -16.7040    7.3100    9.9460 O.2    71  ILE71      -0.2867
     49  CB       -14.6720    7.4210   12.5140 C.3    71  ILE71       0.0252
     50  CG1      -14.1410    8.8750   12.5920 C.3    71  ILE71       0.0019
     51  CG2      -13.9440    6.5690   11.4580 C.3    71  ILE71       0.0019
     52  CD1      -12.7290    9.0700   12.9410 C.3    71  ILE71       0.0001
     53  N        -11.0960   12.8290    8.1380 N.3    89  MET89      -0.1230
     54  CA       -12.1080   12.2840    9.0470 C.3    89  MET89       0.1702
     55  C        -12.5140   13.3380   10.0680 C.2    89  MET89       0.2592
     56  O        -11.7950   14.3250   10.2690 O.2    89  MET89      -0.2718
     57  CB       -11.5610   11.0490    9.8110 C.3    89  MET89       0.0401
     58  CG       -11.1300    9.9050    8.9280 C.3    89  MET89       0.0596
     59  SD       -12.5120    9.0340    8.1640 S.3    89  MET89      -0.1393
     60  CE       -11.7820    8.5880    6.7020 C.3    89  MET89       0.0692
     61  N        -13.6420   13.0990   10.7630 N.am   90  GLU90      -0.1966
     62  CA       -14.0970   13.9980   11.8140 C.3    90  GLU90       0.1733
     63  C        -13.1500   13.7760   13.0140 C.2    90  GLU90       0.2616
     64  O        -12.6900   12.6530   13.2490 O.2    90  GLU90      -0.2715
     65  CB       -15.5600   13.7030   12.2010 C.3    90  GLU90       0.0429
     66  CG       -15.8040   12.2720   12.6770 C.3    90  GLU90       0.1163
     67  CD       -17.0210   12.0160   13.5450 C.2    90  GLU90       0.3649
     68  OE1      -17.5010   12.9570   14.2160 O.co2  90  GLU90      -0.2457
     69  OE2      -17.4530   10.8430   13.6060 O.co2  90  GLU90      -0.2457
     70  N        -12.8200   14.8400   13.7260 N.am   91  TYR91      -0.1960
     71  CA       -11.9750   14.7300   14.9000 C.3    91  TYR91       0.1771
     72  C        -12.8280   14.3860   16.1130 C.2    91  TYR91       0.2619
     73  O        -13.7970   15.0810   16.4010 O.2    91  TYR91      -0.2715
     74  CB       -11.1830   16.0270   15.1190 C.3    91  TYR91       0.0574
     75  CG       -10.3800   16.0690   16.4020 C.ar   91  TYR91      -0.0198
     76  CD1       -9.4760   15.0530   16.7200 C.ar   91  TYR91      -0.0009
     77  CD2      -10.4910   17.1420   17.2800 C.ar   91  TYR91      -0.0009
     78  CE1       -8.7170   15.1000   17.8890 C.ar   91  TYR91       0.0417
     79  CE2       -9.7330   17.2030   18.4470 C.ar   91  TYR91       0.0417
     80  CZ        -8.8260   16.1940   18.7310 C.ar   91  TYR91       0.1957
     81  OH        -8.0950   16.2550   19.8800 O.3    91  TYR91      -0.2866
     82  N        -12.4710   13.3100   16.8110 N.am   92  VAL92      -0.1964
     83  CA       -13.1710   12.8420   18.0130 C.3    92  VAL92       0.1712
     84  C        -12.2120   13.1870   19.1670 C.2    92  VAL92       0.2458
     85  O        -11.2560   12.4430   19.3960 O.2    92  VAL92      -0.2730
     86  CB       -13.5140   11.3320   17.9010 C.3    92  VAL92       0.0289
     87  CG1      -14.2570   10.8470   19.1350 C.3    92  VAL92       0.0023
     88  CG2      -14.3270   11.0460   16.6380 C.3    92  VAL92       0.0023
     89  N        -12.3890   14.3650   19.8210 N.am   93  PRO93      -0.2716
     90  CA       -11.4060   14.8180   20.8190 C.3    93  PRO93       0.1536
     91  C        -11.1830   13.9490   22.0510 C.2    93  PRO93       0.2598
     92  O        -10.0380   13.8850   22.4990 O.2    93  PRO93      -0.2715
     93  CB       -11.9130   16.2020   21.2220 C.3    93  PRO93       0.0310
     94  CG       -13.3270   16.2360   20.8160 C.3    93  PRO93       0.0237
     95  CD       -13.4200   15.3980   19.5950 C.3    93  PRO93       0.0939
     96  N        -12.2210   13.2750   22.5880 N.am   94  LEU94      -0.1964
     97  CA       -12.0600   12.4590   23.7980 C.3    94  LEU94       0.1728
     98  C        -11.2110   11.2010   23.5580 C.2    94  LEU94       0.2617
     99  O        -10.7820   10.5500   24.5150 O.2    94  LEU94      -0.2715
    100  CB       -13.4150   12.1340   24.4730 C.3    94  LEU94       0.0311
    101  CG       -14.2030   13.3630   24.9720 C.3    94  LEU94       0.0022
    102  CD1      -15.6080   13.0040   25.3370 C.3    94  LEU94       0.0001
    103  CD2      -13.5200   14.0320   26.1470 C.3    94  LEU94       0.0001
    104  N        -10.9460   10.9080   22.2910 N.am   95  GLY95      -0.1940
    105  CA       -10.0940    9.8070   21.8650 C.3    95  GLY95       0.2014
    106  C        -10.6190    8.4080   22.0570 C.2    95  GLY95       0.2639
    107  O        -11.8310    8.1920   22.1130 O.2    95  GLY95      -0.2714
    108  N         -9.6720    7.4550   22.1600 N.am   96  SER96      -0.1949
    109  CA        -9.9300    6.0260   22.2810 C.3    96  SER96       0.1924
    110  C        -10.3390    5.5750   23.6810 C.2    96  SER96       0.2314
    111  O         -9.9780    6.2150   24.6810 O.2    96  SER96      -0.2863
    112  CB        -8.7410    5.2050   21.7770 C.3    96  SER96       0.2116
    113  OG        -7.8570    4.8340   22.8200 O.3    96  SER96      -0.2180
    114  N         -7.4400    4.9700   25.8990 N.3    99  ASP99      -0.1239
    115  CA        -6.8990    6.1800   26.5050 C.3    99  ASP99       0.1674
    116  C         -7.8290    6.7570   27.5860 C.2    99  ASP99       0.2266
    117  O         -7.3630    7.0950   28.6680 O.2    99  ASP99      -0.2867
    118  CB        -6.5700    7.2180   25.4160 C.3    99  ASP99       0.1410
    119  CG        -5.4480    6.8080   24.4710 C.2    99  ASP99       0.3668
    120  OD1       -5.4460    5.6390   24.0150 O.co2  99  ASP99      -0.2456
    121  OD2       -4.6200    7.6790   24.1210 O.co2  99  ASP99      -0.2456
    122  N         -8.5910    0.2050   21.5890 N.3   138  ARG138     -0.1231
    123  CA        -7.6810    1.1870   20.9800 C.3   138  ARG138      0.1694
    124  C         -8.3190    1.8400   19.7540 C.2   138  ARG138      0.2592
    125  O         -8.0480    3.0090   19.4870 O.2   138  ARG138     -0.2718
    126  CB        -6.3720    0.4760   20.5610 C.3   138  ARG138      0.0321
    127  CG        -5.2570    1.3730   20.0480 C.3   138  ARG138      0.0489
    128  CD        -4.0850    0.5410   19.5730 C.3   138  ARG138      0.2205
    129  NE        -3.1210    0.2890   20.6490 N.pl3 138  ARG138     -0.0865
    130  CZ        -2.1970   -0.6660   20.6240 C.cat 138  ARG138      0.5346
    131  NH1       -1.3620   -0.8160   21.6440 N.pl3 138  ARG138      0.1354
    132  NH2       -2.1080   -1.4880   19.5840 N.pl3 138  ARG138      0.1354
    133  N         -9.1470    1.0730   19.0060 N.am  139  ASN139     -0.1974
    134  CA        -9.7820    1.4810   17.7530 C.3   139  ASN139      0.1688
    135  C        -11.2420    1.9300   17.9020 C.2   139  ASN139      0.2292
    136  O        -11.9410    2.1150   16.9010 O.2   139  ASN139     -0.2864
    137  CB        -9.6340    0.3620   16.7260 C.3   139  ASN139      0.1181
    138  CG        -8.1900    0.0900   16.3950 C.2   139  ASN139      0.2629
    139  OD1       -7.4180    0.9990   16.0920 O.2   139  ASN139     -0.2716
    140  ND2       -7.7850   -1.1630   16.4740 N.am  139  ASN139     -0.0877
    141  N        -13.4660    5.0100   19.3990 N.3   141  LEU141     -0.1245
    142  CA       -13.4580    6.4180   19.7960 C.3   141  LEU141      0.1561
    143  C        -14.7170    6.8260   20.5540 C.2   141  LEU141      0.2260
    144  O        -15.8170    6.4210   20.1820 O.2   141  LEU141     -0.2867
    145  CB       -13.2360    7.3200   18.5690 C.3   141  LEU141      0.0270
    146  CG       -12.0080    6.9950   17.7080 C.3   141  LEU141      0.0019
    147  CD1      -11.9540    7.8790   16.4850 C.3   141  LEU141      0.0001
    148  CD2      -10.7170    7.1080   18.5180 C.3   141  LEU141      0.0001
    149  N        -13.3880    3.6560   15.1360 N.3   151  GLY151     -0.1210
    150  CA       -12.5260    4.6720   14.5480 C.3   151  GLY151      0.1956
    151  C        -11.4140    4.3220   13.5840 C.2   151  GLY151      0.2611
    152  O        -10.8940    5.2310   12.9260 O.2   151  GLY151     -0.2717
    153  N        -11.0030    3.0550   13.5040 N.am  152  ASP152     -0.1973
    154  CA        -9.8990    2.6930   12.6100 C.3   152  ASP152      0.1709
    155  C        -10.2910    1.5350   11.7420 C.2   152  ASP152      0.2293
    156  O        -11.0420    0.6750   12.2030 O.2   152  ASP152     -0.2864
    157  CB        -8.6340    2.3460   13.4040 C.3   152  ASP152      0.1436
    158  CG        -7.3800    2.3770   12.5540 C.2   152  ASP152      0.3671
    159  OD1       -7.0290    1.3220   11.9690 O.co2 152  ASP152     -0.2456
    160  OD2       -6.7800    3.4680   12.4270 O.co2 152  ASP152     -0.2456
@<TRIPOS>BOND
     1    60    59    1
     2    53    54    1
     3    59    58    1
     4    58    57    1
     5    54    57    1
     6    54    55    1
     7    43    42    2
     8    48    47    2
     9    55    56    2
    10    55    61   am
    11    42    41    1
    12    61    62    1
    13    47    46    1
    14    51    49    1
    15    40    41    1
    16    33    34    1
    17   155   156    2
    18   155   154    1
    19    62    65    1
    20    62    63    1
    21    41    44    1
    22    31    30   ar
    23    34    35    1
    24    34    37    1
    25   159   158   ar
    26    39    37    1
    27    65    66    1
    28    46    49    1
    29    46    45    1
    30   160   158   ar
    31    49    50    1
    32    35    36    2
    33   158   157    1
    34    50    52    1
    35    38    37    1
    36   154   157    1
    37   154   153    1
    38    66    67    1
    39   152   151    2
    40    30    32   ar
    41    30    29    1
    42    63    64    2
    43    63    70   am
    44    26    25    1
    45    26    27    2
    46   153   151   am
    47    67    69   ar
    48    67    68   ar
    49   151   150    1
    50    70    71    1
    51    25    28    1
    52    25    24    1
    53    23    22    2
    54    28    29    1
    55   150   149    1
    56     4     3    2
    57    71    74    1
    58    71    72    1
    59    22    24   am
    60    22    21    1
    61    74    75    1
    62    18    17    1
    63     3     2    1
    64     1     2    1
    65    12    13    1
    66   139   138    2
    67    72    73    2
    68    72    82   am
    69    20    21    1
    70    20    14   am
    71    17    16    1
    72    17    19    1
    73    16    13    1
    74     2     5    1
    75   138   140   am
    76   138   137    1
    77    75    76   ar
    78    75    77   ar
    79   147   146    1
    80    88    86    1
    81    76    78   ar
    82   137   134    1
    83    82    83    1
    84    13    14    1
    85   136   135    2
    86    14    15    2
    87    77    79   ar
    88   146   148    1
    89   146   145    1
    90   134   135    1
    91   134   133    1
    92     5     6    1
    93    78    80   ar
    94    86    83    1
    95    86    87    1
    96    83    84    1
    97     6     7    1
    98    79    80   ar
    99   145   142    1
   100    80    81    1
   101   133   124   am
   102    84    85    2
   103    84    89   am
   104   141   142    1
   105   125   124    2
   106   128   127    1
   107   128   129    1
   108   132   130    1
   109    95    89    1
   110    95    94    1
   111     7     8    1
   112   124   123    1
   113   142   143    1
   114    89    90    1
   115     8     9    2
   116   127   126    1
   117   144   143    2
   118     9    10    1
   119     9    11    1
   120   126   123    1
   121   130   129    2
   122   130   131    1
   123    94    93    1
   124    90    93    1
   125    90    91    1
   126   123   122    1
   127   112   109    1
   128   112   113    1
   129   105   106    1
   130   105   104    1
   131    91    92    2
   132    91    96   am
   133   106   107    2
   134   106   108   am
   135   108   109    1
   136   109   110    1
   137   104    98   am
   138    96    97    1
   139    98    97    1
   140    98    99    2
   141   110   111    2
   142    97   100    1
   143   120   119   ar
   144   121   119   ar
   145   119   118    1
   146   100   101    1
   147   101   102    1
   148   101   103    1
   149   118   115    1
   150   114   115    1
   151   115   116    1
   152   116   117    2
