@<TRIPOS>MOLECULE
tmp/5wanA01.pdb
 207 201 0 0 0
SMALL
GASTEIGER

@<TRIPOS>ATOM
      1  N         23.7030   38.0180   18.0860 N.3    10  PHE10      -0.1241
      2  CA        22.5150   37.2940   17.6230 C.3    10  PHE10       0.1605
      3  C         21.5900   38.3510   17.0320 C.2    10  PHE10       0.2264
      4  O         20.9350   39.0870   17.7780 O.2    10  PHE10      -0.2867
      5  CB        21.8760   36.5760   18.8140 C.3    10  PHE10       0.0534
      6  CG        21.1110   35.3050   18.4850 C.ar   10  PHE10      -0.0203
      7  CD1       21.1980   34.6830   17.2480 C.ar   10  PHE10      -0.0042
      8  CD2       20.3080   34.7260   19.4690 C.ar   10  PHE10      -0.0042
      9  CE1       20.4790   33.5040   17.0000 C.ar   10  PHE10      -0.0003
     10  CE2       19.5940   33.5610   19.2360 C.ar   10  PHE10      -0.0003
     11  CZ        19.6720   32.9490   17.9930 C.ar   10  PHE10      -0.0000
     12  N         25.2030   35.9850   13.9010 N.3    50  LEU50      -0.1245
     13  CA        24.3520   34.8460   13.5770 C.3    50  LEU50       0.1561
     14  C         22.8990   35.2920   13.5170 C.2    50  LEU50       0.2260
     15  O         22.4540   36.0640   14.3750 O.2    50  LEU50      -0.2867
     16  CB        24.5020   33.7390   14.6450 C.3    50  LEU50       0.0270
     17  CG        23.4310   32.6410   14.6780 C.3    50  LEU50       0.0019
     18  CD1       23.6060   31.6960   13.4840 C.3    50  LEU50       0.0001
     19  CD2       23.5040   31.8980   16.0080 C.3    50  LEU50       0.0001
     20  N         18.9930   33.4690   13.5020 N.3    52  MET52      -0.1230
     21  CA        18.1650   32.2830   13.6190 C.3    52  MET52       0.1702
     22  C         17.2650   32.1630   12.3940 C.2    52  MET52       0.2592
     23  O         17.3330   32.9620   11.4570 O.2    52  MET52      -0.2718
     24  CB        17.3270   32.3570   14.8950 C.3    52  MET52       0.0401
     25  CG        16.4120   33.5810   14.9350 C.3    52  MET52       0.0596
     26  SD        15.4690   33.7010   16.4640 S.3    52  MET52      -0.1393
     27  CE        14.4700   32.2180   16.3300 C.3    52  MET52       0.0692
     28  N         16.4020   31.1520   12.4030 N.am   53  ILE53      -0.1966
     29  CA        15.2620   31.0780   11.4890 C.3    53  ILE53       0.1727
     30  C         14.0330   30.7590   12.3320 C.2    53  ILE53       0.2616
     31  O         14.0640   29.8370   13.1570 O.2    53  ILE53      -0.2715
     32  CB        15.4660   30.0500   10.3530 C.3    53  ILE53       0.0290
     33  CG1       14.2440   30.0330    9.4140 C.3    53  ILE53       0.0022
     34  CG2       15.7390   28.6390   10.8850 C.3    53  ILE53       0.0023
     35  CD1       14.1030   31.3060    8.5430 C.3    53  ILE53       0.0001
     36  N         12.9710   31.5520   12.1700 N.am   54  LYS54      -0.1977
     37  CA        11.7530   31.3680   12.9640 C.3    54  LYS54       0.1596
     38  C         10.5520   31.5280   12.0460 C.2    54  LYS54       0.2287
     39  O         10.2170   32.6500   11.6510 O.2    54  LYS54      -0.2864
     40  CB        11.6930   32.3590   14.1270 C.3    54  LYS54       0.0298
     41  CG        10.5760   32.0600   15.1170 C.3    54  LYS54       0.0038
     42  CD        10.9570   30.8580   15.9680 C.3    54  LYS54       0.0206
     43  CE         9.8870   30.5170   16.9880 C.3    54  LYS54       0.1093
     44  NZ         8.7230   29.8340   16.3630 N.3    54  LYS54      -0.1314
     45  N         21.2060   30.2650    9.6010 N.3    90  THR90      -0.1218
     46  CA        20.6460   29.0280   10.1370 C.3    90  THR90       0.1862
     47  C         19.8300   28.3170    9.0660 C.2    90  THR90       0.2287
     48  O         18.9960   28.9350    8.3980 O.2    90  THR90      -0.2866
     49  CB        19.7740   29.2890   11.3650 C.3    90  THR90       0.1770
     50  OG1       20.5790   29.9000   12.3760 O.3    90  THR90      -0.2211
     51  CG2       19.2250   27.9670   11.9150 C.3    90  THR90       0.0375
     52  N         24.6590   27.3440   10.6560 N.3   119  ASN119     -0.1240
     53  CA        24.1470   26.7560   11.8950 C.3   119  ASN119      0.1653
     54  C         23.0660   25.7560   11.4990 C.2   119  ASN119      0.2266
     55  O         22.0540   26.1360   10.9000 O.2   119  ASN119     -0.2867
     56  CB        23.6020   27.8530   12.8100 C.3   119  ASN119      0.1155
     57  CG        23.0350   27.3160   14.1110 C.2   119  ASN119      0.2627
     58  OD1       23.5730   26.3910   14.7050 O.2   119  ASN119     -0.2716
     59  ND2       21.9390   27.9140   14.5620 N.am  119  ASN119     -0.0877
     60  N         20.2150   23.1270   12.3100 N.3   121  VAL121     -0.1231
     61  CA        19.2420   22.7840   13.3420 C.3   121  VAL121      0.1692
     62  C         18.2220   21.7930   12.7880 C.2   121  VAL121      0.2593
     63  O         17.9050   21.7830   11.5940 O.2   121  VAL121     -0.2718
     64  CB        18.5310   24.0330   13.9200 C.3   121  VAL121      0.0266
     65  CG1       19.5510   25.0000   14.5360 C.3   121  VAL121      0.0020
     66  CG2       17.6900   24.7300   12.8720 C.3   121  VAL121      0.0020
     67  N         17.7000   20.9490   13.6810 N.am  122  THR122     -0.1939
     68  CA        16.6780   19.9890   13.2760 C.3   122  THR122      0.2028
     69  C         15.3060   20.6310   13.2020 C.2   122  THR122      0.2643
     70  O         14.4270   20.1270   12.4910 O.2   122  THR122     -0.2714
     71  CB        16.5940   18.8270   14.2660 C.3   122  THR122      0.1808
     72  OG1       16.1970   19.3500   15.5330 O.3   122  THR122     -0.2208
     73  CG2       17.9430   18.1160   14.4170 C.3   122  THR122      0.0379
     74  N         15.1060   21.7240   13.9190 N.am  123  GLY123     -0.1939
     75  CA        13.7380   22.1220   14.1760 C.3   123  GLY123      0.2014
     76  C         13.1600   21.3510   15.3430 C.2   123  GLY123      0.2638
     77  O         13.4390   20.1690   15.5480 O.2   123  GLY123     -0.2714
     78  N         12.3920   22.0650   16.1650 N.am  124  TRP124     -0.1973
     79  CA        11.7210   21.4690   17.3150 C.3   124  TRP124      0.1640
     80  C         10.2480   21.8350   17.4210 C.2   124  TRP124      0.2290
     81  O          9.4730   21.0350   17.9510 O.2   124  TRP124     -0.2864
     82  CB        12.4310   21.8660   18.6260 C.3   124  TRP124      0.0576
     83  CG        11.7500   21.3600   19.8680 C.ar  124  TRP124      0.0006
     84  CD1       11.3840   20.0820   20.1860 C.ar  124  TRP124      0.0946
     85  CD2       11.4010   22.1610   21.0090 C.ar  124  TRP124      0.0152
     86  NE1       10.8390   20.0200   21.4360 N.ar  124  TRP124     -0.2442
     87  CE2       10.7960   21.2870   21.9640 C.ar  124  TRP124      0.0810
     88  CE3       11.4970   23.5170   21.3000 C.ar  124  TRP124      0.0012
     89  CZ2       10.3160   21.7590   23.1830 C.ar  124  TRP124      0.0191
     90  CZ3       11.0160   23.9700   22.5140 C.ar  124  TRP124      0.0001
     91  CH2       10.4410   23.1020   23.4320 C.ar  124  TRP124      0.0015
     92  N          5.7050   25.2750   13.3330 N.3   128  GLU128     -0.1231
     93  CA         6.4490   25.9300   12.2570 C.3   128  GLU128      0.1699
     94  C          6.4110   25.1240   10.9670 C.2   128  GLU128      0.2592
     95  O          6.4900   25.7000    9.8720 O.2   128  GLU128     -0.2718
     96  CB         7.9110   26.1500   12.6660 C.3   128  GLU128      0.0402
     97  CG         8.1250   27.2700   13.6660 C.3   128  GLU128      0.1161
     98  CD         9.5920   27.5180   13.9510 C.2   128  GLU128      0.3649
     99  OE1       10.3590   27.8090   12.9990 O.co2 128  GLU128     -0.2457
    100  OE2        9.9820   27.4130   15.1310 O.co2 128  GLU128     -0.2457
    101  N          6.3220   23.7970   11.0770 N.am  129  TYR129     -0.1976
    102  CA         6.3740   22.8700    9.9510 C.3   129  TYR129      0.1639
    103  C          5.0120   22.3160    9.5650 C.2   129  TYR129      0.2290
    104  O          4.7180   22.1880    8.3710 O.2   129  TYR129     -0.2864
    105  CB         7.3330   21.7170   10.2820 C.3   129  TYR129      0.0560
    106  CG         8.6790   22.2650   10.6480 C.ar  129  TYR129     -0.0198
    107  CD1        9.5590   22.6700    9.6550 C.ar  129  TYR129     -0.0009
    108  CD2        9.0420   22.4620   11.9790 C.ar  129  TYR129     -0.0009
    109  CE1       10.7870   23.2160    9.9640 C.ar  129  TYR129      0.0417
    110  CE2       10.2710   23.0170   12.3020 C.ar  129  TYR129      0.0417
    111  CZ        11.1420   23.3810   11.2860 C.ar  129  TYR129      0.1957
    112  OH        12.3680   23.9360   11.5670 O.3   129  TYR129     -0.2866
    113  N         15.2740   12.8610   14.7130 N.3   144  ARG144     -0.1231
    114  CA        15.7070   14.0620   14.0070 C.3   144  ARG144      0.1694
    115  C         17.2220   14.1490   13.8570 C.2   144  ARG144      0.2592
    116  O         17.7040   14.7220   12.8750 O.2   144  ARG144     -0.2718
    117  CB        15.1640   15.3070   14.7060 C.3   144  ARG144      0.0321
    118  CG        15.5020   15.4050   16.1610 C.3   144  ARG144      0.0489
    119  CD        14.5520   16.3670   16.8660 C.3   144  ARG144      0.2205
    120  NE        14.7750   16.3420   18.3090 N.pl3 144  ARG144     -0.0865
    121  CZ        15.4900   17.2470   18.9730 C.cat 144  ARG144      0.5346
    122  NH1       15.6530   17.1310   20.2870 N.pl3 144  ARG144      0.1354
    123  NH2       16.0300   18.2760   18.3260 N.pl3 144  ARG144      0.1354
    124  N         17.9990   13.5970   14.7970 N.am  145  TYR145     -0.1976
    125  CA        19.4460   13.6660   14.6000 C.3   145  TYR145      0.1639
    126  C         19.9660   12.5520   13.6920 C.2   145  TYR145      0.2290
    127  O         21.0580   12.6930   13.1320 O.2   145  TYR145     -0.2864
    128  CB        20.1770   13.6940   15.9560 C.3   145  TYR145      0.0560
    129  CG        20.1140   15.0780   16.5810 C.ar  145  TYR145     -0.0198
    130  CD1       20.8540   16.1240   16.0590 C.ar  145  TYR145     -0.0009
    131  CD2       19.2670   15.3510   17.6590 C.ar  145  TYR145     -0.0009
    132  CE1       20.7800   17.4010   16.5990 C.ar  145  TYR145      0.0417
    133  CE2       19.1860   16.6330   18.2040 C.ar  145  TYR145      0.0417
    134  CZ        19.9490   17.6530   17.6630 C.ar  145  TYR145      0.1957
    135  OH        19.8870   18.9340   18.1780 O.3   145  TYR145     -0.2866
    136  N         23.4670   23.6760   17.7420 N.3   191  ALA191     -0.1231
    137  CA        22.9290   24.1880   18.9950 C.3   191  ALA191      0.1694
    138  C         22.2340   23.0710   19.7560 C.2   191  ALA191      0.2593
    139  O         21.1400   23.2350   20.2910 O.2   191  ALA191     -0.2718
    140  CB        21.9920   25.3560   18.7280 C.3   191  ALA191      0.0304
    141  N         22.8750   21.9050   19.8200 N.am  192  GLY192     -0.1942
    142  CA        22.2640   20.7650   20.4840 C.3   192  GLY192      0.2014
    143  C         22.4670   20.8350   21.9850 C.2   192  GLY192      0.2639
    144  O         23.5870   21.0410   22.4600 O.2   192  GLY192     -0.2714
    145  N         21.3720   20.6970   22.7400 N.am  193  GLN193     -0.1963
    146  CA        21.4440   20.6220   24.1990 C.3   193  GLN193      0.1733
    147  C         21.2790   19.2070   24.7280 C.2   193  GLN193      0.2617
    148  O         21.7570   18.9040   25.8280 O.2   193  GLN193     -0.2715
    149  CB        20.3690   21.5050   24.8540 C.3   193  GLN193      0.0408
    150  CG        20.1940   22.8860   24.2450 C.3   193  GLN193      0.0908
    151  CD        21.4130   23.7780   24.4090 C.2   193  GLN193      0.2608
    152  OE1       22.1640   23.9920   23.4540 O.2   193  GLN193     -0.2717
    153  NE2       21.6040   24.3240   25.6130 N.am  193  GLN193     -0.0878
    154  N         20.6090   18.3390   23.9790 N.am  194  SER194     -0.1950
    155  CA        20.3660   16.9750   24.4180 C.3   194  SER194      0.1924
    156  C         21.6150   16.1210   24.2250 C.2   194  SER194      0.2314
    157  O         22.5730   16.5240   23.5650 O.2   194  SER194     -0.2863
    158  CB        19.2060   16.3660   23.6360 C.3   194  SER194      0.2116
    159  OG        19.5160   16.3370   22.2490 O.3   194  SER194     -0.2180
    160  N         21.8680   15.5670   20.5700 N.3   197  GLY197     -0.1225
    161  CA        22.3020   16.7820   19.9070 C.3   197  GLY197      0.1811
    162  C         23.7790   17.0570   20.1050 C.2   197  GLY197      0.2280
    163  O         24.4800   17.4260   19.1610 O.2   197  GLY197     -0.2866
    164  N         26.3310   25.8650   20.3270 N.3   209  PHE209     -0.1227
    165  CA        25.6720   26.8870   21.1310 C.3   209  PHE209      0.1736
    166  C         24.9010   26.2510   22.2770 C.2   209  PHE209      0.2596
    167  O         24.1880   25.2640   22.0870 O.2   209  PHE209     -0.2718
    168  CB        24.6840   27.7020   20.2970 C.3   209  PHE209      0.0547
    169  CG        25.3250   28.5960   19.2940 C.ar  209  PHE209     -0.0202
    170  CD1       26.1490   29.6410   19.6970 C.ar  209  PHE209     -0.0042
    171  CD2       25.0890   28.4080   17.9420 C.ar  209  PHE209     -0.0042
    172  CE1       26.7410   30.4770   18.7560 C.ar  209  PHE209     -0.0003
    173  CE2       25.6680   29.2390   17.0050 C.ar  209  PHE209     -0.0003
    174  CZ        26.5030   30.2750   17.4120 C.ar  209  PHE209     -0.0000
    175  N         25.0110   26.8390   23.4650 N.am  210  CYS210     -0.1956
    176  CA        24.1750   26.4280   24.5820 C.3   210  CYS210      0.1843
    177  C         23.6160   27.6680   25.2660 C.2   210  CYS210      0.2625
    178  O         24.0790   28.7900   25.0390 O.2   210  CYS210     -0.2714
    179  CB        24.9340   25.5600   25.5800 C.3   210  CYS210      0.0997
    180  SG        26.2420   26.3910   26.4770 S.3   210  CYS210     -0.0797
    181  N         22.5910   27.4560   26.0840 N.am  211  PHE211     -0.1974
    182  CA        21.9110   28.5600   26.7500 C.3   211  PHE211      0.1639
    183  C         22.6730   28.9790   27.9970 C.2   211  PHE211      0.2290
    184  O         23.0150   28.1410   28.8340 O.2   211  PHE211     -0.2864
    185  CB        20.4890   28.1610   27.1410 C.3   211  PHE211      0.0560
    186  CG        19.5650   27.9770   25.9810 C.ar  211  PHE211     -0.0200
    187  CD1       19.1450   29.0660   25.2330 C.ar  211  PHE211     -0.0042
    188  CD2       19.0920   26.7170   25.6500 C.ar  211  PHE211     -0.0042
    189  CE1       18.2800   28.8980   24.1620 C.ar  211  PHE211     -0.0003
    190  CE2       18.2250   26.5440   24.5830 C.ar  211  PHE211     -0.0003
    191  CZ        17.8240   27.6350   23.8380 C.ar  211  PHE211     -0.0000
    192  N         24.7440   31.6360   25.0410 N.3   244  LEU244     -0.1245
    193  CA        23.8050   32.7060   24.7150 C.3   244  LEU244      0.1561
    194  C         23.3940   33.4690   25.9740 C.2   244  LEU244      0.2260
    195  O         22.9150   32.8650   26.9400 O.2   244  LEU244     -0.2867
    196  CB        22.5610   32.1250   24.0460 C.3   244  LEU244      0.0270
    197  CG        21.3930   33.0960   23.8680 C.3   244  LEU244      0.0019
    198  CD1       21.7720   34.1800   22.8780 C.3   244  LEU244      0.0001
    199  CD2       20.1540   32.3450   23.4120 C.3   244  LEU244      0.0001
    200  N         27.3780   34.3870   22.6730 N.3   313  LEU313     -0.1245
    201  CA        26.4530   34.9120   21.6800 C.3   313  LEU313      0.1561
    202  C         25.5560   35.9030   22.4070 C.2   313  LEU313      0.2260
    203  O         24.8710   35.5260   23.3680 O.2   313  LEU313     -0.2867
    204  CB        25.6390   33.7730   21.0750 C.3   313  LEU313      0.0270
    205  CG        24.5690   34.1330   20.0530 C.3   313  LEU313      0.0019
    206  CD1       25.1950   34.7140   18.7870 C.3   313  LEU313      0.0001
    207  CD2       23.7990   32.8690   19.7240 C.3   313  LEU313      0.0001
@<TRIPOS>BOND
     1   104   103    2
     2    48    47    2
     3    35    33    1
     4    47    46    1
     5    33    32    1
     6   103   102    1
     7    45    46    1
     8   107   109   ar
     9   107   106   ar
    10    95    94    2
    11   102   105    1
    12   102   101    1
    13   109   111   ar
    14    46    49    1
    15   105   106    1
    16    32    34    1
    17    32    29    1
    18   106   108   ar
    19    52    53    1
    20    55    54    2
    21    94   101   am
    22    94    93    1
    23   111   112    1
    24   111   110   ar
    25    49    51    1
    26    49    50    1
    27    23    22    2
    28    29    30    1
    29    29    28    1
    30    54    53    1
    31    63    62    2
    32    39    38    2
    33    53    56    1
    34   108   110   ar
    35    38    37    1
    36    36    30   am
    37    36    37    1
    38    93    96    1
    39    93    92    1
    40    60    61    1
    41    30    31    2
    42    22    28   am
    43    22    21    1
    44    70    69    2
    45    96    97    1
    46    62    61    1
    47    62    67   am
    48    56    57    1
    49    66    64    1
    50   116   115    2
    51    37    40    1
    52    99    98   ar
    53   127   126    2
    54    69    68    1
    55    69    74   am
    56    68    67    1
    57    68    71    1
    58    61    64    1
    59    18    17    1
    60    20    21    1
    61    14    13    1
    62    14    15    2
    63    13    12    1
    64    13    16    1
    65    21    24    1
    66    97    98    1
    67   126   125    1
    68   115   114    1
    69   115   124   am
    70    74    75    1
    71    64    65    1
    72    98   100   ar
    73   114   117    1
    74   114   113    1
    75    57    59   am
    76    57    58    2
    77    40    41    1
    78    75    76    1
    79    71    73    1
    80    71    72    1
    81   125   124    1
    82   125   128    1
    83    16    17    1
    84    17    19    1
    85   117   118    1
    86    24    25    1
    87    25    26    1
    88    41    42    1
    89    76    77    2
    90    76    78   am
    91   128   129    1
    92    42    43    1
    93   130   129   ar
    94   130   132   ar
    95   118   119    1
    96    78    79    1
    97    27    26    1
    98    44    43    1
    99   129   131   ar
   100   132   134   ar
   101   119   120    1
   102     9     7   ar
   103     9    11   ar
   104   173   174   ar
   105   173   171   ar
   106     3     2    1
   107     3     4    2
   108     7     6   ar
   109    79    80    1
   110    79    82    1
   111   174   172   ar
   112    80    81    2
   113     2     1    1
   114     2     5    1
   115   131   133   ar
   116   134   135    1
   117   134   133   ar
   118   136   137    1
   119   171   169   ar
   120    11    10   ar
   121   120   121    2
   122   123   121    1
   123     6     5    1
   124     6     8   ar
   125    82    83    1
   126   140   137    1
   127   172   170   ar
   128   206   205    1
   129   121   122    1
   130   137   138    1
   131   163   162    2
   132    10     8   ar
   133   169   170   ar
   134   169   168    1
   135   207   205    1
   136   138   141   am
   137   138   139    2
   138   141   142    1
   139    83    84   ar
   140    83    85   ar
   141   161   162    1
   142   161   160    1
   143   205   204    1
   144    84    86   ar
   145   168   165    1
   146   164   165    1
   147   142   143    1
   148    85    88   ar
   149    85    87   ar
   150   204   201    1
   151   165   166    1
   152    88    90   ar
   153    86    87   ar
   154   201   202    1
   155   201   200    1
   156    87    89   ar
   157   143   144    2
   158   143   145   am
   159   167   166    2
   160   159   158    1
   161   166   175   am
   162   202   203    2
   163    90    91   ar
   164   145   146    1
   165   198   197    1
   166    89    91   ar
   167   199   197    1
   168   152   151    2
   169   175   176    1
   170   157   156    2
   171   158   155    1
   172   191   189   ar
   173   191   190   ar
   174   197   196    1
   175   154   155    1
   176   154   147   am
   177   196   193    1
   178   189   187   ar
   179   146   147    1
   180   146   149    1
   181   156   155    1
   182   150   151    1
   183   150   149    1
   184   151   153   am
   185   176   177    1
   186   176   179    1
   187   190   188   ar
   188   193   192    1
   189   193   194    1
   190   147   148    2
   191   178   177    2
   192   187   186   ar
   193   177   181   am
   194   179   180    1
   195   188   186   ar
   196   194   195    2
   197   186   185    1
   198   181   182    1
   199   182   185    1
   200   182   183    1
   201   183   184    2
