@<TRIPOS>MOLECULE
tmp/5wapA00.pdb
 178 170 0 0 0
SMALL
GASTEIGER

@<TRIPOS>ATOM
      1  N        -63.5380  360.3780  681.9660 N.3    24  ALA24      -0.1231
      2  CA       -62.5910  360.5050  683.0700 C.3    24  ALA24       0.1694
      3  C        -61.2810  359.7910  682.7620 C.2    24  ALA24       0.2591
      4  O        -60.1990  360.3260  683.0300 O.2    24  ALA24      -0.2718
      5  CB       -63.2080  359.9610  684.3580 C.3    24  ALA24       0.0304
      6  N        -61.3590  358.5850  682.1950 N.am   25  MET25      -0.1979
      7  CA       -60.1510  357.8250  681.8910 C.3    25  MET25       0.1605
      8  C        -59.2930  358.5440  680.8600 C.2    25  MET25       0.2287
      9  O        -58.0830  358.7110  681.0490 O.2    25  MET25      -0.2864
     10  CB       -60.5190  356.4260  681.3980 C.3    25  MET25       0.0413
     11  CG       -60.8730  355.4630  682.5100 C.3    25  MET25       0.0598
     12  SD       -61.2390  353.7970  681.9290 S.3    25  MET25      -0.1393
     13  CE       -59.5840  353.1370  681.7280 C.3    25  MET25       0.0692
     14  N        -57.4600  361.5490  682.0150 N.3    28  TYR28      -0.1241
     15  CA       -56.2090  361.1850  682.6650 C.3    28  TYR28       0.1605
     16  C        -55.3250  360.3200  681.7710 C.2    28  TYR28       0.2264
     17  O        -54.4170  359.6470  682.2690 O.2    28  TYR28      -0.2867
     18  CB       -56.4920  360.4810  683.9920 C.3    28  TYR28       0.0534
     19  CG       -56.9760  361.4250  685.0690 C.ar   28  TYR28      -0.0201
     20  CD1      -56.0770  362.0870  685.8940 C.ar   28  TYR28      -0.0009
     21  CD2      -58.3330  361.6660  685.2510 C.ar   28  TYR28      -0.0009
     22  CE1      -56.5130  362.9560  686.8760 C.ar   28  TYR28       0.0417
     23  CE2      -58.7790  362.5350  686.2290 C.ar   28  TYR28       0.0417
     24  CZ       -57.8630  363.1770  687.0390 C.ar   28  TYR28       0.1957
     25  OH       -58.2990  364.0420  688.0160 O.3    28  TYR28      -0.2866
     26  N        -55.7920  357.5060  679.7590 N.3    30  GLU30      -0.1245
     27  CA       -55.8430  356.0520  679.7760 C.3    30  GLU30       0.1567
     28  C        -57.0270  355.5670  678.9520 C.2    30  GLU30       0.2260
     29  O        -58.0720  356.2200  678.8840 O.2    30  GLU30      -0.2867
     30  CB       -55.9120  355.5080  681.2090 C.3    30  GLU30       0.0388
     31  CG       -54.5340  355.1640  681.7710 C.3    30  GLU30       0.1160
     32  CD       -54.5340  354.9450  683.2690 C.2    30  GLU30       0.3649
     33  OE1      -54.0130  353.9040  683.7190 O.co2  30  GLU30      -0.2457
     34  OE2      -55.0510  355.8160  683.9980 O.co2  30  GLU30      -0.2457
     35  N        -59.7100  348.2450  684.8150 N.3    38  LYS38      -0.1245
     36  CA       -59.8440  349.5540  685.4450 C.3    38  LYS38       0.1561
     37  C        -61.1210  350.2490  684.9910 C.2    38  LYS38       0.2260
     38  O        -61.7930  350.9120  685.7910 O.2    38  LYS38      -0.2867
     39  CB       -58.6230  350.4130  685.1250 C.3    38  LYS38       0.0271
     40  CG       -58.5930  351.7450  685.8460 C.3    38  LYS38       0.0035
     41  CD       -57.1790  352.1010  686.2450 C.3    38  LYS38       0.0206
     42  CE       -56.3070  352.2610  685.0170 C.3    38  LYS38       0.1093
     43  NZ       -54.8610  352.1540  685.3490 N.3    38  LYS38      -0.1314
     44  N        -63.6650  349.1600  687.1610 N.3    41  ALA41      -0.1231
     45  CA       -63.5190  349.6790  688.5180 C.3    41  ALA41       0.1694
     46  C        -64.0560  351.0990  688.6320 C.2    41  ALA41       0.2591
     47  O        -64.6770  351.4530  689.6420 O.2    41  ALA41      -0.2718
     48  CB       -62.0520  349.6230  688.9460 C.3    41  ALA41       0.0304
     49  N        -63.8300  351.9280  687.6110 N.am   42  ILE42      -0.1980
     50  CA       -64.3110  353.3060  687.6590 C.3    42  ILE42       0.1595
     51  C        -65.8310  353.3420  687.5710 C.2    42  ILE42       0.2287
     52  O        -66.4930  354.0630  688.3260 O.2    42  ILE42      -0.2864
     53  CB       -63.6560  354.1460  686.5500 C.3    42  ILE42       0.0276
     54  CG1      -62.1740  354.3490  686.8560 C.3    42  ILE42       0.0022
     55  CG2      -64.3450  355.4930  686.4230 C.3    42  ILE42       0.0022
     56  CD1      -61.2720  354.0570  685.6950 C.3    42  ILE42       0.0001
     57  N        -67.0810  352.1730  690.9870 N.3    45  HIS45      -0.1241
     58  CA       -66.9140  353.2540  691.9520 C.3    45  HIS45       0.1621
     59  C        -67.8680  354.4040  691.6620 C.2    45  HIS45       0.2264
     60  O        -68.4220  355.0100  692.5870 O.2    45  HIS45      -0.2867
     61  CB       -65.4640  353.7360  691.9360 C.3    45  HIS45       0.0745
     62  CG       -65.2210  354.9770  692.7390 C.ar   45  HIS45       0.0817
     63  ND1      -64.7760  354.9440  694.0430 N.ar   45  HIS45      -0.2268
     64  CD2      -65.3500  356.2870  692.4180 C.ar   45  HIS45       0.1154
     65  CE1      -64.6480  356.1800  694.4940 C.ar   45  HIS45       0.1986
     66  NE2      -64.9900  357.0130  693.5270 N.ar   45  HIS45      -0.2212
     67  N        -66.9900  363.3090  692.2950 N.3    65  GLU65      -0.1245
     68  CA       -66.5270  362.3360  691.3170 C.3    65  GLU65       0.1567
     69  C        -67.4400  362.3430  690.0970 C.2    65  GLU65       0.2260
     70  O        -68.6420  362.6080  690.1910 O.2    65  GLU65      -0.2867
     71  CB       -66.4790  360.9400  691.9430 C.3    65  GLU65       0.0388
     72  CG       -65.9480  359.8350  691.0290 C.3    65  GLU65       0.1160
     73  CD       -64.4450  359.9120  690.8290 C.2    65  GLU65       0.3649
     74  OE1      -63.7030  359.1960  691.5370 O.co2  65  GLU65      -0.2457
     75  OE2      -64.0050  360.6830  689.9500 O.co2  65  GLU65      -0.2457
     76  N        -56.1850  366.0320  697.9850 N.3    90  PHE90      -0.1227
     77  CA       -56.7210  365.1530  696.9560 C.3    90  PHE90       0.1736
     78  C        -58.1700  365.5220  696.6680 C.2    90  PHE90       0.2595
     79  O        -58.8710  366.0740  697.5190 O.2    90  PHE90      -0.2718
     80  CB       -56.6530  363.6890  697.3870 C.3    90  PHE90       0.0547
     81  CG       -55.3370  363.0200  697.1060 C.ar   90  PHE90      -0.0202
     82  CD1      -54.1390  363.6150  697.4690 C.ar   90  PHE90      -0.0042
     83  CD2      -55.3090  361.7770  696.4990 C.ar   90  PHE90      -0.0042
     84  CE1      -52.9360  362.9840  697.2160 C.ar   90  PHE90      -0.0003
     85  CE2      -54.1170  361.1450  696.2460 C.ar   90  PHE90      -0.0003
     86  CZ       -52.9290  361.7440  696.6020 C.ar   90  PHE90      -0.0000
     87  N        -58.6130  365.2130  695.4620 N.am   91  LEU91      -0.1966
     88  CA       -60.0150  365.3830  695.1160 C.3    91  LEU91       0.1713
     89  C        -60.8470  364.3340  695.8410 C.2    91  LEU91       0.2458
     90  O        -60.6080  363.1330  695.6590 O.2    91  LEU91      -0.2730
     91  CB       -60.2160  365.2660  693.6080 C.3    91  LEU91       0.0310
     92  CG       -60.4770  366.5520  692.8150 C.3    91  LEU91       0.0022
     93  CD1      -60.8350  366.2270  691.3730 C.3    91  LEU91       0.0001
     94  CD2      -61.5720  367.3890  693.4590 C.3    91  LEU91       0.0001
     95  N        -61.8050  364.7260  696.6700 N.am   92  PRO92      -0.2716
     96  CA       -62.6960  363.7520  697.3030 C.3    92  PRO92       0.1536
     97  C        -63.8120  363.3670  696.3380 C.2    92  PRO92       0.2598
     98  O        -63.8900  363.8520  695.2090 O.2    92  PRO92      -0.2715
     99  CB       -63.2260  364.5130  698.5160 C.3    92  PRO92       0.0310
    100  CG       -63.2520  365.9340  698.0600 C.3    92  PRO92       0.0237
    101  CD       -62.1230  366.1080  697.0700 C.3    92  PRO92       0.0939
    102  N        -64.6840  362.4760  696.8030 N.am   93  ASP93      -0.1972
    103  CA       -65.7880  361.9890  695.9860 C.3    93  ASP93       0.1709
    104  C        -67.0890  362.7330  696.2420 C.2    93  ASP93       0.2293
    105  O        -67.8330  363.0120  695.2960 O.2    93  ASP93      -0.2864
    106  CB       -66.0050  360.4920  696.2270 C.3    93  ASP93       0.1436
    107  CG       -64.8740  359.6450  695.6810 C.2    93  ASP93       0.3671
    108  OD1      -64.3660  359.9650  694.5860 O.co2  93  ASP93      -0.2456
    109  OD2      -64.4930  358.6590  696.3460 O.co2  93  ASP93      -0.2456
    110  N        -64.5080  360.3320  700.9360 N.3   104  GLU104     -0.1231
    111  CA       -63.7800  359.5520  699.9390 C.3   104  GLU104      0.1699
    112  C        -64.3480  358.1370  699.9470 C.2   104  GLU104      0.2592
    113  O        -64.2410  357.4260  700.9540 O.2   104  GLU104     -0.2718
    114  CB       -62.2770  359.5460  700.2240 C.3   104  GLU104      0.0402
    115  CG       -61.5230  358.4560  699.4730 C.3   104  GLU104      0.1161
    116  CD       -61.4730  358.7220  697.9790 C.2   104  GLU104      0.3649
    117  OE1      -61.4620  357.7490  697.1970 O.co2 104  GLU104     -0.2457
    118  OE2      -61.4590  359.9060  697.5840 O.co2 104  GLU104     -0.2457
    119  N        -64.9630  357.7390  698.8400 N.am  105  ILE105     -0.1966
    120  CA       -65.5450  356.4110  698.7060 C.3   105  ILE105      0.1727
    121  C        -64.4760  355.4600  698.1930 C.2   105  ILE105      0.2617
    122  O        -63.6600  355.8230  697.3370 O.2   105  ILE105     -0.2715
    123  CB       -66.7670  356.4330  697.7670 C.3   105  ILE105      0.0290
    124  CG1      -67.8450  357.3780  698.3040 C.3   105  ILE105      0.0022
    125  CG2      -67.3270  355.0250  697.5720 C.3   105  ILE105      0.0023
    126  CD1      -68.5860  356.8210  699.5010 C.3   105  ILE105      0.0001
    127  N        -64.4600  354.2530  698.7330 N.am  106  GLY106     -0.1940
    128  CA       -63.5670  353.2140  698.2500 C.3   106  GLY106      0.2014
    129  C        -64.3270  351.9460  697.9330 C.2   106  GLY106      0.2638
    130  O        -65.2620  351.5750  698.6430 O.2   106  GLY106     -0.2714
    131  N        -63.9220  351.2920  696.8490 N.am  107  VAL107     -0.1977
    132  CA       -64.4690  350.0000  696.4560 C.3   107  VAL107      0.1596
    133  C        -63.3000  349.0660  696.1850 C.2   107  VAL107      0.2287
    134  O        -62.4330  349.3700  695.3560 O.2   107  VAL107     -0.2864
    135  CB       -65.3850  350.1020  695.2210 C.3   107  VAL107      0.0276
    136  CG1      -65.9340  348.7310  694.8570 C.3   107  VAL107      0.0022
    137  CG2      -66.5230  351.0820  695.4760 C.3   107  VAL107      0.0022
    138  N        -61.5320  344.9240  696.0640 N.3   109  ARG109     -0.1245
    139  CA       -61.6290  343.4830  695.8830 C.3   109  ARG109      0.1563
    140  C        -60.7300  342.7220  696.8440 C.2   109  ARG109      0.2260
    141  O        -60.7090  341.4860  696.8120 O.2   109  ARG109     -0.2867
    142  CB       -61.2880  343.1020  694.4360 C.3   109  ARG109      0.0307
    143  CG       -62.4510  343.5030  693.4540 C.3   109  ARG109      0.0489
    144  CD       -62.3140  344.9810  693.0470 C.3   109  ARG109      0.2205
    145  NE       -61.3130  345.0710  691.9440 N.pl3 109  ARG109     -0.0865
    146  CZ       -60.7170  346.2210  691.5610 C.cat 109  ARG109      0.5346
    147  NH1      -60.9110  347.3880  692.2490 N.pl3 109  ARG109      0.1354
    148  NH2      -59.9190  346.1660  690.4850 N.pl3 109  ARG109      0.1354
    149  N        -57.0240  348.2680  702.6860 N.3   115  TYR115     -0.1241
    150  CA       -57.2960  349.3430  701.7350 C.3   115  TYR115      0.1605
    151  C        -57.5710  350.6590  702.4500 C.2   115  TYR115      0.2264
    152  O        -57.1330  351.7220  701.9930 O.2   115  TYR115     -0.2867
    153  CB       -58.4700  348.9810  700.8260 C.3   115  TYR115      0.0534
    154  CG       -58.7600  350.0430  699.7800 C.ar  115  TYR115     -0.0201
    155  CD1      -58.0030  350.1280  698.6170 C.ar  115  TYR115     -0.0009
    156  CD2      -59.7790  350.9680  699.9640 C.ar  115  TYR115     -0.0009
    157  CE1      -58.2640  351.1010  697.6600 C.ar  115  TYR115      0.0417
    158  CE2      -60.0460  351.9430  699.0140 C.ar  115  TYR115      0.0417
    159  CZ       -59.2850  352.0050  697.8660 C.ar  115  TYR115      0.1957
    160  OH       -59.5450  352.9730  696.9210 O.3   115  TYR115     -0.2866
    161  N        -55.6970  354.1770  701.9550 N.3   119  LYS119     -0.1245
    162  CA       -56.4070  355.4230  701.6870 C.3   119  LYS119      0.1561
    163  C        -56.1880  356.4490  702.7920 C.2   119  LYS119      0.2260
    164  O        -56.2410  357.6560  702.5330 O.2   119  LYS119     -0.2867
    165  CB       -57.9010  355.1500  701.5070 C.3   119  LYS119      0.0271
    166  CG       -58.2680  354.5300  700.1700 C.3   119  LYS119      0.0035
    167  CD       -58.7490  355.5890  699.1630 C.3   119  LYS119      0.0206
    168  CE       -57.5770  356.2960  698.4460 C.3   119  LYS119      0.1093
    169  NZ       -57.9510  357.5420  697.6900 N.3   119  LYS119     -0.1314
    170  N        -52.4870  357.8230  702.3670 N.3   122  LYS122     -0.1245
    171  CA       -52.4000  358.6690  701.1810 C.3   122  LYS122      0.1561
    172  C        -53.1100  359.9980  701.3990 C.2   122  LYS122      0.2260
    173  O        -52.5940  361.0540  701.0130 O.2   122  LYS122     -0.2867
    174  CB       -52.9840  357.9410  699.9710 C.3   122  LYS122      0.0271
    175  CG       -52.6610  358.5290  698.6250 C.3   122  LYS122      0.0035
    176  CD       -53.1400  357.5750  697.5270 C.3   122  LYS122      0.0206
    177  CE       -52.6340  356.1500  697.7890 C.3   122  LYS122      0.1093
    178  NZ       -53.0190  355.1540  696.7490 N.3   122  LYS122     -0.1314
@<TRIPOS>BOND
     1    29    28    2
     2    28    27    1
     3    26    27    1
     4    27    30    1
     5     8     9    2
     6     8     7    1
     7    30    31    1
     8    10     7    1
     9    10    11    1
    10    13    12    1
    11    31    32    1
    12    16    17    2
    13    16    15    1
    14     7     6    1
    15    12    11    1
    16     1     2    1
    17    14    15    1
    18     6     3   am
    19    15    18    1
    20     3     4    2
    21     3     2    1
    22     2     5    1
    23    32    33   ar
    24    32    34   ar
    25    18    19    1
    26    35    36    1
    27    37    36    1
    28    37    38    2
    29    42    43    1
    30    42    41    1
    31    19    21   ar
    32    19    20   ar
    33    39    36    1
    34    39    40    1
    35    21    23   ar
    36    56    54    1
    37    40    41    1
    38    20    22   ar
    39    23    24   ar
    40    55    53    1
    41    53    54    1
    42    53    50    1
    43    22    24   ar
    44    24    25    1
    45    44    45    1
    46    51    50    1
    47    51    52    2
    48    49    50    1
    49    49    46   am
    50    45    46    1
    51    45    48    1
    52    46    47    2
    53    75    73   ar
    54    69    70    2
    55    69    68    1
    56   148   146    1
    57    73    72    1
    58    73    74   ar
    59    57    58    1
    60    72    71    1
    61    68    71    1
    62    68    67    1
    63    93    92    1
    64   146   145    2
    65   146   147    1
    66    59    58    1
    67    59    60    2
    68    61    58    1
    69    61    62    1
    70   145   144    1
    71    64    62   ar
    72    64    66   ar
    73    62    63   ar
    74    92    94    1
    75    92    91    1
    76   144   143    1
    77   143   142    1
    78    66    65   ar
    79    91    88    1
    80    63    65   ar
    81   142   139    1
    82   108   107   ar
    83   136   135    1
    84    88    87    1
    85    88    89    1
    86    98    97    2
    87   135   137    1
    88   135   132    1
    89   105   104    2
    90   134   133    2
    91    87    78   am
    92    90    89    2
    93   107   106    1
    94   107   109   ar
    95    89    95   am
    96   139   138    1
    97   139   140    1
    98   103   106    1
    99   103   104    1
   100   103   102    1
   101   133   132    1
   102    85    83   ar
   103    85    86   ar
   104    97   102   am
   105    97    96    1
   106   132   131    1
   107    83    81   ar
   108    86    84   ar
   109    78    77    1
   110    78    79    2
   111    95   101    1
   112    95    96    1
   113   178   177    1
   114   141   140    2
   115   131   129   am
   116   160   159    1
   117    77    80    1
   118    77    76    1
   119   101   100    1
   120    81    80    1
   121    81    82   ar
   122   117   116   ar
   123    84    82   ar
   124    96    99    1
   125   122   121    2
   126   176   177    1
   127   176   175    1
   128   125   123    1
   129   118   116   ar
   130   157   159   ar
   131   157   155   ar
   132   169   168    1
   133   123   124    1
   134   123   120    1
   135   159   158   ar
   136   129   128    1
   137   129   130    2
   138   116   115    1
   139   100    99    1
   140   121   120    1
   141   121   127   am
   142   128   127    1
   143   124   126    1
   144   168   167    1
   145   155   154   ar
   146   175   174    1
   147   120   119    1
   148   119   112   am
   149   158   156   ar
   150   167   166    1
   151   115   114    1
   152   154   156   ar
   153   154   153    1
   154   111   112    1
   155   111   114    1
   156   111   110    1
   157   112   113    2
   158   174   171    1
   159   166   165    1
   160   153   150    1
   161   173   172    2
   162   171   172    1
   163   171   170    1
   164   165   162    1
   165   162   161    1
   166   162   163    1
   167   150   151    1
   168   150   149    1
   169   152   151    2
   170   164   163    2
