@<TRIPOS>MOLECULE
tmp/5wauB02.pdb
 87 85 0 0 0
SMALL
GASTEIGER

@<TRIPOS>ATOM
      1  N          7.9240   44.7280  -10.9420 N.3     1  ALA1       -0.1231
      2  CA         6.8580   45.5000  -11.5130 C.3     1  ALA1        0.1694
      3  C          7.2700   46.9390  -11.6890 C.2     1  ALA1        0.2592
      4  O          7.9890   47.5250  -10.8470 O.2     1  ALA1       -0.2718
      5  CB         5.6050   45.4420  -10.6540 C.3     1  ALA1        0.0304
      6  N          6.7530   47.4960  -12.7840 N.am    2  TYR2       -0.1963
      7  CA         6.9080   48.8970  -13.1190 C.3     2  TYR2        0.1756
      8  C          5.5310   49.5450  -13.0610 C.2     2  TYR2        0.2461
      9  O          4.4860   48.8770  -13.1730 O.2     2  TYR2       -0.2730
     10  CB         7.5390   49.0970  -14.5090 C.3     2  TYR2        0.0574
     11  CG         6.9590   48.1970  -15.5680 C.ar    2  TYR2       -0.0198
     12  CD1        5.8260   48.5670  -16.3030 C.ar    2  TYR2       -0.0009
     13  CD2        7.5170   46.9490  -15.8070 C.ar    2  TYR2       -0.0009
     14  CE1        5.2830   47.7160  -17.2600 C.ar    2  TYR2        0.0417
     15  CE2        6.9830   46.1030  -16.7550 C.ar    2  TYR2        0.0417
     16  CZ         5.8680   46.4860  -17.4770 C.ar    2  TYR2        0.1957
     17  OH         5.3640   45.6150  -18.4160 O.3     2  TYR2       -0.2866
     18  N          5.5200   50.8610  -12.8740 N.am    3  PRO3       -0.2727
     19  CA         4.2800   51.5730  -12.7220 C.3     3  PRO3        0.1402
     20  C          3.2910   51.4550  -13.9050 C.2     3  PRO3        0.2269
     21  O          3.6960   51.4800  -15.0600 O.2     3  PRO3       -0.2865
     22  CB         4.7570   52.9850  -12.5710 C.3     3  PRO3        0.0296
     23  CG         6.1170   52.9230  -12.0300 C.3     3  PRO3        0.0237
     24  CD         6.6950   51.7280  -12.6520 C.3     3  PRO3        0.0939
     25  N          5.2910   40.4340  -15.4000 N.3     9  GLN9       -0.1245
     26  CA         6.6890   40.8920  -15.4920 C.3     9  GLN9        0.1566
     27  C          7.3740   40.1420  -16.6320 C.2     9  GLN9        0.2260
     28  O          7.0350   38.9810  -16.8860 O.2     9  GLN9       -0.2867
     29  CB         7.4070   40.6380  -14.1850 C.3     9  GLN9        0.0367
     30  CG         6.8530   41.4740  -13.0460 C.3     9  GLN9        0.0905
     31  CD         7.5180   41.1970  -11.7110 C.2     9  GLN9        0.2608
     32  OE1        8.7110   40.8470  -11.6470 O.2     9  GLN9       -0.2717
     33  NE2        6.7550   41.3890  -10.6220 N.am    9  GLN9       -0.0878
     34  N         14.4640   50.7980   -3.9120 N.3   132  LEU132     -0.1245
     35  CA        13.0250   50.5140   -3.9710 C.3   132  LEU132      0.1561
     36  C         12.4130   50.2540   -2.6360 C.2   132  LEU132      0.2260
     37  O         12.7850   49.3020   -1.9740 O.2   132  LEU132     -0.2867
     38  CB        12.7970   49.3000   -4.8410 C.3   132  LEU132      0.0270
     39  CG        13.2110   49.5480   -6.2840 C.3   132  LEU132      0.0019
     40  CD1       13.5050   48.2290   -6.9720 C.3   132  LEU132      0.0001
     41  CD2       12.1440   50.3660   -6.9850 C.3   132  LEU132      0.0001
     42  N         11.2930   46.5630   -1.0980 N.3   135  LEU135     -0.1245
     43  CA        11.8260   45.5130   -1.9600 C.3   135  LEU135      0.1561
     44  C         13.2970   45.1510   -1.7410 C.2   135  LEU135      0.2260
     45  O         13.6920   43.9810   -1.9540 O.2   135  LEU135     -0.2867
     46  CB        11.5930   45.8850   -3.4360 C.3   135  LEU135      0.0270
     47  CG        10.1500   45.7500   -3.9480 C.3   135  LEU135      0.0019
     48  CD1       10.0590   46.2760   -5.3710 C.3   135  LEU135      0.0001
     49  CD2        9.6290   44.3130   -3.9000 C.3   135  LEU135      0.0001
     50  N          9.1830   36.9730  -11.9020 N.3   166  SER166     -0.1217
     51  CA         9.8210   37.0080  -13.2220 C.3   166  SER166      0.1889
     52  C         10.5090   35.6980  -13.6090 C.2   166  SER166      0.2288
     53  O         10.7420   35.4420  -14.8000 O.2   166  SER166     -0.2866
     54  CB        10.7780   38.1990  -13.3370 C.3   166  SER166      0.2089
     55  OG        11.8010   38.1230  -12.3790 O.3   166  SER166     -0.2183
     56  N         19.0500   41.8210  -11.2220 N.3   190  LEU190     -0.1231
     57  CA        18.4000   41.7600   -9.9130 C.3   190  LEU190      0.1693
     58  C         16.9180   41.4240  -10.0930 C.2   190  LEU190      0.2592
     59  O         16.2110   42.0960  -10.8440 O.2   190  LEU190     -0.2718
     60  CB        18.5310   43.0760   -9.1690 C.3   190  LEU190      0.0284
     61  CG        19.9540   43.5080   -8.8270 C.3   190  LEU190      0.0019
     62  CD1       19.8670   44.8300   -8.1050 C.3   190  LEU190      0.0001
     63  CD2       20.6670   42.4610   -7.9750 C.3   190  LEU190      0.0001
     64  N         16.4680   40.3750   -9.4150 N.am  191  TYR191     -0.1962
     65  CA        15.0920   39.8800   -9.5830 C.3   191  TYR191      0.1771
     66  C         14.4540   39.7300   -8.2200 C.2   191  TYR191      0.2619
     67  O         15.0130   39.0860   -7.3260 O.2   191  TYR191     -0.2715
     68  CB        15.0910   38.5900  -10.3800 C.3   191  TYR191      0.0574
     69  CG        15.7530   38.8030  -11.7080 C.ar  191  TYR191     -0.0198
     70  CD1       15.0600   39.3920  -12.7660 C.ar  191  TYR191     -0.0009
     71  CD2       17.1120   38.4900  -11.8960 C.ar  191  TYR191     -0.0009
     72  CE1       15.6750   39.6410  -13.9850 C.ar  191  TYR191      0.0417
     73  CE2       17.7470   38.7290  -13.1170 C.ar  191  TYR191      0.0417
     74  CZ        17.0300   39.3100  -14.1570 C.ar  191  TYR191      0.1957
     75  OH        17.6290   39.5420  -15.3770 O.3   191  TYR191     -0.2866
     76  N         13.2840   40.3580   -8.0840 N.am  192  TYR192     -0.1974
     77  CA        12.6540   40.6240   -6.8020 C.3   192  TYR192      0.1639
     78  C         11.3870   39.7590   -6.6340 C.2   192  TYR192      0.2290
     79  O         10.7390   39.3520   -7.6170 O.2   192  TYR192     -0.2864
     80  CB        12.2740   42.0990   -6.6740 C.3   192  TYR192      0.0560
     81  CG        13.4550   43.0900   -6.5800 C.ar  192  TYR192     -0.0198
     82  CD1       14.1710   43.4850   -7.7110 C.ar  192  TYR192     -0.0009
     83  CD2       13.8270   43.6390   -5.3520 C.ar  192  TYR192     -0.0009
     84  CE1       15.2400   44.3900   -7.6110 C.ar  192  TYR192      0.0417
     85  CE2       14.8880   44.5360   -5.2440 C.ar  192  TYR192      0.0417
     86  CZ        15.5890   44.9110   -6.3790 C.ar  192  TYR192      0.1957
     87  OH        16.6330   45.8150   -6.2580 O.3   192  TYR192     -0.2866
@<TRIPOS>BOND
     1    17    16    1
     2    16    14   ar
     3    16    15   ar
     4    14    12   ar
     5    28    27    2
     6    15    13   ar
     7    27    26    1
     8    12    11   ar
     9    13    11   ar
    10    11    10    1
    11    26    25    1
    12    26    29    1
    13    75    74    1
    14    21    20    2
    15    53    52    2
    16    10     7    1
    17    29    30    1
    18    74    72   ar
    19    74    73   ar
    20    72    70   ar
    21    20    19    1
    22    52    51    1
    23    54    51    1
    24    54    55    1
    25    51    50    1
    26     9     8    2
    27     7     8    1
    28     7     6    1
    29    73    71   ar
    30     8    18   am
    31    30    31    1
    32    18    19    1
    33    18    24    1
    34     6     3   am
    35    70    69   ar
    36    19    22    1
    37    24    23    1
    38    22    23    1
    39    71    69   ar
    40    31    32    2
    41    31    33   am
    42    69    68    1
    43     3     2    1
    44     3     4    2
    45     2     1    1
    46     2     5    1
    47    56    57    1
    48    59    58    2
    49    68    65    1
    50    58    57    1
    51    58    64   am
    52    57    60    1
    53    65    64    1
    54    65    66    1
    55    60    61    1
    56    61    62    1
    57    61    63    1
    58    66    76   am
    59    66    67    2
    60    76    77    1
    61    82    84   ar
    62    82    81   ar
    63    79    78    2
    64    84    86   ar
    65    41    39    1
    66    40    39    1
    67    77    80    1
    68    77    78    1
    69    80    81    1
    70    81    83   ar
    71    86    87    1
    72    86    85   ar
    73    39    38    1
    74    48    47    1
    75    83    85   ar
    76    38    35    1
    77    35    34    1
    78    35    36    1
    79    47    49    1
    80    47    46    1
    81    46    43    1
    82    36    37    2
    83    43    44    1
    84    43    42    1
    85    45    44    2
