@<TRIPOS>MOLECULE
tmp/5wb2A06.pdb
 110 108 0 0 0
SMALL
GASTEIGER

@<TRIPOS>ATOM
      1  N         29.9870   25.4360   74.6770 N.3    72  TRP72      -0.1241
      2  CA        29.5440   24.4350   75.6420 C.3    72  TRP72       0.1605
      3  C         30.7180   23.6540   76.2140 C.2    72  TRP72       0.2264
      4  O         30.6530   23.1860   77.3560 O.2    72  TRP72      -0.2867
      5  CB        28.5320   23.4920   74.9930 C.3    72  TRP72       0.0550
      6  CG        27.2090   24.1420   74.7100 C.ar   72  TRP72       0.0003
      7  CD1       26.6270   24.3140   73.4880 C.ar   72  TRP72       0.0946
      8  CD2       26.3060   24.7100   75.6660 C.ar   72  TRP72       0.0152
      9  NE1       25.4180   24.9520   73.6230 N.ar   72  TRP72      -0.2442
     10  CE2       25.1970   25.2050   74.9510 C.ar   72  TRP72       0.0810
     11  CE3       26.3250   24.8470   77.0570 C.ar   72  TRP72       0.0012
     12  CZ2       24.1200   25.8260   75.5800 C.ar   72  TRP72       0.0191
     13  CZ3       25.2540   25.4640   77.6800 C.ar   72  TRP72       0.0001
     14  CH2       24.1670   25.9450   76.9420 C.ar   72  TRP72       0.0015
     15  N         31.9800   25.4330   78.9580 N.3    75  TYR75      -0.1241
     16  CA        31.0250   25.3160   80.0540 C.3    75  TYR75       0.1605
     17  C         31.2490   24.0350   80.8430 C.2    75  TYR75       0.2264
     18  O         31.1310   24.0320   82.0740 O.2    75  TYR75      -0.2867
     19  CB        29.6010   25.3500   79.5020 C.3    75  TYR75       0.0534
     20  CG        28.5140   25.1220   80.5310 C.ar   75  TYR75      -0.0201
     21  CD1       28.0980   26.1340   81.3800 C.ar   75  TYR75      -0.0009
     22  CD2       27.8980   23.8800   80.6420 C.ar   75  TYR75      -0.0009
     23  CE1       27.1000   25.9160   82.3140 C.ar   75  TYR75       0.0417
     24  CE2       26.9040   23.6530   81.5690 C.ar   75  TYR75       0.0417
     25  CZ        26.5090   24.6720   82.4030 C.ar   75  TYR75       0.1957
     26  OH        25.5160   24.4420   83.3270 O.3    75  TYR75      -0.2866
     27  N         23.6550   31.8870   78.5390 N.3    87  CYS87      -0.1235
     28  CA        23.1480   30.5190   78.5090 C.3    87  CYS87       0.1677
     29  C         21.8440   30.4680   77.7300 C.2    87  CYS87       0.2270
     30  O         21.6900   29.6740   76.7950 O.2    87  CYS87      -0.2867
     31  CB        22.9400   29.9430   79.9020 C.3    87  CYS87       0.0956
     32  SG        22.1760   28.3310   79.6540 S.3    87  CYS87      -0.0801
     33  N         21.3700   28.7200   74.4320 N.3    91  THR91      -0.1218
     34  CA        20.3790   27.6460   74.3990 C.3    91  THR91       0.1862
     35  C         19.4030   27.8980   73.2640 C.2    91  THR91       0.2287
     36  O         18.8970   26.9570   72.6420 O.2    91  THR91      -0.2866
     37  CB        19.6350   27.5470   75.7310 C.3    91  THR91       0.1770
     38  OG1       20.5800   27.4350   76.8020 O.3    91  THR91      -0.2211
     39  CG2       18.7140   26.3360   75.7440 C.3    91  THR91       0.0375
     40  N         20.6040   26.5960   70.1040 N.3    94  PHE94      -0.1227
     41  CA        20.4990   25.1390   70.0310 C.3    94  PHE94       0.1736
     42  C         19.1380   24.7100   69.5030 C.2    94  PHE94       0.2595
     43  O         19.0520   23.9140   68.5620 O.2    94  PHE94      -0.2718
     44  CB        20.7530   24.4590   71.3800 C.3    94  PHE94       0.0547
     45  CG        20.5620   22.9430   71.3340 C.ar   94  PHE94      -0.0202
     46  CD1       20.7460   22.2240   70.1550 C.ar   94  PHE94      -0.0042
     47  CD2       20.1400   22.2500   72.4550 C.ar   94  PHE94      -0.0042
     48  CE1       20.5250   20.8590   70.1020 C.ar   94  PHE94      -0.0003
     49  CE2       19.9330   20.8750   72.4060 C.ar   94  PHE94      -0.0003
     50  CZ        20.1310   20.1840   71.2280 C.ar   94  PHE94      -0.0000
     51  N         18.0640   25.3030   70.0150 N.am   95  TYR95      -0.1976
     52  CA        16.7540   24.8180   69.6070 C.3    95  TYR95       0.1639
     53  C         16.3490   25.4240   68.2770 C.2    95  TYR95       0.2290
     54  O         15.7100   24.7460   67.4640 O.2    95  TYR95      -0.2864
     55  CB        15.7180   25.1390   70.6860 C.3    95  TYR95       0.0560
     56  CG        15.7670   24.2120   71.8830 C.ar   95  TYR95      -0.0198
     57  CD1       15.1540   22.9650   71.8580 C.ar   95  TYR95      -0.0009
     58  CD2       16.4230   24.5950   73.0470 C.ar   95  TYR95      -0.0009
     59  CE1       15.1990   22.1210   72.9580 C.ar   95  TYR95       0.0417
     60  CE2       16.4730   23.7610   74.1500 C.ar   95  TYR95       0.0417
     61  CZ        15.8590   22.5260   74.1020 C.ar   95  TYR95       0.1957
     62  OH        15.9120   21.6970   75.2020 O.3    95  TYR95      -0.2866
     63  N         15.0630   28.1780   80.2500 N.3   149  VAL149     -0.1245
     64  CA        16.3540   27.7310   80.7600 C.3   149  VAL149      0.1561
     65  C         17.1070   28.9570   81.2690 C.2   149  VAL149      0.2260
     66  O         17.3710   29.9000   80.5150 O.2   149  VAL149     -0.2867
     67  CB        17.1480   26.9920   79.6730 C.3   149  VAL149      0.0252
     68  CG1       18.5140   26.6080   80.1830 C.3   149  VAL149      0.0019
     69  CG2       16.3820   25.7650   79.1980 C.3   149  VAL149      0.0019
     70  N         23.3780   26.0380   84.5030 N.3   156  CYS156     -0.1221
     71  CA        22.2860   26.4800   83.6440 C.3   156  CYS156      0.1808
     72  C         21.2660   25.3520   83.5530 C.2   156  CYS156      0.2601
     73  O         21.5620   24.2860   83.0030 O.2   156  CYS156     -0.2717
     74  CB        22.7790   26.9100   82.2710 C.3   156  CYS156      0.0970
     75  SG        21.4420   27.7620   81.4450 S.3   156  CYS156     -0.0800
     76  N         20.0620   25.5770   84.0740 N.am  157  MET157     -0.1965
     77  CA        19.0690   24.5150   84.1410 C.3   157  MET157      0.1736
     78  C         17.6710   25.0210   83.8220 C.2   157  MET157      0.2617
     79  O         17.3690   26.2100   83.9410 O.2   157  MET157     -0.2715
     80  CB        19.0760   23.8390   85.5170 C.3   157  MET157      0.0427
     81  CG        20.3250   23.0220   85.7680 C.3   157  MET157      0.0599
     82  SD        20.0950   21.8220   87.0780 S.3   157  MET157     -0.1393
     83  CE        18.9350   20.7070   86.2950 C.3   157  MET157      0.0692
     84  N         16.8250   24.0860   83.3940 N.am  158  THR158     -0.1951
     85  CA        15.4150   24.3600   83.1520 C.3   158  THR158      0.1897
     86  C         14.8060   24.7930   84.4790 C.2   158  THR158      0.2313
     87  O         14.7560   23.9970   85.4220 O.2   158  THR158     -0.2863
     88  CB        14.6980   23.1290   82.5970 C.3   158  THR158      0.1794
     89  OG1       15.3080   22.7370   81.3630 O.3   158  THR158     -0.2208
     90  CG2       13.2240   23.4270   82.3550 C.3   158  THR158      0.0378
     91  N         12.5390   24.7060   86.8950 N.3   160  TYR160     -0.1241
     92  CA        11.3700   23.9050   87.2370 C.3   160  TYR160      0.1605
     93  C         10.5360   24.5230   88.3490 C.2   160  TYR160      0.2264
     94  O          9.3620   24.1670   88.4940 O.2   160  TYR160     -0.2867
     95  CB        11.7910   22.4970   87.6720 C.3   160  TYR160      0.0534
     96  CG        12.4400   21.6480   86.6020 C.ar  160  TYR160     -0.0201
     97  CD1       11.6940   21.1180   85.5560 C.ar  160  TYR160     -0.0009
     98  CD2       13.7960   21.3570   86.6500 C.ar  160  TYR160     -0.0009
     99  CE1       12.2870   20.3340   84.5820 C.ar  160  TYR160      0.0417
    100  CE2       14.3970   20.5770   85.6820 C.ar  160  TYR160      0.0417
    101  CZ        13.6380   20.0680   84.6510 C.ar  160  TYR160      0.1957
    102  OH        14.2370   19.2880   83.6880 O.3   160  TYR160     -0.2866
    103  N          6.7100   18.4880   78.0680 N.3   171  LEU171     -0.1245
    104  CA         7.8910   18.8640   77.2960 C.3   171  LEU171      0.1561
    105  C          8.5540   17.6580   76.6480 C.2   171  LEU171      0.2260
    106  O          9.0960   17.7720   75.5430 O.2   171  LEU171     -0.2867
    107  CB         8.8900   19.6010   78.1870 C.3   171  LEU171      0.0270
    108  CG         9.8410   20.5620   77.4730 C.3   171  LEU171      0.0019
    109  CD1        9.0600   21.6080   76.6910 C.3   171  LEU171      0.0001
    110  CD2       10.7810   21.2240   78.4710 C.3   171  LEU171      0.0001
@<TRIPOS>BOND
     1    54    53    2
     2    53    52    1
     3    43    42    2
     4    42    51   am
     5    42    41    1
     6    52    51    1
     7    52    55    1
     8    41    40    1
     9    41    44    1
    10    48    46   ar
    11    48    50   ar
    12    46    45   ar
    13    55    56    1
    14    50    49   ar
    15    45    44    1
    16    45    47   ar
    17    57    56   ar
    18    57    59   ar
    19    56    58   ar
    20    49    47   ar
    21    36    35    2
    22    59    61   ar
    23    58    60   ar
    24    35    34    1
    25     7     9   ar
    26     7     6   ar
    27     9    10   ar
    28    61    60   ar
    29    61    62    1
    30    34    33    1
    31    34    37    1
    32     1     2    1
    33     6     5    1
    34     6     8   ar
    35    10    12   ar
    36    10     8   ar
    37     5     2    1
    38   106   105    2
    39    12    14   ar
    40     2     3    1
    41     8    11   ar
    42    37    39    1
    43    37    38    1
    44     3     4    2
    45   105   104    1
    46   109   108    1
    47    30    29    2
    48    14    13   ar
    49    11    13   ar
    50   104   103    1
    51   104   107    1
    52   108   107    1
    53   108   110    1
    54    29    28    1
    55    28    27    1
    56    28    31    1
    57    15    16    1
    58    69    67    1
    59    19    16    1
    60    19    20    1
    61    32    31    1
    62    32    75    1
    63    67    68    1
    64    67    64    1
    65    16    17    1
    66    63    64    1
    67    66    65    2
    68    20    22   ar
    69    20    21   ar
    70    22    24   ar
    71    64    65    1
    72    17    18    2
    73    89    88    1
    74    21    23   ar
    75    75    74    1
    76    24    25   ar
    77    74    71    1
    78    23    25   ar
    79    90    88    1
    80    25    26    1
    81    88    85    1
    82    73    72    2
    83    85    84    1
    84    85    86    1
    85    84    78   am
    86    72    71    1
    87    72    76   am
    88    71    70    1
    89   102   101    1
    90    78    79    2
    91    78    77    1
    92    76    77    1
    93    77    80    1
    94    86    87    2
    95    99   101   ar
    96    99    97   ar
    97   101   100   ar
    98    80    81    1
    99    97    96   ar
   100   100    98   ar
   101    81    82    1
   102    83    82    1
   103    96    98   ar
   104    96    95    1
   105    91    92    1
   106    92    95    1
   107    92    93    1
   108    93    94    2
