@<TRIPOS>MOLECULE
tmp/5wb2A01.pdb
 82 78 0 0 0
SMALL
GASTEIGER

@<TRIPOS>ATOM
      1  N         18.9010    5.5970   63.3020 N.3   222  ILE222     -0.1231
      2  CA        20.0180    5.0970   64.1000 C.3   222  ILE222      0.1692
      3  C         20.7450    6.1850   64.8720 C.2   222  ILE222      0.2592
      4  O         21.6440    5.8690   65.6510 O.2   222  ILE222     -0.2718
      5  CB        21.0260    4.3290   63.2220 C.3   222  ILE222      0.0266
      6  CG1       21.6840    5.2640   62.2090 C.3   222  ILE222      0.0019
      7  CG2       20.3410    3.1550   62.5300 C.3   222  ILE222      0.0020
      8  CD1       22.6890    4.5780   61.3270 C.3   222  ILE222      0.0001
      9  N         20.3840    7.4520   64.6830 N.am  223  PHE223     -0.1976
     10  CA        21.0380    8.5500   65.3810 C.3   223  PHE223      0.1639
     11  C         20.1160    9.2930   66.3350 C.2   223  PHE223      0.2290
     12  O         20.6030    9.8930   67.2970 O.2   223  PHE223     -0.2864
     13  CB        21.6380    9.5390   64.3700 C.3   223  PHE223      0.0560
     14  CG        23.0040    9.1480   63.8880 C.ar  223  PHE223     -0.0200
     15  CD1       24.1290    9.4470   64.6370 C.ar  223  PHE223     -0.0042
     16  CD2       23.1620    8.4560   62.6990 C.ar  223  PHE223     -0.0042
     17  CE1       25.3890    9.0790   64.1970 C.ar  223  PHE223     -0.0003
     18  CE2       24.4170    8.0850   62.2560 C.ar  223  PHE223     -0.0003
     19  CZ        25.5320    8.3960   63.0060 C.ar  223  PHE223     -0.0000
     20  N         17.8200    6.3810   69.6400 N.3   226  PRO226     -0.2116
     21  CA        18.3390    6.0970   70.9880 C.3   226  PRO226      0.1372
     22  C         18.0910    7.2190   71.9760 C.2   226  PRO226      0.2244
     23  O         17.9250    6.9490   73.1720 O.2   226  PRO226     -0.2868
     24  CB        19.8380    5.8780   70.7450 C.3   226  PRO226      0.0268
     25  CG        19.9130    5.3950   69.3430 C.3   226  PRO226      0.0207
     26  CD        18.8510    6.1540   68.6080 C.3   226  PRO226      0.0892
     27  N         20.6400    5.9350   87.6150 N.3   250  ARG250     -0.1231
     28  CA        22.0340    6.1750   87.2600 C.3   250  ARG250      0.1694
     29  C         22.3230    5.6200   85.8730 C.2   250  ARG250      0.2592
     30  O         23.0590    6.2350   85.0940 O.2   250  ARG250     -0.2718
     31  CB        22.9620    5.5550   88.3030 C.3   250  ARG250      0.0321
     32  CG        22.7200    6.0830   89.7050 C.3   250  ARG250      0.0489
     33  CD        23.4840    5.2970   90.7480 C.3   250  ARG250      0.2205
     34  NE        24.7910    5.8820   91.0260 N.pl3 250  ARG250     -0.0865
     35  CZ        25.9480    5.3620   90.6360 C.cat 250  ARG250      0.5346
     36  NH1       25.9760    4.2340   89.9450 N.pl3 250  ARG250      0.1354
     37  NH2       27.0800    5.9690   90.9470 N.pl3 250  ARG250      0.1354
     38  N         21.7620    4.4500   85.5610 N.am  251  SER251     -0.1952
     39  CA        21.9140    3.8890   84.2250 C.3   251  SER251      0.1924
     40  C         21.1940    4.7620   83.2050 C.2   251  SER251      0.2314
     41  O         21.7030    4.9930   82.1020 O.2   251  SER251     -0.2863
     42  CB        21.3780    2.4580   84.1890 C.3   251  SER251      0.2116
     43  OG        22.0550    1.6330   85.1220 O.3   251  SER251     -0.2180
     44  N         23.2810    8.0610   82.5450 N.3   254  ARG254     -0.1231
     45  CA        24.4070    7.8670   81.6420 C.3   254  ARG254      0.1694
     46  C         23.9000    7.6720   80.2210 C.2   254  ARG254      0.2591
     47  O         24.5060    8.1630   79.2620 O.2   254  ARG254     -0.2718
     48  CB        25.2590    6.6880   82.1020 C.3   254  ARG254      0.0321
     49  CG        26.5840    6.5610   81.3730 C.3   254  ARG254      0.0489
     50  CD        27.2600    5.2530   81.7190 C.3   254  ARG254      0.2205
     51  NE        27.4190    5.0790   83.1600 N.pl3 254  ARG254     -0.0865
     52  CZ        28.5080    5.4170   83.8410 C.cat 254  ARG254      0.5346
     53  NH1       29.5440    5.9540   83.2110 N.pl3 254  ARG254      0.1354
     54  NH2       28.5610    5.2190   85.1520 N.pl3 254  ARG254      0.1354
     55  N         22.7970    6.9360   80.0680 N.am  255  ALA255     -0.1980
     56  CA        22.2340    6.7040   78.7430 C.3   255  ALA255      0.1597
     57  C         21.8010    8.0160   78.1080 C.2   255  ALA255      0.2287
     58  O         21.9890    8.2250   76.9040 O.2   255  ALA255     -0.2864
     59  CB        21.0390    5.7630   78.8420 C.3   255  ALA255      0.0319
     60  N         25.0860    9.8170   77.0290 N.3   258  LEU258     -0.1231
     61  CA        25.7270    9.1650   75.8900 C.3   258  LEU258      0.1693
     62  C         24.8870    9.3260   74.6270 C.2   258  LEU258      0.2592
     63  O         25.4040    9.7110   73.5720 O.2   258  LEU258     -0.2718
     64  CB        25.9840    7.6920   76.2030 C.3   258  LEU258      0.0284
     65  CG        26.9860    7.4770   77.3400 C.3   258  LEU258      0.0019
     66  CD1       27.1830    6.0010   77.6270 C.3   258  LEU258      0.0001
     67  CD2       28.3150    8.1490   77.0240 C.3   258  LEU258      0.0001
     68  N         23.5920    9.0050   74.7080 N.am  259  THR259     -0.1953
     69  CA        22.7380    9.0790   73.5270 C.3   259  THR259      0.1897
     70  C         22.6040   10.5150   73.0390 C.2   259  THR259      0.2313
     71  O         22.3400   10.7430   71.8520 O.2   259  THR259     -0.2863
     72  CB        21.3590    8.4840   73.8150 C.3   259  THR259      0.1794
     73  OG1       20.8060    9.0910   74.9890 O.3   259  THR259     -0.2208
     74  CG2       21.4580    6.9780   74.0150 C.3   259  THR259      0.0378
     75  N         25.4460   11.1140   70.8020 N.3   262  LEU262     -0.1245
     76  CA        25.2410   10.3630   69.5710 C.3   262  LEU262      0.1561
     77  C         24.3570   11.1340   68.5990 C.2   262  LEU262      0.2260
     78  O         24.6210   11.1520   67.3910 O.2   262  LEU262     -0.2867
     79  CB        24.6300    8.9990   69.8940 C.3   262  LEU262      0.0270
     80  CG        24.1890    8.1170   68.7250 C.3   262  LEU262      0.0019
     81  CD1       25.3890    7.6440   67.9210 C.3   262  LEU262      0.0001
     82  CD2       23.3760    6.9350   69.2280 C.3   262  LEU262      0.0001
@<TRIPOS>BOND
     1     8     6    1
     2     6     5    1
     3    18    16   ar
     4    18    19   ar
     5     7     5    1
     6    16    14   ar
     7    19    17   ar
     8     5     2    1
     9     1     2    1
    10    14    13    1
    11    14    15   ar
    12     2     3    1
    13    17    15   ar
    14    13    10    1
    15     9     3   am
    16     9    10    1
    17     3     4    2
    18    10    11    1
    19    11    12    2
    20    78    77    2
    21    81    80    1
    22    77    76    1
    23    26    25    1
    24    26    20    1
    25    80    82    1
    26    80    79    1
    27    25    24    1
    28    76    79    1
    29    76    75    1
    30    20    21    1
    31    24    21    1
    32    21    22    1
    33    71    70    2
    34    22    23    2
    35    70    69    1
    36    69    72    1
    37    69    68    1
    38    63    62    2
    39    72    74    1
    40    72    73    1
    41    62    68   am
    42    62    61    1
    43    61    64    1
    44    61    60    1
    45    64    65    1
    46    58    57    2
    47    67    65    1
    48    65    66    1
    49    57    56    1
    50    56    59    1
    51    56    55    1
    52    47    46    2
    53    55    46   am
    54    46    45    1
    55    49    50    1
    56    49    48    1
    57    45    48    1
    58    45    44    1
    59    50    51    1
    60    41    40    2
    61    51    52    2
    62    40    39    1
    63    53    52    1
    64    52    54    1
    65    42    39    1
    66    42    43    1
    67    39    38    1
    68    30    29    2
    69    38    29   am
    70    29    28    1
    71    28    27    1
    72    28    31    1
    73    31    32    1
    74    32    33    1
    75    36    35    1
    76    35    37    1
    77    35    34    2
    78    33    34    1
