@<TRIPOS>MOLECULE
tmp/5wb2A05.pdb
 113 107 0 0 0
SMALL
GASTEIGER

@<TRIPOS>ATOM
      1  N         15.4400   22.6830   65.5690 N.3    99  PHE99      -0.1241
      2  CA        14.1390   22.5960   64.9220 C.3    99  PHE99       0.1605
      3  C         14.2430   22.9540   63.4450 C.2    99  PHE99       0.2264
      4  O         13.5810   22.3360   62.6040 O.2    99  PHE99      -0.2867
      5  CB        13.1430   23.5030   65.6430 C.3    99  PHE99       0.0534
      6  CG        12.6140   22.9210   66.9290 C.ar   99  PHE99      -0.0203
      7  CD1       11.7070   21.8740   66.9140 C.ar   99  PHE99      -0.0042
      8  CD2       13.0280   23.4230   68.1540 C.ar   99  PHE99      -0.0042
      9  CE1       11.2210   21.3400   68.0960 C.ar   99  PHE99      -0.0003
     10  CE2       12.5470   22.8930   69.3370 C.ar   99  PHE99      -0.0003
     11  CZ        11.6430   21.8520   69.3080 C.ar   99  PHE99      -0.0000
     12  N         15.4520   20.0310   61.4910 N.3   102  LEU102     -0.1231
     13  CA        14.4010   19.0470   61.2610 C.3   102  LEU102      0.1693
     14  C         13.3450   19.5750   60.3010 C.2   102  LEU102      0.2592
     15  O         12.7160   18.7890   59.5850 O.2   102  LEU102     -0.2718
     16  CB        13.7540   18.6380   62.5870 C.3   102  LEU102      0.0284
     17  CG        14.6780   17.9770   63.6130 C.3   102  LEU102      0.0019
     18  CD1       14.1010   18.0930   65.0150 C.3   102  LEU102      0.0001
     19  CD2       14.9250   16.5200   63.2490 C.3   102  LEU102      0.0001
     20  N         13.1410   20.8930   60.2770 N.am  103  CYS103     -0.1970
     21  CA        12.1600   21.4790   59.3720 C.3   103  CYS103      0.1712
     22  C         12.6140   21.3420   57.9250 C.2   103  CYS103      0.2296
     23  O         11.8310   20.9480   57.0520 O.2   103  CYS103     -0.2864
     24  CB        11.9300   22.9470   59.7300 C.3   103  CYS103      0.0983
     25  SG        10.8280   23.2200   61.1400 S.3   103  CYS103     -0.0798
     26  N         12.5660   17.7670   56.6980 N.3   106  THR106     -0.1218
     27  CA        11.2050   17.4600   56.2740 C.3   106  THR106      0.1862
     28  C         10.8960   18.1070   54.9300 C.2   106  THR106      0.2287
     29  O         10.2130   17.5140   54.0870 O.2   106  THR106     -0.2866
     30  CB        10.2060   17.9220   57.3380 C.3   106  THR106      0.1770
     31  OG1       10.4840   17.2640   58.5800 O.3   106  THR106     -0.2211
     32  CG2        8.7800   17.6120   56.9130 C.3   106  THR106      0.0375
     33  N          9.3660   16.6290   51.2690 N.3   110  LEU110     -0.1245
     34  CA         8.1700   17.2450   50.7030 C.3   110  LEU110      0.1561
     35  C          8.4540   17.8270   49.3230 C.2   110  LEU110      0.2260
     36  O          7.6960   17.5980   48.3730 O.2   110  LEU110     -0.2867
     37  CB         7.6370   18.3210   51.6480 C.3   110  LEU110      0.0270
     38  CG         7.0680   17.8180   52.9760 C.3   110  LEU110      0.0019
     39  CD1        6.6780   18.9880   53.8620 C.3   110  LEU110      0.0001
     40  CD2        5.8830   16.8930   52.7440 C.3   110  LEU110      0.0001
     41  N         10.1290   28.6760   57.1700 N.3   134  TRP134     -0.1241
     42  CA        10.5830   27.6240   58.0700 C.3   134  TRP134      0.1605
     43  C         11.4530   28.1860   59.1880 C.2   134  TRP134      0.2264
     44  O         11.3320   27.7620   60.3430 O.2   134  TRP134     -0.2867
     45  CB        11.3260   26.5390   57.2920 C.3   134  TRP134      0.0550
     46  CG        10.3960   25.6180   56.5550 C.ar  134  TRP134      0.0003
     47  CD1       10.2800   25.4810   55.2010 C.ar  134  TRP134      0.0946
     48  CD2        9.4000   24.7620   57.1290 C.ar  134  TRP134      0.0152
     49  NE1        9.3050   24.5620   54.8990 N.ar  134  TRP134     -0.2442
     50  CE2        8.7450   24.1100   56.0650 C.ar  134  TRP134      0.0810
     51  CE3        9.0090   24.4720   58.4400 C.ar  134  TRP134      0.0012
     52  CZ2        7.7220   23.1870   56.2720 C.ar  134  TRP134      0.0191
     53  CZ3        7.9940   23.5540   58.6420 C.ar  134  TRP134      0.0001
     54  CH2        7.3620   22.9230   57.5640 C.ar  134  TRP134      0.0015
     55  N          9.1220   29.7790   61.5240 N.3   137  PHE137     -0.1241
     56  CA         8.3900   28.7350   62.2300 C.3   137  PHE137      0.1605
     57  C          9.2840   27.9900   63.2110 C.2   137  PHE137      0.2264
     58  O          8.8040   27.5260   64.2500 O.2   137  PHE137     -0.2867
     59  CB         7.7710   27.7660   61.2210 C.3   137  PHE137      0.0534
     60  CG         6.9560   26.6650   61.8430 C.ar  137  PHE137     -0.0203
     61  CD1        5.6760   26.9110   62.3110 C.ar  137  PHE137     -0.0042
     62  CD2        7.4640   25.3790   61.9400 C.ar  137  PHE137     -0.0042
     63  CE1        4.9210   25.8980   62.8760 C.ar  137  PHE137     -0.0003
     64  CE2        6.7150   24.3630   62.5040 C.ar  137  PHE137     -0.0003
     65  CZ         5.4420   24.6220   62.9730 C.ar  137  PHE137     -0.0000
     66  N          8.4650   28.1230   67.3980 N.3   141  ILE141     -0.1245
     67  CA         8.1270   26.8330   67.9890 C.3   141  ILE141      0.1561
     68  C          9.1600   26.4300   69.0290 C.2   141  ILE141      0.2260
     69  O          8.9040   25.5160   69.8280 O.2   141  ILE141     -0.2867
     70  CB         8.0000   25.7460   66.9000 C.3   141  ILE141      0.0252
     71  CG1        7.1370   24.5800   67.3890 C.3   141  ILE141      0.0019
     72  CG2        9.3720   25.2400   66.4840 C.3   141  ILE141      0.0019
     73  CD1        5.7420   24.9880   67.8200 C.3   141  ILE141      0.0001
     74  N          5.9030   16.3560   73.8280 N.3   174  GLU174     -0.1245
     75  CA         5.9320   17.2550   72.6780 C.3   174  GLU174      0.1567
     76  C          7.2290   17.0870   71.8990 C.2   174  GLU174      0.2260
     77  O          7.2310   17.1200   70.6630 O.2   174  GLU174     -0.2867
     78  CB         5.7500   18.7060   73.1310 C.3   174  GLU174      0.0388
     79  CG         5.6610   19.7330   71.9980 C.3   174  GLU174      0.1160
     80  CD         7.0180   20.2370   71.5330 C.2   174  GLU174      0.3649
     81  OE1        7.9640   20.2270   72.3470 O.co2 174  GLU174     -0.2457
     82  OE2        7.1350   20.6530   70.3580 O.co2 174  GLU174     -0.2457
     83  N          7.0310   15.6310   68.2770 N.3   178  GLY178     -0.1210
     84  CA         7.2720   16.7820   67.4280 C.3   178  GLY178      0.1956
     85  C          8.5960   16.7280   66.6920 C.2   178  GLY178      0.2611
     86  O          8.6900   17.1540   65.5370 O.2   178  GLY178     -0.2717
     87  N          9.6280   16.1990   67.3490 N.am  179  ALA179     -0.1979
     88  CA        10.9790   16.1880   66.8020 C.3   179  ALA179      0.1597
     89  C         11.3730   14.8530   66.1840 C.2   179  ALA179      0.2287
     90  O         12.3680   14.8000   65.4520 O.2   179  ALA179     -0.2864
     91  CB        12.0020   16.5710   67.8790 C.3   179  ALA179      0.0319
     92  N          6.7340   12.9010   64.0630 N.3   182  ILE182     -0.1231
     93  CA         6.2670   13.6600   62.8990 C.3   182  ILE182      0.1678
     94  C          7.3350   13.7760   61.8140 C.2   182  ILE182      0.2434
     95  O          7.0130   13.5380   60.6380 O.2   182  ILE182     -0.2733
     96  CB         5.7290   15.0340   63.3440 C.3   182  ILE182      0.0265
     97  CG1        4.4950   14.8670   64.2320 C.3   182  ILE182      0.0019
     98  CG2        5.4210   15.9110   62.1360 C.3   182  ILE182      0.0020
     99  CD1        3.9520   16.1740   64.7660 C.3   182  ILE182      0.0001
    100  N          8.5930   14.1330   62.1120 N.am  183  PRO183     -0.2729
    101  CA         9.5760   14.1930   61.0160 C.3   183  PRO183      0.1401
    102  C          9.8240   12.8350   60.3840 C.2   183  PRO183      0.2269
    103  O          9.9100   12.7390   59.1530 O.2   183  PRO183     -0.2865
    104  CB        10.8310   14.7580   61.6980 C.3   183  PRO183      0.0296
    105  CG        10.3180   15.4820   62.8890 C.3   183  PRO183      0.0237
    106  CD         9.1570   14.6670   63.3650 C.3   183  PRO183      0.0939
    107  N          6.8780   11.8040   58.0280 N.3   186  VAL186     -0.1245
    108  CA         6.7970   12.5120   56.7550 C.3   186  VAL186      0.1561
    109  C          7.8720   12.0140   55.7970 C.2   186  VAL186      0.2260
    110  O          7.5820   11.6600   54.6490 O.2   186  VAL186     -0.2867
    111  CB         6.8960   14.0310   56.9750 C.3   186  VAL186      0.0252
    112  CG1        7.0620   14.7430   55.6430 C.3   186  VAL186      0.0019
    113  CG2        5.6660   14.5390   57.7080 C.3   186  VAL186      0.0019
@<TRIPOS>BOND
     1    36    35    2
     2    35    34    1
     3    34    33    1
     4    34    37    1
     5    37    38    1
     6    40    38    1
     7    38    39    1
     8    29    28    2
     9   110   109    2
    10    49    47   ar
    11    49    50   ar
    12    28    27    1
    13    47    46   ar
    14   112   111    1
    15   109   108    1
    16    50    52   ar
    17    50    48   ar
    18    52    54   ar
    19    27    26    1
    20    27    30    1
    21    46    48   ar
    22    46    45    1
    23   108   111    1
    24   108   107    1
    25    32    30    1
    26   111   113    1
    27    23    22    2
    28    48    51   ar
    29    41    42    1
    30    45    42    1
    31    30    31    1
    32    54    53   ar
    33    22    21    1
    34    42    43    1
    35    51    53   ar
    36   103   102    2
    37    43    44    2
    38    21    24    1
    39    21    20    1
    40    15    14    2
    41    24    25    1
    42    20    14   am
    43    14    13    1
    44   102   101    1
    45    95    94    2
    46   101   104    1
    47   101   100    1
    48    59    60    1
    49    59    56    1
    50    13    12    1
    51    13    16    1
    52    55    56    1
    53   104   105    1
    54    94   100   am
    55    94    93    1
    56    60    62   ar
    57    60    61   ar
    58    62    64   ar
    59   100   106    1
    60    98    96    1
    61    56    57    1
    62    61    63   ar
    63    64    65   ar
    64    16    17    1
    65     4     3    2
    66    63    65   ar
    67   105   106    1
    68    93    96    1
    69    93    92    1
    70    57    58    2
    71    19    17    1
    72    96    97    1
    73     3     2    1
    74    17    18    1
    75    97    99    1
    76     2     1    1
    77     2     5    1
    78    90    89    2
    79    86    85    2
    80     5     6    1
    81    89    88    1
    82    72    70    1
    83    85    87   am
    84    85    84    1
    85    88    87    1
    86    88    91    1
    87    70    71    1
    88    70    67    1
    89     7     6   ar
    90     7     9   ar
    91     6     8   ar
    92    71    73    1
    93    66    67    1
    94    84    83    1
    95    67    68    1
    96     9    11   ar
    97     8    10   ar
    98    68    69    2
    99    11    10   ar
   100    82    80   ar
   101    77    76    2
   102    80    79    1
   103    80    81   ar
   104    76    75    1
   105    79    78    1
   106    75    78    1
   107    75    74    1
