@<TRIPOS>MOLECULE
tmp/5wb2A03.pdb
 133 128 0 0 0
SMALL
GASTEIGER

@<TRIPOS>ATOM
      1  N          6.2770   16.2530   46.1230 N.3   114  TYR114     -0.1241
      2  CA         5.3960   16.9410   45.1850 C.3   114  TYR114      0.1605
      3  C          5.9620   16.9690   43.7720 C.2   114  TYR114      0.2264
      4  O          5.1950   17.0890   42.8110 O.2   114  TYR114     -0.2867
      5  CB         5.1310   18.3690   45.6680 C.3   114  TYR114      0.0534
      6  CG         4.2340   18.4560   46.8850 C.ar  114  TYR114     -0.0201
      7  CD1        2.8590   18.2960   46.7720 C.ar  114  TYR114     -0.0009
      8  CD2        4.7620   18.6980   48.1480 C.ar  114  TYR114     -0.0009
      9  CE1        2.0350   18.3760   47.8800 C.ar  114  TYR114      0.0417
     10  CE2        3.9470   18.7790   49.2610 C.ar  114  TYR114      0.0417
     11  CZ         2.5840   18.6170   49.1210 C.ar  114  TYR114      0.1957
     12  OH         1.7660   18.6980   50.2260 O.3   114  TYR114     -0.2866
     13  N          4.7910   18.7190   40.8360 N.3   120  ARG120     -0.1245
     14  CA         4.7970   20.1050   41.2870 C.3   120  ARG120      0.1563
     15  C          6.2420   20.5290   41.5180 C.2   120  ARG120      0.2260
     16  O          6.8890   20.0610   42.4610 O.2   120  ARG120     -0.2867
     17  CB         3.9620   20.2640   42.5560 C.3   120  ARG120      0.0307
     18  CG         3.6800   21.7520   42.8440 C.3   120  ARG120      0.0489
     19  CD         2.4940   22.2690   42.1090 C.3   120  ARG120      0.2205
     20  NE         2.2180   22.0350   40.7630 N.pl3 120  ARG120     -0.0865
     21  CZ         2.0390   21.8780   39.4940 C.cat 120  ARG120      0.5346
     22  NH1        2.7870   22.4570   38.5460 N.pl3 120  ARG120      0.1354
     23  NH2        0.9880   21.1470   39.0780 N.pl3 120  ARG120      0.1354
     24  N          9.2220   23.5090   42.1070 N.3   122  ARG122     -0.1245
     25  CA         9.3700   24.8060   42.7440 C.3   122  ARG122      0.1563
     26  C         10.5540   25.5690   42.1720 C.2   122  ARG122      0.2260
     27  O         11.6710   25.0360   42.1350 O.2   122  ARG122     -0.2867
     28  CB         9.5560   24.6320   44.2580 C.3   122  ARG122      0.0307
     29  CG         8.3860   23.9810   44.9780 C.3   122  ARG122      0.0489
     30  CD         7.4490   25.0360   45.5440 C.3   122  ARG122      0.2205
     31  NE         6.1680   25.1020   44.8470 N.pl3 122  ARG122     -0.0865
     32  CZ         5.0750   24.4490   45.2290 C.cat 122  ARG122      0.5346
     33  NH1        5.1020   23.6770   46.3080 N.pl3 122  ARG122      0.1354
     34  NH2        3.9510   24.5750   44.5360 N.pl3 122  ARG122      0.1354
     35  N         10.0100   29.8360   51.1050 N.3   130  PHE130     -0.1241
     36  CA         9.6640   28.8140   52.0870 C.3   130  PHE130      0.1605
     37  C         10.7290   28.7000   53.1640 C.2   130  PHE130      0.2264
     38  O         10.4030   28.4390   54.3270 O.2   130  PHE130     -0.2867
     39  CB         9.4620   27.4590   51.4090 C.3   130  PHE130      0.0534
     40  CG         8.2230   27.3740   50.5640 C.ar  130  PHE130     -0.0203
     41  CD1        7.1970   28.2910   50.7170 C.ar  130  PHE130     -0.0042
     42  CD2        8.0820   26.3680   49.6230 C.ar  130  PHE130     -0.0042
     43  CE1        6.0550   28.2080   49.9440 C.ar  130  PHE130     -0.0003
     44  CE2        6.9430   26.2800   48.8460 C.ar  130  PHE130     -0.0003
     45  CZ         5.9280   27.2020   49.0070 C.ar  130  PHE130     -0.0000
     46  N          9.9270   31.1060   55.7740 N.3   133  PHE133     -0.1227
     47  CA         8.8120   30.6510   56.5980 C.3   133  PHE133      0.1736
     48  C          9.2590   29.5940   57.5980 C.2   133  PHE133      0.2595
     49  O          8.8180   29.5950   58.7540 O.2   133  PHE133     -0.2718
     50  CB         7.6880   30.1020   55.7170 C.3   133  PHE133      0.0547
     51  CG         6.6730   29.2820   56.4720 C.ar  133  PHE133     -0.0202
     52  CD1        5.6570   29.8970   57.1840 C.ar  133  PHE133     -0.0042
     53  CD2        6.7370   27.8970   56.4690 C.ar  133  PHE133     -0.0042
     54  CE1        4.7260   29.1470   57.8790 C.ar  133  PHE133     -0.0003
     55  CE2        5.8090   27.1420   57.1640 C.ar  133  PHE133     -0.0003
     56  CZ         4.8020   27.7690   57.8680 C.ar  133  PHE133     -0.0000
     57  N         10.1290   28.6760   57.1700 N.am  134  TRP134     -0.1976
     58  CA        10.5830   27.6240   58.0700 C.3   134  TRP134      0.1640
     59  C         11.4530   28.1860   59.1880 C.2   134  TRP134      0.2290
     60  O         11.3320   27.7620   60.3430 O.2   134  TRP134     -0.2864
     61  CB        11.3260   26.5390   57.2920 C.3   134  TRP134      0.0576
     62  CG        10.3960   25.6180   56.5550 C.ar  134  TRP134      0.0006
     63  CD1       10.2800   25.4810   55.2010 C.ar  134  TRP134      0.0946
     64  CD2        9.4000   24.7620   57.1290 C.ar  134  TRP134      0.0152
     65  NE1        9.3050   24.5620   54.8990 N.ar  134  TRP134     -0.2442
     66  CE2        8.7450   24.1100   56.0650 C.ar  134  TRP134      0.0810
     67  CE3        9.0090   24.4720   58.4400 C.ar  134  TRP134      0.0012
     68  CZ2        7.7220   23.1870   56.2720 C.ar  134  TRP134      0.0191
     69  CZ3        7.9940   23.5540   58.6420 C.ar  134  TRP134      0.0001
     70  CH2        7.3620   22.9230   57.5640 C.ar  134  TRP134      0.0015
     71  N          9.1220   29.7790   61.5240 N.3   137  PHE137     -0.1241
     72  CA         8.3900   28.7350   62.2300 C.3   137  PHE137      0.1605
     73  C          9.2840   27.9900   63.2110 C.2   137  PHE137      0.2264
     74  O          8.8040   27.5260   64.2500 O.2   137  PHE137     -0.2867
     75  CB         7.7710   27.7660   61.2210 C.3   137  PHE137      0.0534
     76  CG         6.9560   26.6650   61.8430 C.ar  137  PHE137     -0.0203
     77  CD1        5.6760   26.9110   62.3110 C.ar  137  PHE137     -0.0042
     78  CD2        7.4640   25.3790   61.9400 C.ar  137  PHE137     -0.0042
     79  CE1        4.9210   25.8980   62.8760 C.ar  137  PHE137     -0.0003
     80  CE2        6.7150   24.3630   62.5040 C.ar  137  PHE137     -0.0003
     81  CZ         5.4420   24.6220   62.9730 C.ar  137  PHE137     -0.0000
     82  N          8.4650   28.1230   67.3980 N.3   141  ILE141     -0.1245
     83  CA         8.1270   26.8330   67.9890 C.3   141  ILE141      0.1561
     84  C          9.1600   26.4300   69.0290 C.2   141  ILE141      0.2260
     85  O          8.9040   25.5160   69.8280 O.2   141  ILE141     -0.2867
     86  CB         8.0000   25.7460   66.9000 C.3   141  ILE141      0.0252
     87  CG1        7.1370   24.5800   67.3890 C.3   141  ILE141      0.0019
     88  CG2        9.3720   25.2400   66.4840 C.3   141  ILE141      0.0019
     89  CD1        5.7420   24.9880   67.8200 C.3   141  ILE141      0.0001
     90  N          4.9120   17.0490   79.6430 N.3   170  ILE170     -0.1245
     91  CA         4.4610   17.5860   78.3610 C.3   170  ILE170      0.1561
     92  C          5.6500   17.9320   77.4730 C.2   170  ILE170      0.2260
     93  O          5.6270   17.7020   76.2570 O.2   170  ILE170     -0.2867
     94  CB         3.5440   18.8040   78.5840 C.3   170  ILE170      0.0252
     95  CG1        2.2730   18.3840   79.3270 C.3   170  ILE170      0.0019
     96  CG2        3.1970   19.4710   77.2600 C.3   170  ILE170      0.0019
     97  CD1        1.3140   19.5240   79.5930 C.3   170  ILE170      0.0001
     98  N          6.8900   14.6900   75.8850 N.3   173  VAL173     -0.1231
     99  CA         5.9460   14.1640   74.9010 C.3   173  VAL173      0.1692
    100  C          5.9440   15.0320   73.6490 C.2   173  VAL173      0.2591
    101  O          5.9670   14.5250   72.5220 O.2   173  VAL173     -0.2718
    102  CB         4.5390   14.0520   75.5120 C.3   173  VAL173      0.0266
    103  CG1        3.5280   13.6610   74.4470 C.3   173  VAL173      0.0020
    104  CG2        4.5390   13.0470   76.6520 C.3   173  VAL173      0.0020
    105  N          5.9030   16.3560   73.8280 N.am  174  GLU174     -0.1979
    106  CA         5.9320   17.2550   72.6780 C.3   174  GLU174      0.1602
    107  C          7.2290   17.0870   71.8990 C.2   174  GLU174      0.2287
    108  O          7.2310   17.1200   70.6630 O.2   174  GLU174     -0.2864
    109  CB         5.7500   18.7060   73.1310 C.3   174  GLU174      0.0415
    110  CG         5.6610   19.7330   71.9980 C.3   174  GLU174      0.1163
    111  CD         7.0180   20.2370   71.5330 C.2   174  GLU174      0.3649
    112  OE1        7.9640   20.2270   72.3470 O.co2 174  GLU174     -0.2457
    113  OE2        7.1350   20.6530   70.3580 O.co2 174  GLU174     -0.2457
    114  N          7.1880   13.4120   69.9500 N.3   177  LEU177     -0.1231
    115  CA         6.3680   13.3210   68.7480 C.3   177  LEU177      0.1693
    116  C          6.6720   14.4530   67.7730 C.2   177  LEU177      0.2592
    117  O          6.5900   14.2540   66.5560 O.2   177  LEU177     -0.2718
    118  CB         4.8800   13.2930   69.1130 C.3   177  LEU177      0.0284
    119  CG         4.2230   14.4570   69.8610 C.3   177  LEU177      0.0019
    120  CD1        3.7370   15.5510   68.9140 C.3   177  LEU177      0.0001
    121  CD2        3.0790   13.9470   70.7260 C.3   177  LEU177      0.0001
    122  N          7.0310   15.6310   68.2770 N.am  178  GLY178     -0.1957
    123  CA         7.2720   16.7820   67.4280 C.3   178  GLY178      0.1869
    124  C          8.5960   16.7280   66.6920 C.2   178  GLY178      0.2309
    125  O          8.6900   17.1540   65.5370 O.2   178  GLY178     -0.2863
    126  N          6.7340   12.9010   64.0630 N.3   182  ILE182     -0.1245
    127  CA         6.2670   13.6600   62.8990 C.3   182  ILE182      0.1561
    128  C          7.3350   13.7760   61.8140 C.2   182  ILE182      0.2260
    129  O          7.0130   13.5380   60.6380 O.2   182  ILE182     -0.2867
    130  CB         5.7290   15.0340   63.3440 C.3   182  ILE182      0.0252
    131  CG1        4.4950   14.8670   64.2320 C.3   182  ILE182      0.0019
    132  CG2        5.4210   15.9110   62.1360 C.3   182  ILE182      0.0019
    133  CD1        3.9520   16.1740   64.7660 C.3   182  ILE182      0.0001
@<TRIPOS>BOND
     1    22    21    1
     2    23    21    1
     3    21    20    2
     4    20    19    1
     5    13    14    1
     6    14    15    1
     7    14    17    1
     8    15    16    2
     9    24    25    1
    10    19    18    1
    11    27    26    2
    12    26    25    1
    13    17    18    1
    14    25    28    1
    15     4     3    2
    16     3     2    1
    17    28    29    1
    18    34    32    1
    19    31    32    2
    20    31    30    1
    21    29    30    1
    22     2     5    1
    23     2     1    1
    24    32    33    1
    25     5     6    1
    26     7     6   ar
    27     7     9   ar
    28     6     8   ar
    29     9    11   ar
    30     8    10   ar
    31    44    45   ar
    32    44    42   ar
    33    45    43   ar
    34    11    10   ar
    35    11    12    1
    36    42    40   ar
    37    43    41   ar
    38    40    41   ar
    39    40    39    1
    40    35    36    1
    41    39    36    1
    42    36    37    1
    43    37    38    2
    44    65    63   ar
    45    65    66   ar
    46    63    62   ar
    47    50    51    1
    48    50    47    1
    49    46    47    1
    50    66    68   ar
    51    66    64   ar
    52    68    70   ar
    53    53    51   ar
    54    53    55   ar
    55    51    52   ar
    56    62    64   ar
    57    62    61    1
    58    47    48    1
    59    64    67   ar
    60    55    56   ar
    61    57    48   am
    62    57    58    1
    63    52    54   ar
    64    61    58    1
    65    70    69   ar
    66    48    49    2
    67    56    54   ar
    68    58    59    1
    69    67    69   ar
    70    59    60    2
    71   129   128    2
    72    75    76    1
    73    75    72    1
    74    71    72    1
    75   128   127    1
    76    76    78   ar
    77    76    77   ar
    78    78    80   ar
    79   132   130    1
    80    72    73    1
    81    77    79   ar
    82    80    81   ar
    83    79    81   ar
    84   127   130    1
    85   127   126    1
    86    73    74    2
    87   130   131    1
    88   131   133    1
    89   125   124    2
    90    88    86    1
    91   117   116    2
    92   124   123    1
    93    86    87    1
    94    86    83    1
    95    87    89    1
    96    82    83    1
    97   123   122    1
    98   116   122   am
    99   116   115    1
   100    83    84    1
   101   115   118    1
   102   115   114    1
   103   120   119    1
   104    84    85    2
   105   118   119    1
   106   119   121    1
   107   113   111   ar
   108   108   107    2
   109   111   110    1
   110   111   112   ar
   111   107   106    1
   112   110   109    1
   113   101   100    2
   114   106   109    1
   115   106   105    1
   116   100   105   am
   117   100    99    1
   118   103   102    1
   119    99   102    1
   120    99    98    1
   121   102   104    1
   122    93    92    2
   123    96    94    1
   124    92    91    1
   125    91    94    1
   126    91    90    1
   127    94    95    1
   128    95    97    1
