@<TRIPOS>MOLECULE
tmp/5wb2A02.pdb
 112 103 0 0 0
SMALL
GASTEIGER

@<TRIPOS>ATOM
      1  N         34.6820   16.2360   68.0750 N.3    26  VAL26      -0.1245
      2  CA        34.5590   15.5080   66.8170 C.3    26  VAL26       0.1561
      3  C         33.4180   16.0880   65.9900 C.2    26  VAL26       0.2260
      4  O         33.5580   16.3200   64.7830 O.2    26  VAL26      -0.2867
      5  CB        34.3610   14.0060   67.0820 C.3    26  VAL26       0.0252
      6  CG1       34.0590   13.2750   65.7830 C.3    26  VAL26       0.0019
      7  CG2       35.5890   13.4230   67.7600 C.3    26  VAL26       0.0019
      8  N         34.1220   17.8600   62.1590 N.3    30  PHE30      -0.1241
      9  CA        33.5190   17.4200   60.9060 C.3    30  PHE30       0.1605
     10  C         32.2370   18.1740   60.5720 C.2    30  PHE30       0.2264
     11  O         31.9400   18.3780   59.3890 O.2    30  PHE30      -0.2867
     12  CB        33.2590   15.9160   60.9590 C.3    30  PHE30       0.0534
     13  CG        34.5020   15.1000   61.1590 C.ar   30  PHE30      -0.0203
     14  CD1       35.3360   14.8130   60.0920 C.ar   30  PHE30      -0.0042
     15  CD2       34.8490   14.6360   62.4170 C.ar   30  PHE30      -0.0042
     16  CE1       36.4860   14.0660   60.2720 C.ar   30  PHE30      -0.0003
     17  CE2       35.9980   13.8900   62.6040 C.ar   30  PHE30      -0.0003
     18  CZ        36.8170   13.6050   61.5300 C.ar   30  PHE30      -0.0000
     19  N         20.0870    3.2630   42.5890 N.3   208  ARG208     -0.1245
     20  CA        20.8020    4.0870   43.5540 C.3   208  ARG208      0.1563
     21  C         19.8710    5.1010   44.2030 C.2   208  ARG208      0.2260
     22  O         20.0630    5.4520   45.3730 O.2   208  ARG208     -0.2867
     23  CB        21.9830    4.7860   42.8770 C.3   208  ARG208      0.0307
     24  CG        22.9880    5.3870   43.8480 C.3   208  ARG208      0.0489
     25  CD        24.3470    5.5940   43.1900 C.3   208  ARG208      0.2205
     26  NE        24.4410    6.8160   42.3960 N.pl3 208  ARG208     -0.0865
     27  CZ        24.8250    7.9910   42.8850 C.cat 208  ARG208      0.5346
     28  NH1       25.1470    8.1010   44.1670 N.pl3 208  ARG208      0.1354
     29  NH2       24.8940    9.0540   42.0960 N.pl3 208  ARG208      0.1354
     30  N         18.3760    3.4540   47.1520 N.3   211  ARG211     -0.1231
     31  CA        19.3880    3.2530   48.1840 C.3   211  ARG211      0.1694
     32  C         19.7280    4.5610   48.8860 C.2   211  ARG211      0.2591
     33  O         19.9920    4.5760   50.0950 O.2   211  ARG211     -0.2718
     34  CB        20.6330    2.6230   47.5600 C.3   211  ARG211      0.0321
     35  CG        20.3560    1.2850   46.8950 C.3   211  ARG211      0.0489
     36  CD        21.6300    0.5150   46.6190 C.3   211  ARG211      0.2205
     37  NE        22.5160    1.2310   45.7060 N.pl3 211  ARG211     -0.0865
     38  CZ        22.4620    1.1220   44.3810 C.cat 211  ARG211      0.5346
     39  NH1       21.5590    0.3320   43.8140 N.pl3 211  ARG211      0.1354
     40  NH2       23.3080    1.8050   43.6210 N.pl3 211  ARG211      0.1354
     41  N         19.7260    5.6710   48.1460 N.am  212  VAL212     -0.1980
     42  CA        19.9820    6.9730   48.7530 C.3   212  VAL212      0.1595
     43  C         18.8570    7.3380   49.7140 C.2   212  VAL212      0.2287
     44  O         19.0990    7.7870   50.8410 O.2   212  VAL212     -0.2864
     45  CB        20.1680    8.0460   47.6660 C.3   212  VAL212      0.0276
     46  CG1       20.1160    9.4390   48.2740 C.3   212  VAL212      0.0022
     47  CG2       21.4860    7.8360   46.9420 C.3   212  VAL212      0.0022
     48  N         18.9140    5.2480   52.9490 N.3   215  ALA215     -0.1245
     49  CA        19.9670    5.6700   53.8690 C.3   215  ALA215      0.1562
     50  C         19.5450    6.8840   54.6880 C.2   215  ALA215      0.2260
     51  O         19.8410    6.9640   55.8860 O.2   215  ALA215     -0.2867
     52  CB        21.2490    5.9660   53.0940 C.3   215  ALA215      0.0290
     53  N         19.7460    6.4120   58.6150 N.3   219  VAL219     -0.1245
     54  CA        20.6580    7.2340   59.4070 C.3   219  VAL219      0.1561
     55  C         19.8840    8.0700   60.4180 C.2   219  VAL219      0.2260
     56  O         20.3070    8.2280   61.5700 O.2   219  VAL219     -0.2867
     57  CB        21.5310    8.1070   58.4880 C.3   219  VAL219      0.0252
     58  CG1       22.2840    9.1510   59.2960 C.3   219  VAL219      0.0019
     59  CG2       22.5020    7.2360   57.7060 C.3   219  VAL219      0.0019
     60  N         20.3840    7.4520   64.6830 N.3   223  PHE223     -0.1241
     61  CA        21.0380    8.5500   65.3810 C.3   223  PHE223      0.1605
     62  C         20.1160    9.2930   66.3350 C.2   223  PHE223      0.2264
     63  O         20.6030    9.8930   67.2970 O.2   223  PHE223     -0.2867
     64  CB        21.6380    9.5390   64.3700 C.3   223  PHE223      0.0534
     65  CG        23.0040    9.1480   63.8880 C.ar  223  PHE223     -0.0203
     66  CD1       24.1290    9.4470   64.6370 C.ar  223  PHE223     -0.0042
     67  CD2       23.1620    8.4560   62.6990 C.ar  223  PHE223     -0.0042
     68  CE1       25.3890    9.0790   64.1970 C.ar  223  PHE223     -0.0003
     69  CE2       24.4170    8.0850   62.2560 C.ar  223  PHE223     -0.0003
     70  CZ        25.5320    8.3960   63.0060 C.ar  223  PHE223     -0.0000
     71  N         26.4050   14.2110   59.2900 N.3   269  LEU269     -0.1245
     72  CA        26.1010   13.2820   58.2140 C.3   269  LEU269      0.1561
     73  C         25.1920   13.8850   57.1550 C.2   269  LEU269      0.2260
     74  O         25.1090   13.3390   56.0490 O.2   269  LEU269     -0.2867
     75  CB        25.4510   12.0140   58.7810 C.3   269  LEU269      0.0270
     76  CG        26.3820   10.8760   59.2110 C.3   269  LEU269      0.0019
     77  CD1       27.2240   10.4030   58.0400 C.3   269  LEU269      0.0001
     78  CD2       27.2700   11.2870   60.3750 C.3   269  LEU269      0.0001
     79  N         26.6260   14.2640   53.7650 N.3   272  LEU272     -0.1231
     80  CA        26.8320   13.0110   53.0510 C.3   272  LEU272      0.1693
     81  C         25.5260   12.3580   52.6230 C.2   272  LEU272      0.2591
     82  O         25.5540   11.4190   51.8190 O.2   272  LEU272     -0.2718
     83  CB        27.6260   12.0340   53.9200 C.3   272  LEU272      0.0284
     84  CG        29.0150   12.4990   54.3520 C.3   272  LEU272      0.0019
     85  CD1       29.6580   11.4650   55.2590 C.3   272  LEU272      0.0001
     86  CD2       29.8850   12.7760   53.1370 C.3   272  LEU272      0.0001
     87  N         24.3930   12.8360   53.1360 N.am  273  LEU273     -0.1980
     88  CA        23.0960   12.2150   52.9110 C.3   273  LEU273      0.1596
     89  C         22.3200   12.8580   51.7750 C.2   273  LEU273      0.2287
     90  O         21.4420   12.2090   51.1960 O.2   273  LEU273     -0.2864
     91  CB        22.2490   12.2660   54.1880 C.3   273  LEU273      0.0297
     92  CG        22.2310   11.0140   55.0690 C.3   273  LEU273      0.0022
     93  CD1       23.6330   10.4540   55.2640 C.3   273  LEU273      0.0001
     94  CD2       21.5780   11.3170   56.4100 C.3   273  LEU273      0.0001
     95  N         26.1510   13.0420   47.9400 N.3   277  VAL277     -0.1245
     96  CA        25.8010   11.7350   47.3960 C.3   277  VAL277      0.1561
     97  C         25.5300   11.8190   45.9000 C.2   277  VAL277      0.2260
     98  O         25.4970   10.7800   45.2210 O.2   277  VAL277     -0.2867
     99  CB        24.5840   11.1470   48.1410 C.3   277  VAL277      0.0252
    100  CG1       23.2970   11.8390   47.7050 C.3   277  VAL277      0.0019
    101  CG2       24.5040    9.6400   47.9450 C.3   277  VAL277      0.0019
    102  N         29.9730   15.8870   43.2810 N.3   282  ARG282     -0.1245
    103  CA        31.2850   15.2560   43.3630 C.3   282  ARG282      0.1563
    104  C         32.2320   15.8220   42.3080 C.2   282  ARG282      0.2260
    105  O         33.3970   16.1110   42.6040 O.2   282  ARG282     -0.2867
    106  CB        31.1440   13.7440   43.1900 C.3   282  ARG282      0.0307
    107  CG        30.5160   13.0230   44.3700 C.3   282  ARG282      0.0489
    108  CD        30.2640   11.5600   44.0310 C.3   282  ARG282      0.2205
    109  NE        29.7700   10.8000   45.1750 N.pl3 282  ARG282     -0.0865
    110  CZ        29.4040    9.5230   45.1200 C.cat 282  ARG282      0.5346
    111  NH1       29.4730    8.8590   43.9740 N.pl3 282  ARG282      0.1354
    112  NH2       28.9650    8.9100   46.2110 N.pl3 282  ARG282      0.1354
@<TRIPOS>BOND
     1    29    27    1
     2   104   105    2
     3   104   103    1
     4    26    27    2
     5    26    25    1
     6    19    20    1
     7    23    20    1
     8    23    24    1
     9    27    28    1
    10    25    24    1
    11   106   103    1
    12   106   107    1
    13   102   103    1
    14    20    21    1
    15    40    38    1
    16    39    38    1
    17   111   110    1
    18   108   107    1
    19   108   109    1
    20    21    22    2
    21    38    37    2
    22   110   109    2
    23   110   112    1
    24    98    97    2
    25    37    36    1
    26    97    96    1
    27    36    35    1
    28    35    34    1
    29    47    45    1
    30    30    31    1
    31    96    95    1
    32    96    99    1
    33    34    31    1
    34    45    46    1
    35    45    42    1
    36   100    99    1
    37   101    99    1
    38    41    42    1
    39    41    32   am
    40    31    32    1
    41    42    43    1
    42    32    33    2
    43    43    44    2
    44    90    89    2
    45    89    88    1
    46    82    81    2
    47    81    80    1
    48    81    87   am
    49    88    87    1
    50    88    91    1
    51    48    49    1
    52    80    79    1
    53    80    83    1
    54    52    49    1
    55    86    84    1
    56    49    50    1
    57    83    84    1
    58    91    92    1
    59    84    85    1
    60    50    51    2
    61    92    93    1
    62    92    94    1
    63    74    73    2
    64    73    72    1
    65    59    57    1
    66    77    76    1
    67    72    75    1
    68    72    71    1
    69    57    58    1
    70    57    54    1
    71    53    54    1
    72    75    76    1
    73    76    78    1
    74    11    10    2
    75    54    55    1
    76    14    16   ar
    77    14    13   ar
    78    16    18   ar
    79    55    56    2
    80    10     9    1
    81     9    12    1
    82     9     8    1
    83    12    13    1
    84    13    15   ar
    85    18    17   ar
    86    69    67   ar
    87    69    70   ar
    88    15    17   ar
    89    67    65   ar
    90    70    68   ar
    91    65    64    1
    92    65    66   ar
    93    68    66   ar
    94    64    61    1
    95    60    61    1
    96     4     3    2
    97    61    62    1
    98     6     5    1
    99     3     2    1
   100    62    63    2
   101     2     5    1
   102     2     1    1
   103     5     7    1
