@<TRIPOS>MOLECULE
tmp/5wb2A04.pdb
 114 103 0 0 0
SMALL
GASTEIGER

@<TRIPOS>ATOM
      1  N         27.8780   24.6340   51.4660 N.3    39  ILE39      -0.1245
      2  CA        27.6080   25.9970   51.0170 C.3    39  ILE39       0.1561
      3  C         28.6310   26.4160   49.9690 C.2    39  ILE39       0.2260
      4  O         28.2960   27.0890   48.9860 O.2    39  ILE39      -0.2867
      5  CB        27.5950   26.9640   52.2140 C.3    39  ILE39       0.0252
      6  CG1       26.5400   26.5280   53.2330 C.3    39  ILE39       0.0019
      7  CG2       27.3300   28.3880   51.7470 C.3    39  ILE39       0.0019
      8  CD1       26.4760   27.4060   54.4570 C.3    39  ILE39       0.0001
      9  N         18.5640   25.3490   47.3750 N.3    53  VAL53      -0.1245
     10  CA        18.1580   26.3110   48.3980 C.3    53  VAL53       0.1561
     11  C         18.0170   25.6240   49.7510 C.2    53  VAL53       0.2260
     12  O         18.5090   26.1150   50.7750 O.2    53  VAL53      -0.2867
     13  CB        16.8520   27.0140   47.9860 C.3    53  VAL53       0.0252
     14  CG1       16.3740   27.9360   49.0970 C.3    53  VAL53       0.0019
     15  CG2       17.0540   27.7890   46.6960 C.3    53  VAL53       0.0019
     16  N         21.4970   24.4200   51.3390 N.3    56  ILE56      -0.1231
     17  CA        22.2530   25.4830   51.9960 C.3    56  ILE56       0.1692
     18  C         21.6220   25.8230   53.3410 C.2    56  ILE56       0.2592
     19  O         22.3150   25.9670   54.3550 O.2    56  ILE56      -0.2718
     20  CB        22.3420   26.7190   51.0840 C.3    56  ILE56       0.0266
     21  CG1       23.1150   26.3810   49.8110 C.3    56  ILE56       0.0019
     22  CG2       23.0170   27.8670   51.8100 C.3    56  ILE56       0.0020
     23  CD1       23.2280   27.5370   48.8460 C.3    56  ILE56       0.0001
     24  N         20.2930   25.9510   53.3670 N.am   57  ASN57      -0.1974
     25  CA        19.5910   26.2420   54.6140 C.3    57  ASN57       0.1688
     26  C         19.7660   25.1190   55.6290 C.2    57  ASN57       0.2292
     27  O         19.7880   25.3730   56.8390 O.2    57  ASN57      -0.2864
     28  CB        18.1120   26.4920   54.3320 C.3    57  ASN57       0.1181
     29  CG        17.8700   27.8280   53.6600 C.2    57  ASN57       0.2629
     30  OD1       17.7020   28.8510   54.3240 O.2    57  ASN57      -0.2716
     31  ND2       17.8580   27.8270   52.3320 N.am   57  ASN57      -0.0877
     32  N         23.2390   25.5900   56.9440 N.3    60  ALA60      -0.1245
     33  CA        23.3030   26.7600   57.8130 C.3    60  ALA60       0.1562
     34  C         22.7760   26.4360   59.2050 C.2    60  ALA60       0.2260
     35  O         23.3020   26.9380   60.2050 O.2    60  ALA60      -0.2867
     36  CB        22.5210   27.9190   57.1980 C.3    60  ALA60       0.0290
     37  N         25.4590   24.5010   60.8940 N.3    63  LEU63      -0.1231
     38  CA        26.5540   25.4040   61.2400 C.3    63  LEU63       0.1693
     39  C         26.2570   26.1390   62.5410 C.2    63  LEU63       0.2591
     40  O         27.1210   26.2360   63.4200 O.2    63  LEU63      -0.2718
     41  CB        26.8050   26.3850   60.0960 C.3    63  LEU63       0.0284
     42  CG        27.7550   25.8660   59.0120 C.3    63  LEU63       0.0019
     43  CD1       27.9230   26.8840   57.8950 C.3    63  LEU63       0.0001
     44  CD2       29.1020   25.4970   59.6130 C.3    63  LEU63       0.0001
     45  N         25.0450   26.6890   62.6730 N.am   64  LEU64      -0.1980
     46  CA        24.6880   27.3880   63.9040 C.3    64  LEU64       0.1596
     47  C         24.7730   26.4480   65.0970 C.2    64  LEU64       0.2287
     48  O         25.0850   26.8790   66.2130 O.2    64  LEU64      -0.2864
     49  CB        23.2790   27.9690   63.7940 C.3    64  LEU64       0.0297
     50  CG        22.7810   28.7380   65.0200 C.3    64  LEU64       0.0022
     51  CD1       23.6840   29.9220   65.3250 C.3    64  LEU64       0.0001
     52  CD2       21.3400   29.1830   64.8280 C.3    64  LEU64       0.0001
     53  N         28.6690   25.5810   65.8900 N.3    67  CYS67      -0.1221
     54  CA        29.4690   26.7070   66.3550 C.3    67  CYS67       0.1808
     55  C         29.2450   27.0000   67.8320 C.2    67  CYS67       0.2601
     56  O         30.0100   27.7700   68.4230 O.2    67  CYS67      -0.2717
     57  CB        29.1500   27.9540   65.5280 C.3    67  CYS67       0.0970
     58  SG        29.8880   27.9550   63.8800 S.3    67  CYS67      -0.0800
     59  N         28.2190   26.3990   68.4310 N.am   68  THR68      -0.1953
     60  CA        27.9230   26.5170   69.8510 C.3    68  THR68       0.1897
     61  C         28.6860   25.5050   70.6950 C.2    68  THR68       0.2313
     62  O         28.8420   25.7170   71.9030 O.2    68  THR68      -0.2863
     63  CB        26.4190   26.3620   70.1000 C.3    68  THR68       0.1794
     64  OG1       25.9840   25.0770   69.6400 O.3    68  THR68      -0.2208
     65  CG2       25.6470   27.4450   69.3630 C.3    68  THR68       0.0378
     66  N         31.5840   26.6880   72.7860 N.3    71  LEU71      -0.1245
     67  CA        31.0980   27.4650   73.9190 C.3    71  LEU71       0.1561
     68  C         30.6550   26.5340   75.0410 C.2    71  LEU71       0.2260
     69  O         30.9230   26.7920   76.2210 O.2    71  LEU71      -0.2867
     70  CB        29.9380   28.3650   73.4880 C.3    71  LEU71       0.0270
     71  CG        30.1920   29.6990   72.7750 C.3    71  LEU71       0.0019
     72  CD1       31.1900   30.5700   73.5130 C.3    71  LEU71       0.0001
     73  CD2       30.6310   29.4790   71.3400 C.3    71  LEU71       0.0001
     74  N         24.0630   34.5210   78.8140 N.3    86  PRO86      -0.2116
     75  CA        24.4920   33.9370   77.5380 C.3    86  PRO86       0.1372
     76  C         23.8970   32.5490   77.4020 C.2    86  PRO86       0.2244
     77  O         23.6590   32.0810   76.2850 O.2    86  PRO86      -0.2868
     78  CB        26.0230   33.9070   77.6430 C.3    86  PRO86       0.0268
     79  CG        26.3560   34.8100   78.7690 C.3    86  PRO86       0.0207
     80  CD        25.2200   34.6470   79.7160 C.3    86  PRO86       0.0892
     81  N         20.5930   32.6080   75.6730 N.3    89  LEU89      -0.1231
     82  CA        20.7820   32.9900   74.2830 C.3    89  LEU89       0.1693
     83  C         21.4700   31.8450   73.5470 C.2    89  LEU89       0.2591
     84  O         21.1200   31.5290   72.4050 O.2    89  LEU89      -0.2718
     85  CB        21.5930   34.2820   74.2070 C.3    89  LEU89       0.0284
     86  CG        21.8970   34.8720   72.8350 C.3    89  LEU89       0.0019
     87  CD1       20.6030   35.1990   72.1100 C.3    89  LEU89       0.0001
     88  CD2       22.7490   36.1170   73.0000 C.3    89  LEU89       0.0001
     89  N         22.4620   31.2220   74.1910 N.am   90  LEU90      -0.1980
     90  CA        23.1910   30.1110   73.5870 C.3    90  LEU90       0.1596
     91  C         22.2780   28.8950   73.4630 C.2    90  LEU90       0.2287
     92  O         22.3930   28.1210   72.5060 O.2    90  LEU90      -0.2864
     93  CB        24.4310   29.7780   74.4100 C.3    90  LEU90       0.0297
     94  CG        25.4020   28.7750   73.7970 C.3    90  LEU90       0.0022
     95  CD1       25.9350   29.3170   72.4820 C.3    90  LEU90       0.0001
     96  CD2       26.5330   28.4820   74.7650 C.3    90  LEU90       0.0001
     97  N         20.1180   29.3030   70.3320 N.3    93  CYS93      -0.1235
     98  CA        20.7110   28.8330   69.0860 C.3    93  CYS93       0.1677
     99  C         20.6380   27.3140   68.9770 C.2    93  CYS93       0.2270
    100  O         20.6250   26.7820   67.8630 O.2    93  CYS93      -0.2867
    101  CB        22.1720   29.2740   69.0070 C.3    93  CYS93       0.0956
    102  SG        22.4330   31.0530   68.9290 S.3    93  CYS93      -0.0801
    103  N         13.3520   29.9520   48.3080 N.3   128  CYS128     -0.1235
    104  CA        13.8720   30.9360   49.2520 C.3   128  CYS128      0.1677
    105  C         12.7640   31.4690   50.1510 C.2   128  CYS128      0.2270
    106  O         12.9870   31.7200   51.3410 O.2   128  CYS128     -0.2867
    107  CB        14.5510   32.0820   48.5040 C.3   128  CYS128      0.0956
    108  SG        16.0350   31.6130   47.5860 S.3   128  CYS128     -0.0801
    109  N         11.9990   28.8920   52.8020 N.3   131  SER131     -0.1217
    110  CA        13.0610   28.8440   53.8000 C.3   131  SER131      0.1889
    111  C         12.8590   29.9190   54.8590 C.2   131  SER131      0.2288
    112  O         13.1080   29.6840   56.0480 O.2   131  SER131     -0.2866
    113  CB        14.4230   28.9920   53.1270 C.3   131  SER131      0.2089
    114  OG        14.6610   27.9150   52.2390 O.3   131  SER131     -0.2183
@<TRIPOS>BOND
     1    15    13    1
     2     9    10    1
     3   108   107    1
     4    13    10    1
     5    13    14    1
     6   103   104    1
     7    10    11    1
     8   107   104    1
     9    23    21    1
    10     4     3    2
    11   104   105    1
    12    11    12    2
    13    21    20    1
    14     3     2    1
    15   105   106    2
    16     2     1    1
    17     2     5    1
    18    20    22    1
    19    20    17    1
    20    16    17    1
    21     7     5    1
    22    17    18    1
    23     5     6    1
    24   114   113    1
    25    31    29   am
    26   109   110    1
    27   113   110    1
    28     6     8    1
    29    18    24   am
    30    18    19    2
    31    24    25    1
    32    29    30    2
    33    29    28    1
    34   110   111    1
    35    28    25    1
    36    25    26    1
    37   111   112    2
    38    26    27    2
    39    32    33    1
    40    36    33    1
    41    33    34    1
    42    43    42    1
    43    42    44    1
    44    42    41    1
    45    34    35    2
    46    41    38    1
    47    37    38    1
    48    38    39    1
    49    39    45   am
    50    39    40    2
    51    45    46    1
    52    49    46    1
    53    49    50    1
    54    58    57    1
    55    46    47    1
    56    52    50    1
    57    50    51    1
    58    47    48    2
    59    57    54    1
    60    53    54    1
    61    54    55    1
    62    55    56    2
    63    55    59   am
    64   100    99    2
    65    59    60    1
    66   102   101    1
    67    99    98    1
    68   101    98    1
    69    98    97    1
    70    65    63    1
    71    64    63    1
    72    60    63    1
    73    60    61    1
    74    61    62    2
    75    73    71    1
    76    87    86    1
    77    84    83    2
    78    95    94    1
    79    92    91    2
    80    71    70    1
    81    71    72    1
    82    66    67    1
    83    86    88    1
    84    86    85    1
    85    91    90    1
    86    70    67    1
    87    83    89   am
    88    83    82    1
    89    90    89    1
    90    90    93    1
    91    94    93    1
    92    94    96    1
    93    67    68    1
    94    85    82    1
    95    82    81    1
    96    68    69    2
    97    77    76    2
    98    76    75    1
    99    75    78    1
   100    75    74    1
   101    78    79    1
   102    79    80    1
   103    74    80    1
