@<TRIPOS>MOLECULE
tmp/5wb2A00.pdb
 98 91 0 0 0
SMALL
GASTEIGER

@<TRIPOS>ATOM
      1  N         17.0960    7.3370   61.8840 N.3   221  ILE221     -0.1231
      2  CA        16.6450    6.4670   62.9670 C.3   221  ILE221      0.1692
      3  C         17.8060    6.0970   63.8810 C.2   221  ILE221      0.2591
      4  O         17.7320    6.2640   65.1040 O.2   221  ILE221     -0.2718
      5  CB        15.9570    5.2160   62.3990 C.3   221  ILE221      0.0266
      6  CG1       14.6830    5.6170   61.6550 C.3   221  ILE221      0.0019
      7  CG2       15.6680    4.2180   63.5140 C.3   221  ILE221      0.0020
      8  CD1       13.9630    4.4650   61.0120 C.3   221  ILE221      0.0001
      9  N         18.9010    5.5970   63.3020 N.am  222  ILE222     -0.1980
     10  CA        20.0180    5.0970   64.1000 C.3   222  ILE222      0.1595
     11  C         20.7450    6.1850   64.8720 C.2   222  ILE222      0.2287
     12  O         21.6440    5.8690   65.6510 O.2   222  ILE222     -0.2864
     13  CB        21.0260    4.3290   63.2220 C.3   222  ILE222      0.0276
     14  CG1       21.6840    5.2640   62.2090 C.3   222  ILE222      0.0022
     15  CG2       20.3410    3.1550   62.5300 C.3   222  ILE222      0.0022
     16  CD1       22.6890    4.5780   61.3270 C.3   222  ILE222      0.0001
     17  N         16.7240    7.8800   67.3420 N.3   225  LEU225     -0.1231
     18  CA        15.9120    6.9500   68.1230 C.3   225  LEU225      0.1678
     19  C         16.5080    6.6190   69.4870 C.2   225  LEU225      0.2434
     20  O         15.7400    6.5760   70.4640 O.2   225  LEU225     -0.2733
     21  CB        15.6590    5.6650   67.3230 C.3   225  LEU225      0.0284
     22  CG        14.8140    4.5980   68.0230 C.3   225  LEU225      0.0019
     23  CD1       13.4420    5.1500   68.3770 C.3   225  LEU225      0.0001
     24  CD2       14.6880    3.3550   67.1600 C.3   225  LEU225      0.0001
     25  N         17.8200    6.3810   69.6400 N.am  226  PRO226     -0.2729
     26  CA        18.3390    6.0970   70.9880 C.3   226  PRO226      0.1401
     27  C         18.0910    7.2190   71.9760 C.2   226  PRO226      0.2269
     28  O         17.9250    6.9490   73.1720 O.2   226  PRO226     -0.2865
     29  CB        19.8380    5.8780   70.7450 C.3   226  PRO226      0.0296
     30  CG        19.9130    5.3950   69.3430 C.3   226  PRO226      0.0237
     31  CD        18.8510    6.1540   68.6080 C.3   226  PRO226      0.0939
     32  N         14.1690    7.1880   72.6130 N.3   229  LEU229     -0.1231
     33  CA        13.7770    5.9760   73.3180 C.3   229  LEU229      0.1693
     34  C         14.2230    6.0220   74.7700 C.2   229  LEU229      0.2592
     35  O         13.6270    5.3450   75.6130 O.2   229  LEU229     -0.2718
     36  CB        14.3430    4.7370   72.6240 C.3   229  LEU229      0.0284
     37  CG        13.3080    3.6450   72.3470 C.3   229  LEU229      0.0019
     38  CD1       12.1100    4.2190   71.6130 C.3   229  LEU229      0.0001
     39  CD2       13.9260    2.5100   71.5490 C.3   229  LEU229      0.0001
     40  N         15.2500    6.8180   75.0790 N.am  230  THR230     -0.1953
     41  CA        15.6520    6.9940   76.4670 C.3   230  THR230      0.1897
     42  C         14.7490    8.0070   77.1540 C.2   230  THR230      0.2313
     43  O         14.4970    7.8940   78.3580 O.2   230  THR230     -0.2863
     44  CB        17.1150    7.4360   76.5470 C.3   230  THR230      0.1794
     45  OG1       17.9200    6.5730   75.7360 O.3   230  THR230     -0.2208
     46  CG2       17.6180    7.3620   77.9830 C.3   230  THR230      0.0378
     47  N         11.5360    6.0770   78.2990 N.3   233  VAL233     -0.1245
     48  CA        11.6320    5.3480   79.5540 C.3   233  VAL233      0.1561
     49  C         11.8830    6.3220   80.6940 C.2   233  VAL233      0.2260
     50  O         11.6140    5.9930   81.8550 O.2   233  VAL233     -0.2867
     51  CB        12.7240    4.2680   79.4950 C.3   233  VAL233      0.0252
     52  CG1       12.5180    3.3840   78.2800 C.3   233  VAL233      0.0019
     53  CG2       14.1030    4.9000   79.4610 C.3   233  VAL233      0.0019
     54  N         18.7440    2.3630   88.7140 N.3   248  PHE248     -0.1241
     55  CA        18.1010    2.5450   87.4170 C.3   248  PHE248      0.1605
     56  C         18.2460    3.9870   86.9450 C.2   248  PHE248      0.2264
     57  O         18.4990    4.2340   85.7600 O.2   248  PHE248     -0.2867
     58  CB        16.6260    2.1530   87.4960 C.3   248  PHE248      0.0534
     59  CG        15.8710    2.3700   86.2140 C.ar  248  PHE248     -0.0203
     60  CD1       16.0460    1.5160   85.1370 C.ar  248  PHE248     -0.0042
     61  CD2       14.9830    3.4260   86.0870 C.ar  248  PHE248     -0.0042
     62  CE1       15.3520    1.7140   83.9570 C.ar  248  PHE248     -0.0003
     63  CE2       14.2850    3.6280   84.9090 C.ar  248  PHE248     -0.0003
     64  CZ        14.4700    2.7710   83.8440 C.ar  248  PHE248     -0.0000
     65  N         21.7620    4.4500   85.5610 N.3   251  SER251     -0.1202
     66  CA        21.9140    3.8890   84.2250 C.3   251  SER251      0.2020
     67  C         21.1940    4.7620   83.2050 C.2   251  SER251      0.2618
     68  O         21.7030    4.9930   82.1020 O.2   251  SER251     -0.2717
     69  CB        21.3780    2.4580   84.1890 C.3   251  SER251      0.2103
     70  OG        22.0550    1.6330   85.1220 O.3   251  SER251     -0.2182
     71  N         20.0090    5.2630   83.5670 N.am  252  LEU252     -0.1979
     72  CA        19.2400    6.1180   82.6720 C.3   252  LEU252      0.1596
     73  C         19.9200    7.4680   82.4770 C.2   252  LEU252      0.2287
     74  O         19.8340    8.0530   81.3920 O.2   252  LEU252     -0.2864
     75  CB        17.8260    6.3000   83.2260 C.3   252  LEU252      0.0297
     76  CG        16.7680    7.0170   82.3890 C.3   252  LEU252      0.0022
     77  CD1       15.4190    6.3510   82.5800 C.3   252  LEU252      0.0001
     78  CD2       16.6880    8.4850   82.7660 C.3   252  LEU252      0.0001
     79  N         22.7970    6.9360   80.0680 N.3   255  ALA255     -0.1245
     80  CA        22.2340    6.7040   78.7430 C.3   255  ALA255      0.1562
     81  C         21.8010    8.0160   78.1080 C.2   255  ALA255      0.2260
     82  O         21.9890    8.2250   76.9040 O.2   255  ALA255     -0.2867
     83  CB        21.0390    5.7630   78.8420 C.3   255  ALA255      0.0290
     84  N         23.5920    9.0050   74.7080 N.3   259  THR259     -0.1218
     85  CA        22.7380    9.0790   73.5270 C.3   259  THR259      0.1862
     86  C         22.6040   10.5150   73.0390 C.2   259  THR259      0.2287
     87  O         22.3400   10.7430   71.8520 O.2   259  THR259     -0.2866
     88  CB        21.3590    8.4840   73.8150 C.3   259  THR259      0.1770
     89  OG1       20.8060    9.0910   74.9890 O.3   259  THR259     -0.2211
     90  CG2       21.4580    6.9780   74.0150 C.3   259  THR259      0.0375
     91  N         25.4460   11.1140   70.8020 N.3   262  LEU262     -0.1245
     92  CA        25.2410   10.3630   69.5710 C.3   262  LEU262      0.1561
     93  C         24.3570   11.1340   68.5990 C.2   262  LEU262      0.2260
     94  O         24.6210   11.1520   67.3910 O.2   262  LEU262     -0.2867
     95  CB        24.6300    8.9990   69.8940 C.3   262  LEU262      0.0270
     96  CG        24.1890    8.1170   68.7250 C.3   262  LEU262      0.0019
     97  CD1       25.3890    7.6440   67.9210 C.3   262  LEU262      0.0001
     98  CD2       23.3760    6.9350   69.2280 C.3   262  LEU262      0.0001
@<TRIPOS>BOND
     1     8     6    1
     2    16    14    1
     3     6     5    1
     4     1     2    1
     5    14    13    1
     6     5     2    1
     7     5     7    1
     8    15    13    1
     9     2     3    1
    10    13    10    1
    11     9     3   am
    12     9    10    1
    13     3     4    2
    14    10    11    1
    15    11    12    2
    16    24    22    1
    17    21    22    1
    18    21    18    1
    19    17    18    1
    20    94    93    2
    21    97    96    1
    22    22    23    1
    23    18    19    1
    24    93    92    1
    25    31    30    1
    26    31    25    1
    27    96    98    1
    28    96    95    1
    29    30    29    1
    30    19    25   am
    31    19    20    2
    32    92    95    1
    33    92    91    1
    34    25    26    1
    35    29    26    1
    36    26    27    1
    37    39    37    1
    38    38    37    1
    39    87    86    2
    40    27    28    2
    41    37    36    1
    42    32    33    1
    43    36    33    1
    44    86    85    1
    45    33    34    1
    46    85    88    1
    47    85    84    1
    48    88    90    1
    49    88    89    1
    50    34    40   am
    51    34    35    2
    52    40    41    1
    53    45    44    1
    54    41    44    1
    55    41    42    1
    56    44    46    1
    57    82    81    2
    58    42    43    2
    59    81    80    1
    60    52    51    1
    61    47    48    1
    62    80    83    1
    63    80    79    1
    64    53    51    1
    65    51    48    1
    66    48    49    1
    67    49    50    2
    68    74    73    2
    69    68    67    2
    70    76    77    1
    71    76    78    1
    72    76    75    1
    73    73    72    1
    74    72    75    1
    75    72    71    1
    76    67    71   am
    77    67    66    1
    78    64    62   ar
    79    64    63   ar
    80    62    60   ar
    81    69    66    1
    82    69    70    1
    83    66    65    1
    84    63    61   ar
    85    60    59   ar
    86    57    56    2
    87    61    59   ar
    88    59    58    1
    89    56    55    1
    90    55    58    1
    91    55    54    1
