@<TRIPOS>MOLECULE
tmp/5wb6A00.pdb
 202 200 0 0 0
SMALL
GASTEIGER

@<TRIPOS>ATOM
      1  N         49.4250  -27.2750   37.1550 N.3    26  ARG26      -0.1231
      2  CA        49.1520  -25.9040   36.7150 C.3    26  ARG26       0.1694
      3  C         47.7000  -25.5520   37.0070 C.2    26  ARG26       0.2592
      4  O         46.8730  -26.4530   37.1100 O.2    26  ARG26      -0.2718
      5  CB        49.4740  -25.7190   35.2000 C.3    26  ARG26       0.0321
      6  CG        48.5420  -26.4690   34.2150 C.3    26  ARG26       0.0489
      7  CD        48.7220  -26.0240   32.7640 C.3    26  ARG26       0.2205
      8  NE        47.5180  -26.2660   31.9500 N.pl3  26  ARG26      -0.0865
      9  CZ        47.2730  -25.7070   30.7630 C.cat  26  ARG26       0.5346
     10  NH1       48.1440  -24.8560   30.2250 N.pl3  26  ARG26       0.1354
     11  NH2       46.1550  -25.9920   30.1070 N.pl3  26  ARG26       0.1354
     12  N         47.3880  -24.2430   37.0850 N.am   27  HIS27      -0.1962
     13  CA        46.0400  -23.7230   37.2470 C.3    27  HIS27       0.1787
     14  C         45.2980  -24.1080   35.9520 C.2    27  HIS27       0.2620
     15  O         45.8520  -23.9740   34.8490 O.2    27  HIS27      -0.2715
     16  CB        46.1190  -22.1960   37.3630 C.3    27  HIS27       0.0785
     17  CG        44.8110  -21.4840   37.1620 C.ar   27  HIS27       0.0821
     18  ND1       43.9410  -21.2530   38.2240 N.ar   27  HIS27      -0.2267
     19  CD2       44.2960  -20.9220   36.0390 C.ar   27  HIS27       0.1154
     20  CE1       42.9070  -20.6100   37.7080 C.ar   27  HIS27       0.1986
     21  NE2       43.0760  -20.3860   36.3920 N.ar   27  HIS27      -0.2212
     22  N         44.0550  -24.5550   36.0790 N.am   28  LEU28      -0.1963
     23  CA        43.2270  -24.9480   34.9390 C.3    28  LEU28       0.1728
     24  C         42.0600  -23.9900   34.7640 C.2    28  LEU28       0.2616
     25  O         41.8150  -23.4780   33.6600 O.2    28  LEU28      -0.2715
     26  CB        42.7070  -26.4020   35.1320 C.3    28  LEU28       0.0311
     27  CG        41.8560  -27.0140   34.0290 C.3    28  LEU28       0.0022
     28  CD1       42.6990  -27.3120   32.7970 C.3    28  LEU28       0.0001
     29  CD2       41.1010  -28.2690   34.5350 C.3    28  LEU28       0.0001
     30  N         41.3210  -23.7550   35.8430 N.am   29  CYS29      -0.1968
     31  CA        40.1290  -22.9170   35.7740 C.3    29  CYS29       0.1712
     32  C         39.8510  -22.3540   37.1320 C.2    29  CYS29       0.2296
     33  O         40.3600  -22.8690   38.1390 O.2    29  CYS29      -0.2864
     34  CB        38.9400  -23.7640   35.3060 C.3    29  CYS29       0.0983
     35  SG        38.8130  -23.9570   33.5000 S.3    29  CYS29      -0.0798
     36  N         33.5950  -26.5900   29.7840 N.3    44  HIS44      -0.1226
     37  CA        34.7300  -26.5620   28.8340 C.3    44  HIS44       0.1752
     38  C         36.0900  -26.7590   29.5010 C.2    44  HIS44       0.2596
     39  O         37.0610  -27.1120   28.8210 O.2    44  HIS44      -0.2718
     40  CB        34.7280  -25.3130   27.9330 C.3    44  HIS44       0.0759
     41  CG        35.2000  -24.0590   28.5900 C.ar   44  HIS44       0.0818
     42  ND1       34.3210  -23.0580   28.9190 N.ar   44  HIS44      -0.2268
     43  CD2       36.4520  -23.6630   28.9170 C.ar   44  HIS44       0.1154
     44  CE1       35.0480  -22.0880   29.4570 C.ar   44  HIS44       0.1986
     45  NE2       36.3350  -22.4110   29.4960 N.ar   44  HIS44      -0.2212
     46  N         36.1490  -26.5570   30.8260 N.am   45  CYS45      -0.1970
     47  CA        37.3710  -26.7230   31.6240 C.3    45  CYS45       0.1712
     48  C         37.9230  -28.1560   31.5580 C.2    45  CYS45       0.2296
     49  O         39.1320  -28.3510   31.6590 O.2    45  CYS45      -0.2864
     50  CB        37.1020  -26.3150   33.0660 C.3    45  CYS45       0.0983
     51  SG        36.8790  -24.5400   33.2970 S.3    45  CYS45      -0.0798
     52  N         37.8870  -30.2750   29.0010 N.3    47  TYR47      -0.1241
     53  CA        38.2460  -30.7940   27.6850 C.3    47  TYR47       0.1605
     54  C         39.5300  -31.6520   27.8240 C.2    47  TYR47       0.2264
     55  O         40.5420  -31.1850   28.3460 O.2    47  TYR47      -0.2867
     56  CB        38.4230  -29.6630   26.6360 C.3    47  TYR47       0.0534
     57  CG        38.7860  -30.2110   25.2720 C.ar   47  TYR47      -0.0201
     58  CD1       37.8050  -30.7190   24.4210 C.ar   47  TYR47      -0.0009
     59  CD2       40.1200  -30.3410   24.8820 C.ar   47  TYR47      -0.0009
     60  CE1       38.1380  -31.2770   23.1830 C.ar   47  TYR47       0.0417
     61  CE2       40.4640  -30.9110   23.6570 C.ar   47  TYR47       0.0417
     62  CZ        39.4680  -31.3600   22.8000 C.ar   47  TYR47       0.1957
     63  OH        39.7970  -31.9100   21.5790 O.3    47  TYR47      -0.2866
     64  N         44.7830  -14.3740   32.2740 N.3   134  TYR134     -0.1241
     65  CA        45.5650  -13.4100   31.4910 C.3   134  TYR134      0.1605
     66  C         45.0120  -11.9890   31.5950 C.2   134  TYR134      0.2264
     67  O         43.7950  -11.7990   31.7320 O.2   134  TYR134     -0.2867
     68  CB        45.4990  -13.8340   30.0170 C.3   134  TYR134      0.0534
     69  CG        46.2850  -15.0590   29.6010 C.ar  134  TYR134     -0.0201
     70  CD1       46.6860  -16.0120   30.5360 C.ar  134  TYR134     -0.0009
     71  CD2       46.5660  -15.3070   28.2540 C.ar  134  TYR134     -0.0009
     72  CE1       47.3480  -17.1760   30.1460 C.ar  134  TYR134      0.0417
     73  CE2       47.2400  -16.4650   27.8540 C.ar  134  TYR134      0.0417
     74  CZ        47.6150  -17.3980   28.8030 C.ar  134  TYR134      0.1957
     75  OH        48.2730  -18.5350   28.4110 O.3   134  TYR134     -0.2866
     76  N         45.3020  -11.0220   25.6300 N.3   137  LEU137     -0.1245
     77  CA        45.2670  -12.2750   24.8760 C.3   137  LEU137      0.1561
     78  C         46.5500  -13.0910   24.9250 C.2   137  LEU137      0.2260
     79  O         46.4830  -14.3040   25.1130 O.2   137  LEU137     -0.2867
     80  CB        44.8310  -12.0370   23.4280 C.3   137  LEU137      0.0270
     81  CG        43.9420  -13.0980   22.7740 C.3   137  LEU137      0.0019
     82  CD1       42.9890  -13.7600   23.7550 C.3   137  LEU137      0.0001
     83  CD2       43.1700  -12.4890   21.6450 C.3   137  LEU137      0.0001
     84  N         50.0000  -14.4700   30.6410 N.3   140  LYS140     -0.1231
     85  CA        50.2480  -15.5930   31.5200 C.3   140  LYS140      0.1693
     86  C         49.3370  -15.5130   32.7410 C.2   140  LYS140      0.2591
     87  O         48.7460  -14.4640   33.0070 O.2   140  LYS140     -0.2718
     88  CB        51.7480  -15.6440   31.9110 C.3   140  LYS140      0.0285
     89  CG        52.2800  -14.4160   32.6700 C.3   140  LYS140      0.0035
     90  CD        53.6680  -14.6710   33.2790 C.3   140  LYS140      0.0206
     91  CE        54.8220  -14.3410   32.3410 C.3   140  LYS140      0.1093
     92  NZ        56.1580  -14.4060   33.0100 N.3   140  LYS140     -0.1314
     93  N         49.2060  -16.6390   33.4620 N.am  141  ILE141     -0.1980
     94  CA        48.4350  -16.7790   34.7020 C.3   141  ILE141      0.1595
     95  C         49.0140  -15.7950   35.7190 C.2   141  ILE141      0.2287
     96  O         50.2340  -15.6880   35.8490 O.2   141  ILE141     -0.2864
     97  CB        48.4130  -18.2710   35.2040 C.3   141  ILE141      0.0276
     98  CG1       47.6050  -19.1730   34.2580 C.3   141  ILE141      0.0022
     99  CG2       47.9280  -18.4490   36.6720 C.3   141  ILE141      0.0022
    100  CD1       46.2010  -18.7090   33.8610 C.3   141  ILE141      0.0001
    101  N         37.3910   -7.0480   31.4230 N.3   182  ASP182     -0.1225
    102  CA        36.7950   -8.3490   31.0620 C.3   182  ASP182      0.1805
    103  C         37.5640   -9.4970   31.6980 C.2   182  ASP182      0.2598
    104  O         38.6740   -9.3130   32.2070 O.2   182  ASP182     -0.2718
    105  CB        36.9780   -8.5430   29.5140 C.3   182  ASP182      0.1424
    106  CG        36.0590   -9.5140   28.7840 C.2   182  ASP182      0.3668
    107  OD1       35.1050  -10.0330   29.4190 O.co2 182  ASP182     -0.2456
    108  OD2       36.2600   -9.7150   27.5680 O.co2 182  ASP182     -0.2456
    109  N         37.0310  -10.7120   31.5050 N.am  183  ALA183     -0.1966
    110  CA        37.6760  -11.9790   31.8040 C.3   183  ALA183      0.1728
    111  C         38.6150  -12.2700   30.6210 C.2   183  ALA183      0.2616
    112  O         38.4640  -11.6910   29.5380 O.2   183  ALA183     -0.2715
    113  CB        36.6250  -13.0660   31.8940 C.3   183  ALA183      0.0334
    114  N         39.5740  -13.1700   30.8120 N.am  184  CYS184     -0.1954
    115  CA        40.4630  -13.6030   29.7250 C.3   184  CYS184      0.1843
    116  C         40.9160  -15.0510   30.0140 C.2   184  CYS184      0.2625
    117  O         40.3670  -15.6730   30.9180 O.2   184  CYS184     -0.2714
    118  CB        41.6320  -12.6310   29.5340 C.3   184  CYS184      0.0997
    119  SG        42.4840  -12.7670   27.9350 S.3   184  CYS184     -0.0797
    120  N         41.8270  -15.6170   29.2070 N.am  185  LYS185     -0.1963
    121  CA        42.2800  -17.0080   29.3410 C.3   185  LYS185      0.1728
    122  C         42.6800  -17.3940   30.7340 C.2   185  LYS185      0.2616
    123  O         43.5570  -16.7600   31.3190 O.2   185  LYS185     -0.2715
    124  CB        43.3970  -17.3030   28.3650 C.3   185  LYS185      0.0311
    125  CG        42.9190  -17.2360   26.9400 C.3   185  LYS185      0.0038
    126  CD        44.0340  -17.5970   25.9830 C.3   185  LYS185      0.0206
    127  CE        43.5680  -17.4540   24.5640 C.3   185  LYS185      0.1093
    128  NZ        44.4690  -18.1710   23.6440 N.3   185  LYS185     -0.1314
    129  N         42.0350  -18.4250   31.2640 N.am  186  GLY186     -0.1955
    130  CA        42.3110  -18.8990   32.6200 C.3   186  GLY186      0.1869
    131  C         41.3400  -18.4230   33.6800 C.2   186  GLY186      0.2309
    132  O         41.3960  -18.8860   34.8240 O.2   186  GLY186     -0.2863
    133  N         37.9500  -18.6690   33.1410 N.3   188  SER188     -0.1217
    134  CA        36.7320  -19.4620   32.9320 C.3   188  SER188      0.1889
    135  C         36.4540  -20.4400   34.0550 C.2   188  SER188      0.2288
    136  O         37.3860  -20.9530   34.6910 O.2   188  SER188     -0.2866
    137  CB        36.7360  -20.1540   31.5830 C.3   188  SER188      0.2089
    138  OG        37.7000  -21.1970   31.5610 O.3   188  SER188     -0.2183
    139  N         32.0550  -17.5200   34.1320 N.3   206  THR206     -0.1203
    140  CA        32.8760  -17.0440   33.0190 C.3   206  THR206      0.1994
    141  C         32.9750  -18.1420   31.9730 C.2   206  THR206      0.2619
    142  O         33.4050  -19.2550   32.2840 O.2   206  THR206     -0.2717
    143  CB        34.2310  -16.6240   33.5540 C.3   206  THR206      0.1784
    144  OG1       34.0090  -15.6500   34.5730 O.3   206  THR206     -0.2211
    145  CG2       35.1720  -16.1060   32.4420 C.3   206  THR206      0.0376
    146  N         32.5490  -17.8380   30.7450 N.am  207  SER207     -0.1937
    147  CA        32.4960  -18.8470   29.6930 C.3   207  SER207      0.2055
    148  C         33.3290  -18.4860   28.4760 C.2   207  SER207      0.2643
    149  O         34.3600  -19.1220   28.2280 O.2   207  SER207     -0.2714
    150  CB        31.0370  -19.1540   29.3260 C.3   207  SER207      0.2130
    151  OG        30.9370  -20.2140   28.3910 O.3   207  SER207     -0.2179
    152  N         32.8870  -17.5020   27.6950 N.am  208  TRP208     -0.1959
    153  CA        33.6460  -17.1620   26.4700 C.3   208  TRP208      0.1771
    154  C         33.4680  -15.6970   26.0170 C.2   208  TRP208      0.2620
    155  O         32.6150  -14.9900   26.5290 O.2   208  TRP208     -0.2715
    156  CB        33.2500  -18.1500   25.3360 C.3   208  TRP208      0.0590
    157  CG        31.8090  -18.0220   24.9110 C.ar  208  TRP208      0.0006
    158  CD1       30.7160  -18.5740   25.5120 C.ar  208  TRP208      0.0946
    159  CD2       31.3160  -17.2520   23.7990 C.ar  208  TRP208      0.0152
    160  NE1       29.5700  -18.2140   24.8360 N.ar  208  TRP208     -0.2442
    161  CE2       29.9150  -17.4250   23.7590 C.ar  208  TRP208      0.0810
    162  CE3       31.9360  -16.4680   22.8020 C.ar  208  TRP208      0.0012
    163  CZ2       29.1100  -16.7800   22.8040 C.ar  208  TRP208      0.0191
    164  CZ3       31.1380  -15.8430   21.8450 C.ar  208  TRP208      0.0001
    165  CH2       29.7460  -16.0170   21.8470 C.ar  208  TRP208      0.0015
    166  N         34.2590  -15.2840   25.0400 N.am  209  GLY209     -0.1954
    167  CA        34.1320  -13.9930   24.3700 C.3   209  GLY209      0.1869
    168  C         34.9730  -13.9880   23.1050 C.2   209  GLY209      0.2309
    169  O         35.8070  -14.8850   22.9210 O.2   209  GLY209     -0.2863
    170  N         37.9650  -12.5320   21.7030 N.3   211  GLY211     -0.1210
    171  CA        39.1130  -11.8080   22.2570 C.3   211  GLY211      0.1956
    172  C         38.8540  -11.4670   23.7290 C.2   211  GLY211      0.2612
    173  O         37.8900  -11.9700   24.3180 O.2   211  GLY211     -0.2717
    174  N         39.6960  -10.6050   24.3290 N.am  212  CYS212     -0.1970
    175  CA        39.5560  -10.1670   25.7260 C.3   212  CYS212      0.1712
    176  C         39.3570   -8.6490   25.7910 C.2   212  CYS212      0.2296
    177  O         40.1230   -7.9140   25.1670 O.2   212  CYS212     -0.2864
    178  CB        40.7690  -10.5990   26.5440 C.3   212  CYS212      0.0983
    179  SG        41.0610  -12.3810   26.5180 S.3   212  CYS212     -0.0798
    180  N         31.8080  -10.0500   27.5150 N.3   219  GLY219     -0.1210
    181  CA        32.1440  -11.3860   27.9590 C.3   219  GLY219      0.1956
    182  C         30.8300  -12.1350   28.0830 C.2   219  GLY219      0.2612
    183  O         29.8170  -11.5290   28.4320 O.2   219  GLY219     -0.2717
    184  N         30.8160  -13.4350   27.7160 N.am  220  VAL220     -0.1965
    185  CA        29.6320  -14.2920   27.7730 C.3   220  VAL220      0.1727
    186  C         29.7780  -15.2760   28.9290 C.2   220  VAL220      0.2616
    187  O         30.8190  -15.9180   29.0910 O.2   220  VAL220     -0.2715
    188  CB        29.2450  -14.9420   26.4190 C.3   220  VAL220      0.0290
    189  CG1       27.8580  -15.5850   26.5160 C.3   220  VAL220      0.0023
    190  CG2       29.2700  -13.8920   25.2780 C.3   220  VAL220      0.0023
    191  N         28.7450  -15.3110   29.7840 N.am  221  TYR221     -0.1974
    192  CA        28.6930  -16.0850   31.0160 C.3   221  TYR221      0.1639
    193  C         27.5150  -17.0250   31.0210 C.2   221  TYR221      0.2290
    194  O         26.4820  -16.6940   30.4440 O.2   221  TYR221     -0.2864
    195  CB        28.5570  -15.1100   32.2220 C.3   221  TYR221      0.0560
    196  CG        29.7190  -14.1370   32.3770 C.ar  221  TYR221     -0.0198
    197  CD1       29.8230  -13.0030   31.5730 C.ar  221  TYR221     -0.0009
    198  CD2       30.7130  -14.3520   33.3290 C.ar  221  TYR221     -0.0009
    199  CE1       30.9030  -12.1300   31.6920 C.ar  221  TYR221      0.0417
    200  CE2       31.8000  -13.4870   33.4540 C.ar  221  TYR221      0.0417
    201  CZ        31.8900  -12.3740   32.6360 C.ar  221  TYR221      0.1957
    202  OH        32.9710  -11.5240   32.7560 O.3   221  TYR221     -0.2866
@<TRIPOS>BOND
     1    63    62    1
     2    83    81    1
     3   170   171    1
     4   164   165   ar
     5   164   162   ar
     6   165   163   ar
     7   171   172    1
     8    81    80    1
     9    81    82    1
    10    62    60   ar
    11    62    61   ar
    12   162   159   ar
    13   163   161   ar
    14   169   168    2
    15   168   167    1
    16    60    58   ar
    17    80    77    1
    18   128   127    1
    19    61    59   ar
    20   172   173    2
    21   172   174   am
    22   161   159   ar
    23   161   160   ar
    24   159   157   ar
    25   174   175    1
    26   167   166    1
    27    58    57   ar
    28   127   126    1
    29   160   158   ar
    30    77    78    1
    31    77    76    1
    32    59    57   ar
    33   157   156    1
    34   157   158   ar
    35    78    79    2
    36   166   154   am
    37   177   176    2
    38    57    56    1
    39   190   188    1
    40   156   153    1
    41   175   176    1
    42   175   178    1
    43   126   125    1
    44   154   153    1
    45   154   155    2
    46   188   189    1
    47   188   185    1
    48   153   152    1
    49   179   178    1
    50   179   119    1
    51    56    53    1
    52   125   124    1
    53   180   181    1
    54   108   106   ar
    55    53    54    1
    56    53    52    1
    57   152   148   am
    58   184   185    1
    59   184   182   am
    60   185   186    1
    61    54    55    2
    62    73    71   ar
    63    73    74   ar
    64    40    41    1
    65    40    37    1
    66   119   118    1
    67   181   182    1
    68   182   183    2
    69   149   148    2
    70    71    69   ar
    71   124   121    1
    72   151   150    1
    73    75    74    1
    74   148   147    1
    75    41    43   ar
    76    41    42   ar
    77   106   107   ar
    78   106   105    1
    79    74    72   ar
    80    39    38    2
    81    37    38    1
    82    37    36    1
    83    43    45   ar
    84    42    44   ar
    85   186   187    2
    86   186   191   am
    87   120   121    1
    88   120   116   am
    89   150   147    1
    90   121   122    1
    91    44    45   ar
    92    38    46   am
    93   105   102    1
    94   118   115    1
    95   112   111    2
    96    69    68    1
    97    69    70   ar
    98   147   146    1
    99   115   116    1
   100   115   114    1
   101   191   192    1
   102   116   117    2
   103    68    65    1
   104    11     9    1
   105    72    70   ar
   106    10     9    1
   107   194   193    2
   108   111   114   am
   109   111   110    1
   110    84    85    1
   111   122   129   am
   112   122   123    2
   113   146   141   am
   114     9     8    2
   115    46    47    1
   116   192   193    1
   117   192   195    1
   118   102   101    1
   119   102   103    1
   120   129   130    1
   121    65    66    1
   122    65    64    1
   123   109   103   am
   124   109   110    1
   125    85    88    1
   126    85    86    1
   127    48    47    1
   128    48    49    2
   129   138   137    1
   130   197   199   ar
   131   197   196   ar
   132   137   134    1
   133    66    67    2
   134    47    50    1
   135   199   201   ar
   136   103   104    2
   137   110   113    1
   138    88    89    1
   139     8     7    1
   140   141   142    2
   141   141   140    1
   142   195   196    1
   143    91    92    1
   144    91    90    1
   145   196   198   ar
   146   145   143    1
   147   130   131    1
   148   201   202    1
   149   201   200   ar
   150    89    90    1
   151    86    87    2
   152    86    93   am
   153     7     6    1
   154    28    27    1
   155   134   133    1
   156   134   135    1
   157   140   143    1
   158   140   139    1
   159    50    51    1
   160    51    35    1
   161   198   200   ar
   162    93    94    1
   163    35    34    1
   164   143   144    1
   165    25    24    2
   166   131   132    2
   167   100    98    1
   168    27    29    1
   169    27    26    1
   170   135   136    2
   171     6     5    1
   172    98    97    1
   173    94    97    1
   174    94    95    1
   175    24    23    1
   176    24    30   am
   177    15    14    2
   178    23    26    1
   179    23    22    1
   180     5     2    1
   181    97    99    1
   182    34    31    1
   183    95    96    2
   184    31    30    1
   185    31    32    1
   186    14    22   am
   187    14    13    1
   188    19    21   ar
   189    19    17   ar
   190    21    20   ar
   191     2     3    1
   192     2     1    1
   193     3    12   am
   194     3     4    2
   195    12    13    1
   196    32    33    2
   197    17    16    1
   198    17    18   ar
   199    13    16    1
   200    20    18   ar
