@<TRIPOS>MOLECULE
tmp/5wb9A08.pdb
 138 136 0 0 0
SMALL
GASTEIGER

@<TRIPOS>ATOM
      1  N          8.0620    4.0160   54.2260 N.3    68  TRP68      -0.1241
      2  CA         8.4950    2.6800   54.6260 C.3    68  TRP68       0.1605
      3  C          9.9700    2.6230   54.9950 C.2    68  TRP68       0.2264
      4  O         10.3120    2.0930   56.0730 O.2    68  TRP68      -0.2867
      5  CB         8.1690    1.6590   53.5420 C.3    68  TRP68       0.0550
      6  CG         6.7650    1.1020   53.6150 C.ar   68  TRP68       0.0003
      7  CD1        5.6080    1.7960   53.5910 C.ar   68  TRP68       0.0946
      8  CD2        6.3980   -0.2810   53.6630 C.ar   68  TRP68       0.0152
      9  NE1        4.5290    0.9370   53.6430 N.ar   68  TRP68      -0.2442
     10  CE2        4.9960   -0.3460   53.6750 C.ar   68  TRP68       0.0810
     11  CE3        7.1300   -1.4810   53.6840 C.ar   68  TRP68       0.0012
     12  CZ2        4.3040   -1.5530   53.7330 C.ar   68  TRP68       0.0191
     13  CZ3        6.4470   -2.6910   53.7310 C.ar   68  TRP68       0.0001
     14  CH2        5.0420   -2.7160   53.7520 C.ar   68  TRP68       0.0015
     15  N         -0.1610   -1.7140   51.0810 N.3   137  VAL137     -0.1245
     16  CA         0.7030   -2.4000   50.1430 C.3   137  VAL137      0.1561
     17  C          0.4890   -3.9030   50.2930 C.2   137  VAL137      0.2260
     18  O          1.0280   -4.5390   51.1590 O.2   137  VAL137     -0.2867
     19  CB         2.1780   -1.8660   50.0550 C.3   137  VAL137      0.0252
     20  CG1        2.5450   -0.8890   51.1370 C.3   137  VAL137      0.0019
     21  CG2        3.2230   -2.9760   49.9470 C.3   137  VAL137      0.0019
     22  N         -0.3960   -7.5170   47.5090 N.3   139  THR139     -0.1218
     23  CA        -0.4540   -8.1320   46.1770 C.3   139  THR139      0.1862
     24  C         -1.7350   -8.9420   45.9930 C.2   139  THR139      0.2287
     25  O         -2.4050   -9.3120   46.9490 O.2   139  THR139     -0.2866
     26  CB         0.7300   -9.1010   45.9300 C.3   139  THR139      0.1770
     27  OG1        0.7660  -10.1240   46.9310 O.3   139  THR139     -0.2211
     28  CG2        2.0480   -8.3370   45.9430 C.3   139  THR139      0.0375
     29  N          6.2150  -12.9710   47.2170 N.3   228  GLU228     -0.1231
     30  CA         5.4040  -11.7560   47.4350 C.3   228  GLU228      0.1699
     31  C          4.2100  -11.6720   46.4870 C.2   228  GLU228      0.2592
     32  O          3.1490  -11.1440   46.8470 O.2   228  GLU228     -0.2718
     33  CB         6.2620  -10.5050   47.2740 C.3   228  GLU228      0.0402
     34  CG         7.2180  -10.2200   48.4260 C.3   228  GLU228      0.1161
     35  CD         8.4600  -11.0580   48.3880 C.2   228  GLU228      0.3649
     36  OE1        8.9400  -11.4480   49.4790 O.co2 228  GLU228     -0.2457
     37  OE2        8.9370  -11.3330   47.2640 O.co2 228  GLU228     -0.2457
     38  N          4.3890  -12.1870   45.2830 N.am  229  ILE229     -0.1980
     39  CA         3.3340  -12.1460   44.2930 C.3   229  ILE229      0.1595
     40  C          2.7040  -13.4860   43.9890 C.2   229  ILE229      0.2287
     41  O          1.5700  -13.4950   43.5640 O.2   229  ILE229     -0.2864
     42  CB         3.7830  -11.4580   42.9820 C.3   229  ILE229      0.0276
     43  CG1        4.9270  -12.2210   42.3130 C.3   229  ILE229      0.0022
     44  CG2        4.1590  -10.0050   43.2700 C.3   229  ILE229      0.0022
     45  CD1        5.0580  -11.8860   40.8170 C.3   229  ILE229      0.0001
     46  N         -0.1010  -11.1550   49.6860 N.3   233  SER233     -0.1202
     47  CA         0.9200  -10.6750   50.5770 C.3   233  SER233      0.2020
     48  C          0.5720   -9.2590   51.0460 C.2   233  SER233      0.2618
     49  O          0.1210   -8.4340   50.2750 O.2   233  SER233     -0.2717
     50  CB         2.2490  -10.7490   49.8220 C.3   233  SER233      0.2103
     51  OG         3.1900  -11.4320   50.6200 O.3   233  SER233     -0.2182
     52  N          0.7770   -9.0120   52.3300 N.am  234  PHE234     -0.1975
     53  CA         0.2710   -7.8230   53.0130 C.3   234  PHE234      0.1639
     54  C          0.8710   -7.7310   54.4110 C.2   234  PHE234      0.2290
     55  O          1.4870   -8.6760   54.9080 O.2   234  PHE234     -0.2864
     56  CB        -1.2660   -7.8080   53.0960 C.3   234  PHE234      0.0560
     57  CG        -1.8530   -9.0030   53.7830 C.ar  234  PHE234     -0.0200
     58  CD1       -1.9900  -10.2190   53.0980 C.ar  234  PHE234     -0.0042
     59  CD2       -2.3020   -8.9260   55.1460 C.ar  234  PHE234     -0.0042
     60  CE1       -2.5240  -11.3390   53.7430 C.ar  234  PHE234     -0.0003
     61  CE2       -2.8470  -10.0520   55.7900 C.ar  234  PHE234     -0.0003
     62  CZ        -2.9680  -11.2500   55.0920 C.ar  234  PHE234     -0.0000
     63  N          4.6430   -9.4020   58.3410 N.3   240  PHE240     -0.1227
     64  CA         4.4470   -9.6300   56.9080 C.3   240  PHE240      0.1736
     65  C          3.7750  -10.9780   56.6400 C.2   240  PHE240      0.2595
     66  O          4.4290  -12.0150   56.7860 O.2   240  PHE240     -0.2718
     67  CB         5.7980   -9.5540   56.1980 C.3   240  PHE240      0.0547
     68  CG         6.3790   -8.1890   56.2080 C.ar  240  PHE240     -0.0202
     69  CD1        5.9880   -7.2580   55.2650 C.ar  240  PHE240     -0.0042
     70  CD2        7.2710   -7.8150   57.1860 C.ar  240  PHE240     -0.0042
     71  CE1        6.5230   -5.9760   55.2790 C.ar  240  PHE240     -0.0003
     72  CE2        7.8050   -6.5310   57.2180 C.ar  240  PHE240     -0.0003
     73  CZ         7.4360   -5.5990   56.2690 C.ar  240  PHE240     -0.0000
     74  N          2.4920  -10.9760   56.2550 N.am  241  PHE241     -0.1962
     75  CA         1.7540  -12.2330   55.9670 C.3   241  PHE241      0.1771
     76  C          1.9110  -12.6340   54.5200 C.2   241  PHE241      0.2619
     77  O          1.8720  -11.7820   53.6260 O.2   241  PHE241     -0.2715
     78  CB         0.2340  -12.0970   56.2360 C.3   241  PHE241      0.0574
     79  CG        -0.1770  -12.2160   57.6950 C.ar  241  PHE241     -0.0200
     80  CD1        0.3580  -11.3790   58.6700 C.ar  241  PHE241     -0.0042
     81  CD2       -1.1660  -13.1100   58.0620 C.ar  241  PHE241     -0.0042
     82  CE1       -0.0820  -11.4530   60.0000 C.ar  241  PHE241     -0.0003
     83  CE2       -1.6080  -13.1930   59.3820 C.ar  241  PHE241     -0.0003
     84  CZ        -1.0670  -12.3640   60.3650 C.ar  241  PHE241     -0.0000
     85  N          2.0340  -13.9390   54.2930 N.am  242  TYR242     -0.1974
     86  CA         2.0710  -14.5330   52.9490 C.3   242  TYR242      0.1639
     87  C          0.9860  -15.6050   52.8970 C.2   242  TYR242      0.2290
     88  O          1.0790  -16.5780   53.5920 O.2   242  TYR242     -0.2864
     89  CB         3.4540  -15.1530   52.6980 C.3   242  TYR242      0.0560
     90  CG         4.5860  -14.1380   52.4870 C.ar  242  TYR242     -0.0198
     91  CD1        5.0780  -13.3680   53.5430 C.ar  242  TYR242     -0.0009
     92  CD2        5.2010  -13.9750   51.2340 C.ar  242  TYR242     -0.0009
     93  CE1        6.1250  -12.4780   53.3490 C.ar  242  TYR242      0.0417
     94  CE2        6.2350  -13.0840   51.0400 C.ar  242  TYR242      0.0417
     95  CZ         6.6880  -12.3360   52.0750 C.ar  242  TYR242      0.1957
     96  OH         7.6960  -11.4470   51.8610 O.3   242  TYR242     -0.2866
     97  N         12.0150  -11.0710   53.8020 N.3   272  ILE272     -0.1231
     98  CA        11.2350  -10.6520   52.6540 C.3   272  ILE272      0.1692
     99  C         12.1060   -9.9700   51.5830 C.2   272  ILE272      0.2592
    100  O         13.2150   -9.4920   51.8620 O.2   272  ILE272     -0.2718
    101  CB        10.0940   -9.7100   53.0900 C.3   272  ILE272      0.0266
    102  CG1       10.6490   -8.3540   53.4950 C.3   272  ILE272      0.0019
    103  CG2        9.3120  -10.3270   54.2440 C.3   272  ILE272      0.0020
    104  CD1        9.6430   -7.4520   54.1790 C.3   272  ILE272      0.0001
    105  N         11.5750   -9.9160   50.3570 N.am  273  ASN273     -0.1974
    106  CA        12.1380   -9.0550   49.2700 C.3   273  ASN273      0.1688
    107  C         11.6000   -7.6570   49.4380 C.2   273  ASN273      0.2292
    108  O         10.4200   -7.4790   49.6530 O.2   273  ASN273     -0.2864
    109  CB        11.7560   -9.5870   47.8960 C.3   273  ASN273      0.1181
    110  CG        12.3120  -10.9550   47.6650 C.2   273  ASN273      0.2629
    111  OD1       13.5230  -11.1470   47.8150 O.2   273  ASN273     -0.2716
    112  ND2       11.4490  -11.9260   47.3300 N.am  273  ASN273     -0.0877
    113  N         10.0930   -4.2360   48.5220 N.3   275  TRP275     -0.1241
    114  CA         9.3990   -3.6360   47.3940 C.3   275  TRP275      0.1605
    115  C          9.9400   -2.2870   46.9880 C.2   275  TRP275      0.2264
    116  O          9.6610   -1.8530   45.8800 O.2   275  TRP275     -0.2867
    117  CB         7.8860   -3.5430   47.6130 C.3   275  TRP275      0.0550
    118  CG         7.4360   -2.4990   48.5520 C.ar  275  TRP275      0.0003
    119  CD1        7.2720   -2.6460   49.8840 C.ar  275  TRP275      0.0946
    120  CD2        7.0430   -1.1530   48.2350 C.ar  275  TRP275      0.0152
    121  NE1        6.8260   -1.4670   50.4310 N.ar  275  TRP275     -0.2442
    122  CE2        6.6670   -0.5400   49.4420 C.ar  275  TRP275      0.0810
    123  CE3        6.9690   -0.4190   47.0560 C.ar  275  TRP275      0.0012
    124  CZ2        6.2490    0.7680   49.5110 C.ar  275  TRP275      0.0191
    125  CZ3        6.5340    0.8690   47.1110 C.ar  275  TRP275      0.0001
    126  CH2        6.1870    1.4670   48.3310 C.ar  275  TRP275      0.0015
    127  N          2.3000   -6.5520   42.4380 N.3   321  GLY321     -0.1225
    128  CA         3.6740   -6.4180   42.9310 C.3   321  GLY321      0.1811
    129  C          4.3080   -5.1620   42.3950 C.2   321  GLY321      0.2280
    130  O          5.4000   -4.7710   42.8690 O.2   321  GLY321     -0.2866
    131  N          3.3410   -1.8360   42.8660 N.3   323  ILE323     -0.1245
    132  CA         2.6020   -1.1680   43.9340 C.3   323  ILE323      0.1561
    133  C          1.9400    0.0920   43.3740 C.2   323  ILE323      0.2260
    134  O          0.8740    0.4540   43.8000 O.2   323  ILE323     -0.2867
    135  CB         3.5870   -0.8730   45.0980 C.3   323  ILE323      0.0252
    136  CG1        4.1360   -2.2060   45.6420 C.3   323  ILE323      0.0019
    137  CG2        2.9530   -0.0260   46.1940 C.3   323  ILE323      0.0019
    138  CD1        3.0860   -3.2580   46.0200 C.3   323  ILE323      0.0001
@<TRIPOS>BOND
     1    45    43    1
     2    43    42    1
     3   129   130    2
     4   129   128    1
     5   127   128    1
     6   131   132    1
     7    42    44    1
     8    42    39    1
     9   133   134    2
    10   133   132    1
    11    41    40    2
    12   132   135    1
    13    40    39    1
    14    39    38    1
    15   135   136    1
    16   135   137    1
    17    38    31   am
    18   136   138    1
    19   116   115    2
    20    26    28    1
    21    26    23    1
    22    26    27    1
    23    24    23    1
    24    24    25    2
    25    23    22    1
    26    31    32    2
    27    31    30    1
    28   115   114    1
    29   123   125   ar
    30   123   120   ar
    31   125   126   ar
    32    29    30    1
    33    37    35   ar
    34    33    30    1
    35    33    34    1
    36   112   110   am
    37   114   117    1
    38   114   113    1
    39   117   118    1
    40   110   111    2
    41   110   109    1
    42   109   106    1
    43   120   118   ar
    44   120   122   ar
    45   126   124   ar
    46    35    34    1
    47    35    36   ar
    48   118   119   ar
    49   106   107    1
    50   106   105    1
    51   107   108    2
    52   122   124   ar
    53   122   121   ar
    54    46    47    1
    55    50    47    1
    56    50    51    1
    57   119   121   ar
    58    21    19    1
    59    19    16    1
    60    19    20    1
    61    16    17    1
    62    16    15    1
    63    49    48    2
    64    17    18    2
    65   105    99   am
    66    47    48    1
    67    94    92   ar
    68    94    95   ar
    69    48    52   am
    70    92    90   ar
    71    99   100    2
    72    99    98    1
    73    96    95    1
    74    95    93   ar
    75    52    53    1
    76    90    89    1
    77    90    91   ar
    78    98   101    1
    79    98    97    1
    80    89    86    1
    81    87    86    1
    82    87    88    2
    83    86    85    1
    84    53    56    1
    85    53    54    1
    86   101   102    1
    87   101   103    1
    88    56    57    1
    89    58    60   ar
    90    58    57   ar
    91    93    91   ar
    92   102   104    1
    93     5     6    1
    94     5     2    1
    95     7     6   ar
    96     7     9   ar
    97     6     8   ar
    98    77    76    2
    99     9    10   ar
   100     8    10   ar
   101     8    11   ar
   102    10    12   ar
   103    11    13   ar
   104    13    14   ar
   105    12    14   ar
   106    60    62   ar
   107    57    59   ar
   108     1     2    1
   109    85    76   am
   110    54    55    2
   111    76    75    1
   112     2     3    1
   113     3     4    2
   114    62    61   ar
   115    59    61   ar
   116    69    71   ar
   117    69    68   ar
   118    71    73   ar
   119    75    78    1
   120    75    74    1
   121    67    68    1
   122    67    64    1
   123    68    70   ar
   124    78    79    1
   125    74    65   am
   126    73    72   ar
   127    65    66    2
   128    65    64    1
   129    64    63    1
   130    70    72   ar
   131    79    81   ar
   132    79    80   ar
   133    81    83   ar
   134    80    82   ar
   135    83    84   ar
   136    82    84   ar
