@<TRIPOS>MOLECULE
tmp/5wbbA00.pdb
 78 72 0 0 0
SMALL
GASTEIGER

@<TRIPOS>ATOM
      1  N         16.8180   29.6340  -15.8240 N.3    39  GLY39      -0.1210
      2  CA        17.7600   28.5690  -16.0290 C.3    39  GLY39       0.1956
      3  C         17.2490   27.5400  -17.0070 C.2    39  GLY39       0.2611
      4  O         16.2530   27.7470  -17.7190 O.2    39  GLY39      -0.2717
      5  N         17.9690   26.4290  -17.0470 N.am   40  ASN40      -0.1974
      6  CA        17.6860   25.3410  -17.9810 C.3    40  ASN40       0.1688
      7  C         16.6200   24.4430  -17.3690 C.2    40  ASN40       0.2292
      8  O         16.9060   23.3600  -16.8700 O.2    40  ASN40      -0.2864
      9  CB        18.9640   24.5670  -18.3070 C.3    40  ASN40       0.1181
     10  CG        18.7640   23.5680  -19.4330 C.2    40  ASN40       0.2629
     11  OD1       17.7140   23.5570  -20.0820 O.2    40  ASN40      -0.2716
     12  ND2       19.7520   22.7150  -19.6510 N.am   40  ASN40      -0.0877
     13  N         17.4670   18.3780  -11.6570 N.3    70  TRP70      -0.1241
     14  CA        16.8470   19.0910  -12.7940 C.3    70  TRP70       0.1605
     15  C         16.6040   18.2060  -14.0170 C.2    70  TRP70       0.2264
     16  O         16.9340   18.5670  -15.1600 O.2    70  TRP70      -0.2867
     17  CB        17.6510   20.3570  -13.1250 C.3    70  TRP70       0.0550
     18  CG        17.6680   21.3140  -11.9830 C.ar   70  TRP70       0.0003
     19  CD1       18.7010   21.5500  -11.1200 C.ar   70  TRP70       0.0946
     20  CD2       16.5900   22.1440  -11.5550 C.ar   70  TRP70       0.0152
     21  NE1       18.3420   22.4730  -10.1800 N.ar   70  TRP70      -0.2442
     22  CE2       17.0390   22.8440  -10.4020 C.ar   70  TRP70       0.0810
     23  CE3       15.2790   22.3490  -12.0050 C.ar   70  TRP70       0.0012
     24  CZ2       16.2340   23.7680   -9.7320 C.ar   70  TRP70       0.0191
     25  CZ3       14.4800   23.2570  -11.3390 C.ar   70  TRP70       0.0001
     26  CH2       14.9530   23.9450  -10.1950 C.ar   70  TRP70       0.0015
     27  N         18.9650   18.9920  -17.2000 N.3    77  ALA77      -0.1245
     28  CA        20.0460   19.9410  -17.0670 C.3    77  ALA77       0.1562
     29  C         21.2420   19.3720  -16.2850 C.2    77  ALA77       0.2260
     30  O         22.1650   20.1300  -15.9560 O.2    77  ALA77      -0.2867
     31  CB        19.5330   21.2270  -16.4490 C.3    77  ALA77       0.0290
     32  N         22.0710   18.4200  -13.3140 N.3    79  SER79      -0.1217
     33  CA        22.4070   19.2580  -12.1820 C.3    79  SER79       0.1889
     34  C         21.3820   19.0930  -11.0710 C.2    79  SER79       0.2288
     35  O         20.2840   18.5590  -11.2910 O.2    79  SER79      -0.2866
     36  CB        22.5230   20.7330  -12.6040 C.3    79  SER79       0.2089
     37  OG        21.3660   21.2080  -13.2920 O.3    79  SER79      -0.2183
     38  N         23.9610   24.7250   -6.2620 N.3   101  LEU101     -0.1245
     39  CA        23.5660   24.1020   -7.5270 C.3   101  LEU101      0.1561
     40  C         24.7960   23.4740   -8.1890 C.2   101  LEU101      0.2260
     41  O         25.6430   24.1820   -8.7350 O.2   101  LEU101     -0.2867
     42  CB        22.9220   25.1480   -8.4340 C.3   101  LEU101      0.0270
     43  CG        22.4630   24.7700   -9.8480 C.3   101  LEU101      0.0019
     44  CD1       21.9470   26.0310  -10.5240 C.3   101  LEU101      0.0001
     45  CD2       23.5710   24.1390  -10.6650 C.3   101  LEU101      0.0001
     46  N         26.5010   21.0110  -11.0220 N.3   103  ALA103     -0.1231
     47  CA        26.3520   20.3920  -12.3290 C.3   103  ALA103      0.1694
     48  C         27.2400   19.1620  -12.3840 C.2   103  ALA103      0.2593
     49  O         28.3230   19.1590  -11.8140 O.2   103  ALA103     -0.2718
     50  CB        26.7730   21.3580  -13.4000 C.3   103  ALA103      0.0304
     51  N         26.7940   18.1210  -13.0840 N.am  104  GLY104     -0.1942
     52  CA        27.6970   17.0330  -13.4370 C.3   104  GLY104      0.2014
     53  C         28.7720   17.5620  -14.3820 C.2   104  GLY104      0.2639
     54  O         28.4450   18.1680  -15.4080 O.2   104  GLY104     -0.2714
     55  N         30.0430   17.3440  -14.0450 N.am  105  THR105     -0.1950
     56  CA        31.1750   17.8030  -14.8540 C.3   105  THR105      0.1897
     57  C         32.2230   16.7070  -14.9780 C.2   105  THR105      0.2313
     58  O         32.2330   15.7540  -14.2040 O.2   105  THR105     -0.2863
     59  CB        31.9000   19.0250  -14.2430 C.3   105  THR105      0.1794
     60  OG1       32.5680   18.6540  -13.0270 O.3   105  THR105     -0.2208
     61  CG2       30.9320   20.1740  -13.9570 C.3   105  THR105      0.0378
     62  N         34.6630   24.3330  -11.3150 N.3   112  LYS112     -0.1245
     63  CA        33.5830   25.2480  -11.7290 C.3   112  LYS112      0.1561
     64  C         32.2120   24.5530  -11.7880 C.2   112  LYS112      0.2260
     65  O         31.3260   24.9660  -12.5400 O.2   112  LYS112     -0.2867
     66  CB        33.9290   25.9350  -13.0590 C.3   112  LYS112      0.0271
     67  CG        34.2140   25.0180  -14.2230 C.3   112  LYS112      0.0035
     68  CD        34.4400   25.8220  -15.4850 C.3   112  LYS112      0.0206
     69  CE        34.7690   24.8890  -16.6210 C.3   112  LYS112      0.1093
     70  NZ        34.9040   25.6150  -17.9030 N.3   112  LYS112     -0.1314
     71  N         27.4070   26.4670   -8.2940 N.3   115  LEU115     -0.1245
     72  CA        26.9030   27.8140   -8.0610 C.3   115  LEU115      0.1561
     73  C         26.3450   27.8980   -6.6430 C.2   115  LEU115      0.2260
     74  O         25.8140   26.9130   -6.1220 O.2   115  LEU115     -0.2867
     75  CB        25.8040   28.1630   -9.0550 C.3   115  LEU115      0.0270
     76  CG        26.2130   28.3180  -10.5110 C.3   115  LEU115      0.0019
     77  CD1       24.9750   28.4300  -11.3650 C.3   115  LEU115      0.0001
     78  CD2       27.0690   29.5530  -10.7090 C.3   115  LEU115      0.0001
@<TRIPOS>BOND
     1    11    10    2
     2    12    10   am
     3    10     9    1
     4     9     6    1
     5     6     7    1
     6     6     5    1
     7    70    69    1
     8     4     3    2
     9     7     8    2
    10    27    28    1
    11    28    31    1
    12    28    29    1
    13     5     3   am
    14     3     2    1
    15    69    68    1
    16    29    30    2
    17     2     1    1
    18    68    67    1
    19    54    53    2
    20    16    15    2
    21    57    56    1
    22    57    58    2
    23    56    59    1
    24    56    55    1
    25    53    55   am
    26    53    52    1
    27    59    61    1
    28    59    60    1
    29    67    66    1
    30    15    14    1
    31    52    51    1
    32    50    47    1
    33    32    33    1
    34    37    36    1
    35    17    14    1
    36    17    18    1
    37    51    48   am
    38    66    63    1
    39    14    13    1
    40    36    33    1
    41    65    64    2
    42    48    47    1
    43    48    49    2
    44    47    46    1
    45    33    34    1
    46    23    20   ar
    47    23    25   ar
    48    18    20   ar
    49    18    19   ar
    50    64    63    1
    51    63    62    1
    52    20    22   ar
    53    77    76    1
    54    25    26   ar
    55    35    34    2
    56    19    21   ar
    57    78    76    1
    58    45    43    1
    59    44    43    1
    60    76    75    1
    61    22    21   ar
    62    22    24   ar
    63    26    24   ar
    64    43    42    1
    65    75    72    1
    66    41    40    2
    67    42    39    1
    68    71    72    1
    69    40    39    1
    70    72    73    1
    71    39    38    1
    72    73    74    2
