@<TRIPOS>MOLECULE
tmp/5wbeB01.pdb
 207 199 0 0 0
SMALL
GASTEIGER

@<TRIPOS>ATOM
      1  N         46.5480  152.6730  -22.6370 N.3    59  HIS59      -0.1241
      2  CA        45.7470  151.5880  -23.1920 C.3    59  HIS59       0.1621
      3  C         46.5850  150.7340  -24.1280 C.2    59  HIS59       0.2264
      4  O         46.4250  149.5060  -24.1630 O.2    59  HIS59      -0.2867
      5  CB        44.5230  152.1430  -23.9350 C.3    59  HIS59       0.0745
      6  CG        43.5610  151.0870  -24.4000 C.ar   59  HIS59       0.0817
      7  ND1       42.7050  150.4260  -23.5440 N.ar   59  HIS59      -0.2268
      8  CD2       43.3330  150.5680  -25.6310 C.ar   59  HIS59       0.1154
      9  CE1       41.9840  149.5550  -24.2280 C.ar   59  HIS59       0.1986
     10  NE2       42.3460  149.6210  -25.4960 N.ar   59  HIS59      -0.2212
     11  N         48.7110  148.4420  -21.8640 N.3    62  LEU62      -0.1245
     12  CA        47.9390  147.4260  -21.1670 C.3    62  LEU62       0.1561
     13  C         47.3340  146.3950  -22.1090 C.2    62  LEU62       0.2260
     14  O         47.0460  145.2760  -21.6670 O.2    62  LEU62      -0.2867
     15  CB        46.8390  148.0830  -20.3310 C.3    62  LEU62       0.0270
     16  CG        47.3430  148.7800  -19.0710 C.3    62  LEU62       0.0019
     17  CD1       46.2570  149.6360  -18.4670 C.3    62  LEU62       0.0001
     18  CD2       47.8090  147.7350  -18.0740 C.3    62  LEU62       0.0001
     19  N         45.6450  151.3880   -9.9700 N.3    85  VAL85      -0.1245
     20  CA        44.3970  151.6020  -10.6970 C.3    85  VAL85       0.1561
     21  C         43.2990  152.0280   -9.7380 C.2    85  VAL85       0.2260
     22  O         42.5880  153.0190   -9.9710 O.2    85  VAL85      -0.2867
     23  CB        44.0020  150.3250  -11.4620 C.3    85  VAL85       0.0252
     24  CG1       42.6380  150.4820  -12.1000 C.3    85  VAL85       0.0019
     25  CG2       45.0550  149.9780  -12.4960 C.3    85  VAL85       0.0019
     26  N         42.1140  155.9500   -9.7820 N.3    89  ARG89      -0.1245
     27  CA        40.8190  156.1850  -10.4020 C.3    89  ARG89       0.1563
     28  C         39.7740  156.6160   -9.3840 C.2    89  ARG89       0.2260
     29  O         39.0030  157.5440   -9.6500 O.2    89  ARG89      -0.2867
     30  CB        40.3610  154.9580  -11.1840 C.3    89  ARG89       0.0307
     31  CG        41.2370  154.7390  -12.3850 C.3    89  ARG89       0.0489
     32  CD        40.5920  153.8110  -13.3510 C.3    89  ARG89       0.2205
     33  NE        41.4440  153.5280  -14.5000 N.pl3  89  ARG89      -0.0865
     34  CZ        41.6040  154.3410  -15.5400 C.cat  89  ARG89       0.5346
     35  NH1       41.0170  155.5290  -15.5650 N.pl3  89  ARG89       0.1354
     36  NH2       42.3910  153.9790  -16.5400 N.pl3  89  ARG89       0.1354
     37  N         36.0050  142.9590  -29.5510 N.3   161  GLN161     -0.1245
     38  CA        36.6340  142.4360  -28.3550 C.3   161  GLN161      0.1566
     39  C         36.0000  141.1300  -27.8830 C.2   161  GLN161      0.2260
     40  O         36.5030  140.5190  -26.9350 O.2   161  GLN161     -0.2867
     41  CB        36.5880  143.5500  -27.2960 C.3   161  GLN161      0.0367
     42  CG        37.3430  143.3470  -26.0080 C.3   161  GLN161      0.0905
     43  CD        37.4730  144.6520  -25.2270 C.2   161  GLN161      0.2608
     44  OE1       37.1500  145.7300  -25.7350 O.2   161  GLN161     -0.2717
     45  NE2       37.9120  144.5540  -23.9780 N.am  161  GLN161     -0.0878
     46  N         34.1200  140.5210  -15.4170 N.3   317  TYR317     -0.1227
     47  CA        33.3400  141.5250  -16.1400 C.3   317  TYR317      0.1736
     48  C         34.2300  142.6620  -16.6280 C.2   317  TYR317      0.2595
     49  O         34.3410  142.9150  -17.8350 O.2   317  TYR317     -0.2718
     50  CB        32.2470  142.0350  -15.2050 C.3   317  TYR317      0.0548
     51  CG        31.3250  143.1520  -15.6410 C.ar  317  TYR317     -0.0200
     52  CD1       30.1310  142.8920  -16.3020 C.ar  317  TYR317     -0.0009
     53  CD2       31.6430  144.4780  -15.3580 C.ar  317  TYR317     -0.0009
     54  CE1       29.2760  143.9270  -16.6660 C.ar  317  TYR317      0.0417
     55  CE2       30.8010  145.5100  -15.7220 C.ar  317  TYR317      0.0417
     56  CZ        29.6260  145.2380  -16.3720 C.ar  317  TYR317      0.1957
     57  OH        28.8090  146.2910  -16.7190 O.3   317  TYR317     -0.2866
     58  N         34.9230  143.3260  -15.7030 N.am  318  VAL318     -0.1980
     59  CA        35.8260  144.3990  -16.0990 C.3   318  VAL318      0.1595
     60  C         37.0370  143.8350  -16.8250 C.2   318  VAL318      0.2287
     61  O         37.6310  144.5110  -17.6720 O.2   318  VAL318     -0.2864
     62  CB        36.2260  145.2410  -14.8740 C.3   318  VAL318      0.0276
     63  CG1       37.2640  146.2950  -15.2490 C.3   318  VAL318      0.0022
     64  CG2       34.9920  145.9030  -14.2770 C.3   318  VAL318      0.0022
     65  N         35.8720  143.5290  -20.2700 N.3   321  LEU321     -0.1231
     66  CA        35.6050  144.8470  -20.8200 C.3   321  LEU321      0.1693
     67  C         36.8980  145.5990  -21.1310 C.2   321  LEU321      0.2592
     68  O         36.9360  146.4080  -22.0630 O.2   321  LEU321     -0.2718
     69  CB        34.7280  145.6170  -19.8330 C.3   321  LEU321      0.0284
     70  CG        34.0750  146.9320  -20.2320 C.3   321  LEU321      0.0019
     71  CD1       33.1000  146.6850  -21.3620 C.3   321  LEU321      0.0001
     72  CD2       33.3530  147.5230  -19.0260 C.3   321  LEU321      0.0001
     73  N         37.9690  145.3310  -20.3860 N.am  322  SER322     -0.1952
     74  CA        39.2210  146.0560  -20.5750 C.3   322  SER322      0.1924
     75  C         40.0290  145.5060  -21.7400 C.2   322  SER322      0.2314
     76  O         40.6540  146.2720  -22.4810 O.2   322  SER322     -0.2863
     77  CB        40.0600  145.9970  -19.3050 C.3   322  SER322      0.2116
     78  OG        40.5290  144.6800  -19.0830 O.3   322  SER322     -0.2180
     79  N         42.6330  143.8120  -21.0540 N.3   324  TYR324     -0.1241
     80  CA        43.9910  143.9090  -20.5380 C.3   324  TYR324      0.1605
     81  C         44.6600  142.5430  -20.4930 C.2   324  TYR324      0.2264
     82  O         44.0290  141.5300  -20.1760 O.2   324  TYR324     -0.2867
     83  CB        43.9990  144.5130  -19.1360 C.3   324  TYR324      0.0534
     84  CG        43.6660  145.9820  -19.0740 C.ar  324  TYR324     -0.0201
     85  CD1       43.5760  146.7420  -20.2270 C.ar  324  TYR324     -0.0009
     86  CD2       43.4650  146.6130  -17.8530 C.ar  324  TYR324     -0.0009
     87  CE1       43.2750  148.0880  -20.1680 C.ar  324  TYR324      0.0417
     88  CE2       43.1690  147.9550  -17.7830 C.ar  324  TYR324      0.0417
     89  CZ        43.0730  148.6870  -18.9440 C.ar  324  TYR324      0.1957
     90  OH        42.7790  150.0280  -18.8930 O.3   324  TYR324     -0.2866
     91  N         43.3190  141.5310  -13.7130 N.3   328  LEU328     -0.1245
     92  CA        42.8260  142.3390  -12.6050 C.3   328  LEU328      0.1561
     93  C         42.5560  141.4580  -11.3860 C.2   328  LEU328      0.2260
     94  O         42.3700  140.2400  -11.4910 O.2   328  LEU328     -0.2867
     95  CB        41.5610  143.0860  -13.0170 C.3   328  LEU328      0.0270
     96  CG        41.7730  144.0580  -14.1810 C.3   328  LEU328      0.0019
     97  CD1       40.4620  144.6450  -14.6830 C.3   328  LEU328      0.0001
     98  CD2       42.7360  145.1560  -13.7780 C.3   328  LEU328      0.0001
     99  N         26.8400  158.9970  -14.1560 N.3   350  PHE350     -0.1241
    100  CA        27.1160  157.5720  -14.2300 C.3   350  PHE350      0.1605
    101  C         25.8730  156.7990  -14.6350 C.2   350  PHE350      0.2264
    102  O         25.9790  155.7280  -15.2430 O.2   350  PHE350     -0.2867
    103  CB        27.6700  157.1320  -12.8740 C.3   350  PHE350      0.0534
    104  CG        28.0120  155.6880  -12.7750 C.ar  350  PHE350     -0.0203
    105  CD1       28.8550  155.0950  -13.6870 C.ar  350  PHE350     -0.0042
    106  CD2       27.5930  154.9550  -11.6830 C.ar  350  PHE350     -0.0042
    107  CE1       29.2040  153.7690  -13.5540 C.ar  350  PHE350     -0.0003
    108  CE2       27.9430  153.6380  -11.5440 C.ar  350  PHE350     -0.0003
    109  CZ        28.7530  153.0430  -12.4780 C.ar  350  PHE350     -0.0000
    110  N         25.8130  157.1940  -18.3290 N.3   353  LEU353     -0.1231
    111  CA        26.9460  156.5570  -18.9840 C.3   353  LEU353      0.1693
    112  C         26.7790  155.0500  -19.1750 C.2   353  LEU353      0.2592
    113  O         27.4220  154.4840  -20.0650 O.2   353  LEU353     -0.2718
    114  CB        28.1970  156.8770  -18.1650 C.3   353  LEU353      0.0284
    115  CG        29.5690  156.3770  -18.5400 C.3   353  LEU353      0.0019
    116  CD1       30.5940  157.4090  -18.1310 C.3   353  LEU353      0.0001
    117  CD2       29.7620  155.1260  -17.7490 C.3   353  LEU353      0.0001
    118  N         25.9420  154.3870  -18.3700 N.am  354  TYR354     -0.1976
    119  CA        25.6640  152.9580  -18.5060 C.3   354  TYR354      0.1639
    120  C         24.4900  152.6390  -19.4240 C.2   354  TYR354      0.2290
    121  O         23.9280  151.5420  -19.3280 O.2   354  TYR354     -0.2864
    122  CB        25.4080  152.3120  -17.1390 C.3   354  TYR354      0.0560
    123  CG        26.5600  151.5380  -16.5380 C.ar  354  TYR354     -0.0198
    124  CD1       27.6230  151.1130  -17.3100 C.ar  354  TYR354     -0.0009
    125  CD2       26.5450  151.1770  -15.2050 C.ar  354  TYR354     -0.0009
    126  CE1       28.6590  150.3800  -16.7510 C.ar  354  TYR354      0.0417
    127  CE2       27.5700  150.4540  -14.6460 C.ar  354  TYR354      0.0417
    128  CZ        28.6190  150.0500  -15.4200 C.ar  354  TYR354      0.1957
    129  OH        29.6360  149.3260  -14.8440 O.3   354  TYR354     -0.2866
    130  N         24.0240  151.1950  -22.2550 N.3   356  TRP356     -0.1241
    131  CA        24.7870  150.3510  -23.1660 C.3   356  TRP356      0.1605
    132  C         23.8980  149.5640  -24.1250 C.2   356  TRP356      0.2264
    133  O         24.2360  148.4430  -24.5200 O.2   356  TRP356     -0.2867
    134  CB        25.6720  149.3980  -22.3720 C.3   356  TRP356      0.0550
    135  CG        26.8510  150.0450  -21.7520 C.ar  356  TRP356      0.0003
    136  CD1       27.2160  151.3570  -21.8400 C.ar  356  TRP356      0.0946
    137  CD2       27.8720  149.3890  -21.0020 C.ar  356  TRP356      0.0152
    138  NE1       28.3950  151.5620  -21.1610 N.ar  356  TRP356     -0.2442
    139  CE2       28.8190  150.3660  -20.6440 C.ar  356  TRP356      0.0810
    140  CE3       28.0750  148.0680  -20.5920 C.ar  356  TRP356      0.0012
    141  CZ2       29.9460  150.0640  -19.8960 C.ar  356  TRP356      0.0191
    142  CZ3       29.1910  147.7720  -19.8480 C.ar  356  TRP356      0.0001
    143  CH2       30.1140  148.7660  -19.5040 C.ar  356  TRP356      0.0015
    144  N         38.4420  147.8830  -29.7920 N.3   485  SER485     -0.1202
    145  CA        37.9700  147.9380  -28.4180 C.3   485  SER485      0.2020
    146  C         36.4760  148.2420  -28.3930 C.2   485  SER485      0.2619
    147  O         35.8840  148.6690  -29.3880 O.2   485  SER485     -0.2717
    148  CB        38.7680  148.9650  -27.6070 C.3   485  SER485      0.2103
    149  OG        38.5620  150.2710  -28.1060 O.3   485  SER485     -0.2182
    150  N         35.8780  148.0320  -27.2190 N.am  486  ILE486     -0.1965
    151  CA        34.4280  148.1120  -27.0670 C.3   486  ILE486      0.1727
    152  C         33.9390  149.5570  -27.1400 C.2   486  ILE486      0.2616
    153  O         32.8630  149.8290  -27.6850 O.2   486  ILE486     -0.2715
    154  CB        34.0200  147.4210  -25.7480 C.3   486  ILE486      0.0290
    155  CG1       32.5110  147.4950  -25.4890 C.3   486  ILE486      0.0022
    156  CG2       34.8090  147.9780  -24.5820 C.3   486  ILE486      0.0023
    157  CD1       31.6660  146.7000  -26.4280 C.3   486  ILE486      0.0001
    158  N         34.7090  150.5010  -26.6070 N.am  487  PHE487     -0.1974
    159  CA        34.3470  151.9150  -26.6620 C.3   487  PHE487      0.1639
    160  C         35.6160  152.7610  -26.5960 C.2   487  PHE487      0.2290
    161  O         36.7300  152.2510  -26.7410 O.2   487  PHE487     -0.2864
    162  CB        33.3330  152.2830  -25.5700 C.3   487  PHE487      0.0560
    163  CG        33.6290  151.6980  -24.2170 C.ar  487  PHE487     -0.0200
    164  CD1       32.8570  150.6620  -23.7230 C.ar  487  PHE487     -0.0042
    165  CD2       34.6890  152.1480  -23.4580 C.ar  487  PHE487     -0.0042
    166  CE1       33.1040  150.1210  -22.4740 C.ar  487  PHE487     -0.0003
    167  CE2       34.9380  151.6060  -22.2110 C.ar  487  PHE487     -0.0003
    168  CZ        34.1490  150.5880  -21.7240 C.ar  487  PHE487     -0.0000
    169  N         34.7200  157.1060  -22.3140 N.3   491  MET491     -0.1230
    170  CA        34.0180  156.0720  -21.5750 C.3   491  MET491      0.1702
    171  C         34.9710  155.3430  -20.6370 C.2   491  MET491      0.2592
    172  O         34.5690  154.9340  -19.5450 O.2   491  MET491     -0.2718
    173  CB        33.3870  155.0930  -22.5630 C.3   491  MET491      0.0401
    174  CG        32.4020  154.0750  -22.0090 C.3   491  MET491      0.0596
    175  SD        30.8150  154.7710  -21.5330 S.3   491  MET491     -0.1393
    176  CE        30.1240  155.1450  -23.1420 C.3   491  MET491      0.0692
    177  N         36.2530  155.2440  -21.0140 N.am  492  ILE492     -0.1980
    178  CA        37.2760  154.7010  -20.1140 C.3   492  ILE492      0.1595
    179  C         37.4200  155.6020  -18.9040 C.2   492  ILE492      0.2287
    180  O         37.1440  155.2090  -17.7630 O.2   492  ILE492     -0.2864
    181  CB        38.6390  154.5860  -20.8250 C.3   492  ILE492      0.0276
    182  CG1       38.5520  153.8470  -22.1560 C.3   492  ILE492      0.0022
    183  CG2       39.6580  153.9050  -19.9230 C.3   492  ILE492      0.0022
    184  CD1       38.1560  152.4730  -22.0140 C.3   492  ILE492      0.0001
    185  N         34.0260  156.1790  -16.9690 N.3   495  GLY495     -0.1210
    186  CA        33.3570  155.0030  -16.4480 C.3   495  GLY495      0.1956
    187  C         34.1400  154.2320  -15.4040 C.2   495  GLY495      0.2611
    188  O         33.5500  153.7010  -14.4620 O.2   495  GLY495     -0.2717
    189  N         35.4650  154.1670  -15.5380 N.am  496  ALA496     -0.1979
    190  CA        36.2440  153.3950  -14.5720 C.3   496  ALA496      0.1597
    191  C         36.2550  153.9920  -13.1630 C.2   496  ALA496      0.2287
    192  O         36.1500  153.2280  -12.1900 O.2   496  ALA496     -0.2864
    193  CB        37.6770  153.2220  -15.0700 C.3   496  ALA496      0.0319
    194  N         32.9420  153.1800  -11.5190 N.3   499  SER499     -0.1202
    195  CA        32.6600  151.7600  -11.3930 C.3   499  SER499      0.2020
    196  C         33.5350  151.1310  -10.3140 C.2   499  SER499      0.2618
    197  O         33.0470  150.3540   -9.4850 O.2   499  SER499     -0.2717
    198  CB        32.8580  151.0830  -12.7550 C.3   499  SER499      0.2103
    199  OG        32.5080  149.7160  -12.7310 O.3   499  SER499     -0.2182
    200  N         34.8110  151.5190  -10.2520 N.am  500  LEU500     -0.1979
    201  CA        35.6910  150.9440   -9.2410 C.3   500  LEU500      0.1596
    202  C         35.4370  151.5590   -7.8720 C.2   500  LEU500      0.2287
    203  O         35.4680  150.8490   -6.8560 O.2   500  LEU500     -0.2864
    204  CB        37.1530  151.1300   -9.6460 C.3   500  LEU500      0.0297
    205  CG        37.5950  150.3700  -10.9010 C.3   500  LEU500      0.0022
    206  CD1       39.0070  150.7570  -11.2960 C.3   500  LEU500      0.0001
    207  CD2       37.5080  148.8800  -10.6810 C.3   500  LEU500      0.0001
@<TRIPOS>BOND
     1   144   145    1
     2    37    38    1
     3   147   146    2
     4   145   146    1
     5   145   148    1
     6   146   150   am
     7    38    39    1
     8    38    41    1
     9   149   148    1
    10    39    40    2
    11   153   152    2
    12    41    42    1
    13   150   151    1
    14   152   151    1
    15   152   158   am
    16   151   154    1
    17   161   160    2
    18   159   158    1
    19   159   160    1
    20   159   162    1
    21   157   155    1
    22    42    43    1
    23   154   155    1
    24   154   156    1
    25    44    43    2
    26     8    10   ar
    27     8     6   ar
    28   162   163    1
    29    10     9   ar
    30    43    45   am
    31   133   132    2
    32     6     5    1
    33     6     7   ar
    34     9     7   ar
    35   163   164   ar
    36   163   165   ar
    37     4     3    2
    38     3     2    1
    39   132   131    1
    40     5     2    1
    41   164   166   ar
    42   165   167   ar
    43     2     1    1
    44   131   134    1
    45   131   130    1
    46   176   175    1
    47   173   174    1
    48   173   170    1
    49    76    75    2
    50   166   168   ar
    51   134   135    1
    52   169   170    1
    53   167   168   ar
    54   182   184    1
    55   182   181    1
    56    13    14    2
    57    13    12    1
    58    68    67    2
    59   174   175    1
    60    11    12    1
    61   136   135   ar
    62   136   138   ar
    63   135   137   ar
    64    75    74    1
    65   170   171    1
    66    71    70    1
    67    12    15    1
    68   138   139   ar
    69    67    66    1
    70    67    73   am
    71    79    80    1
    72   177   171   am
    73   177   178    1
    74   137   139   ar
    75   137   140   ar
    76   181   178    1
    77   181   183    1
    78    66    65    1
    79    66    69    1
    80   139   141   ar
    81   171   172    2
    82   140   142   ar
    83    74    73    1
    84    74    77    1
    85    80    81    1
    86    80    83    1
    87    81    82    2
    88    15    16    1
    89    70    69    1
    90    70    72    1
    91    85    87   ar
    92    85    84   ar
    93    87    89   ar
    94   178   179    1
    95   113   112    2
    96   141   143   ar
    97   142   143   ar
    98   120   121    2
    99   120   119    1
   100    77    78    1
   101   112   111    1
   102   112   118   am
   103    83    84    1
   104    84    86   ar
   105    16    17    1
   106    16    18    1
   107   111   110    1
   108   111   114    1
   109    89    90    1
   110    89    88   ar
   111   179   180    2
   112   115   114    1
   113   115   116    1
   114   115   117    1
   115   119   118    1
   116   119   122    1
   117    86    88   ar
   118    49    48    2
   119    61    60    2
   120   124   126   ar
   121   124   123   ar
   122   122   123    1
   123   185   186    1
   124    60    59    1
   125   126   128   ar
   126    57    56    1
   127    54    56   ar
   128    54    52   ar
   129    48    47    1
   130    48    58   am
   131    36    34    1
   132   123   125   ar
   133   186   187    1
   134    56    55   ar
   135    52    51   ar
   136    47    46    1
   137    47    50    1
   138    59    58    1
   139    59    62    1
   140    55    53   ar
   141    51    53   ar
   142    51    50    1
   143    35    34    1
   144    34    33    2
   145   189   187   am
   146   189   190    1
   147   128   129    1
   148   128   127   ar
   149   187   188    2
   150    63    62    1
   151   102   101    2
   152   125   127   ar
   153   193   190    1
   154    62    64    1
   155    97    96    1
   156   101   100    1
   157   190   191    1
   158    33    32    1
   159   100    99    1
   160   100   103    1
   161    96    98    1
   162    96    95    1
   163    91    92    1
   164   105   107   ar
   165   105   104   ar
   166   107   109   ar
   167    32    31    1
   168   191   192    2
   169    95    92    1
   170   103   104    1
   171   104   106   ar
   172   198   199    1
   173   198   195    1
   174    92    93    1
   175    25    23    1
   176   109   108   ar
   177    31    30    1
   178    24    23    1
   179   106   108   ar
   180   194   195    1
   181    94    93    2
   182    23    20    1
   183   195   196    1
   184   206   205    1
   185    30    27    1
   186   205   207    1
   187   205   204    1
   188    20    19    1
   189    20    21    1
   190    27    26    1
   191    27    28    1
   192   196   200   am
   193   196   197    2
   194   200   201    1
   195    22    21    2
   196    29    28    2
   197   204   201    1
   198   201   202    1
   199   202   203    2
