@<TRIPOS>MOLECULE
tmp/5wbgD01.pdb
 154 144 0 0 0
SMALL
GASTEIGER

@<TRIPOS>ATOM
      1  N         60.1910   -9.4760  -41.5290 N.3    75  ILE75      -0.1245
      2  CA        61.2610   -8.6580  -42.0810 C.3    75  ILE75       0.1561
      3  C         62.1480   -8.2260  -40.9360 C.2    75  ILE75       0.2260
      4  O         61.6990   -7.4900  -40.0360 O.2    75  ILE75      -0.2867
      5  CB        60.7300   -7.4570  -42.8690 C.3    75  ILE75       0.0252
      6  CG1       60.1110   -7.9350  -44.1610 C.3    75  ILE75       0.0019
      7  CG2       61.8470   -6.5200  -43.2660 C.3    75  ILE75       0.0019
      8  CD1       59.0530   -6.9760  -44.6960 C.3    75  ILE75       0.0001
      9  N         62.2780   -4.8030  -39.0050 N.3    78  VAL78      -0.1245
     10  CA        61.1070   -4.3010  -38.2780 C.3    78  VAL78       0.1561
     11  C         60.4880   -5.3100  -37.3030 C.2    78  VAL78       0.2260
     12  O         59.6560   -4.9420  -36.4670 O.2    78  VAL78      -0.2867
     13  CB        60.0230   -3.7130  -39.2350 C.3    78  VAL78       0.0252
     14  CG1       60.5820   -2.5370  -40.0110 C.3    78  VAL78       0.0019
     15  CG2       59.4850   -4.7700  -40.1880 C.3    78  VAL78       0.0019
     16  N         57.2910   -5.0560  -34.5000 N.3    82  PHE82      -0.1241
     17  CA        55.9740   -5.6560  -34.7480 C.3    82  PHE82       0.1605
     18  C         55.7310   -6.9710  -33.9950 C.2    82  PHE82       0.2264
     19  O         54.6540   -7.1760  -33.4120 O.2    82  PHE82      -0.2867
     20  CB        55.7180   -5.8480  -36.2490 C.3    82  PHE82       0.0534
     21  CG        55.4480   -4.5880  -36.9720 C.ar   82  PHE82      -0.0203
     22  CD1       54.1780   -4.0230  -36.9660 C.ar   82  PHE82      -0.0042
     23  CD2       56.4640   -3.9510  -37.6580 C.ar   82  PHE82      -0.0042
     24  CE1       53.9340   -2.8370  -37.6400 C.ar   82  PHE82      -0.0003
     25  CE2       56.2270   -2.7670  -38.3300 C.ar   82  PHE82      -0.0003
     26  CZ        54.9630   -2.2120  -38.3260 C.ar   82  PHE82      -0.0000
     27  N         49.5890   -6.6340  -41.3070 N.3    88  ILE88      -0.1231
     28  CA        50.6510   -6.9560  -42.2610 C.3    88  ILE88       0.1692
     29  C         51.4650   -8.1690  -41.7830 C.2    88  ILE88       0.2592
     30  O         51.6480   -9.1320  -42.5260 O.2    88  ILE88      -0.2718
     31  CB        51.5460   -5.7390  -42.5850 C.3    88  ILE88       0.0266
     32  CG1       50.6920   -4.6090  -43.1680 C.3    88  ILE88       0.0019
     33  CG2       52.6100   -6.1240  -43.5880 C.3    88  ILE88       0.0020
     34  CD1       51.3700   -3.2800  -43.1840 C.3    88  ILE88       0.0001
     35  N         51.8960   -8.1410  -40.5270 N.am   89  PHE89      -0.1976
     36  CA        52.7510   -9.2020  -39.9950 C.3    89  PHE89       0.1639
     37  C         52.0620  -10.2350  -39.1050 C.2    89  PHE89       0.2290
     38  O         52.7210  -11.0760  -38.4820 O.2    89  PHE89      -0.2864
     39  CB        53.9080   -8.5780  -39.2400 C.3    89  PHE89       0.0560
     40  CG        54.8210   -7.8070  -40.1170 C.ar   89  PHE89      -0.0200
     41  CD1       54.7720   -6.4220  -40.1540 C.ar   89  PHE89      -0.0042
     42  CD2       55.7140   -8.4660  -40.9420 C.ar   89  PHE89      -0.0042
     43  CE1       55.6170   -5.7070  -40.9800 C.ar   89  PHE89      -0.0003
     44  CE2       56.5590   -7.7590  -41.7690 C.ar   89  PHE89      -0.0003
     45  CZ        56.5070   -6.3760  -41.7900 C.ar   89  PHE89      -0.0000
     46  N         61.3660    3.6340  -44.4470 N.3   180  PHE180     -0.1241
     47  CA        61.2320    2.7960  -45.6350 C.3   180  PHE180      0.1605
     48  C         62.5350    2.8180  -46.4190 C.2   180  PHE180      0.2264
     49  O         62.8820    1.8610  -47.1120 O.2   180  PHE180     -0.2867
     50  CB        60.0780    3.2860  -46.5110 C.3   180  PHE180      0.0534
     51  CG        60.0530    2.6700  -47.8810 C.ar  180  PHE180     -0.0203
     52  CD1       60.0220    1.2940  -48.0360 C.ar  180  PHE180     -0.0042
     53  CD2       60.0620    3.4660  -49.0140 C.ar  180  PHE180     -0.0042
     54  CE1       59.9990    0.7240  -49.2940 C.ar  180  PHE180     -0.0003
     55  CE2       60.0390    2.9020  -50.2750 C.ar  180  PHE180     -0.0003
     56  CZ        60.0070    1.5290  -50.4150 C.ar  180  PHE180     -0.0000
     57  N         65.1030    0.4250  -44.4610 N.3   183  ILE183     -0.1245
     58  CA        64.7010   -0.9610  -44.6920 C.3   183  ILE183      0.1561
     59  C         65.1420   -1.4080  -46.0780 C.2   183  ILE183      0.2260
     60  O         65.4750   -2.5860  -46.2990 O.2   183  ILE183     -0.2867
     61  CB        63.1690   -1.0860  -44.5940 C.3   183  ILE183      0.0252
     62  CG1       62.7230   -0.6690  -43.1900 C.3   183  ILE183      0.0019
     63  CG2       62.6880   -2.5060  -44.9640 C.3   183  ILE183      0.0019
     64  CD1       61.2530   -0.3920  -43.0410 C.3   183  ILE183      0.0001
     65  N         59.7310    3.8010  -35.6220 N.3   212  LEU212     -0.1245
     66  CA        58.4860    3.1030  -35.4760 C.3   212  LEU212      0.1561
     67  C         57.8860    3.4320  -34.1330 C.2   212  LEU212      0.2260
     68  O         56.7030    3.7410  -34.0600 O.2   212  LEU212     -0.2867
     69  CB        58.6760    1.6110  -35.6620 C.3   212  LEU212      0.0270
     70  CG        58.9600    1.2130  -37.1020 C.3   212  LEU212      0.0019
     71  CD1       59.4140   -0.2090  -37.1380 C.3   212  LEU212      0.0001
     72  CD2       57.7430    1.4130  -37.9640 C.3   212  LEU212      0.0001
     73  N         49.3370    1.9480  -37.3630 N.3   266  LEU266     -0.1231
     74  CA        50.6780    2.1590  -37.8680 C.3   266  LEU266      0.1693
     75  C         50.8550    1.3920  -39.1880 C.2   266  LEU266      0.2592
     76  O         51.2790    1.9660  -40.1820 O.2   266  LEU266     -0.2718
     77  CB        51.6970    1.6960  -36.8300 C.3   266  LEU266      0.0284
     78  CG        53.2160    1.7190  -37.0770 C.3   266  LEU266      0.0019
     79  CD1       53.6860    0.8650  -38.2420 C.3   266  LEU266      0.0001
     80  CD2       53.6740    3.1110  -37.2790 C.3   266  LEU266      0.0001
     81  N         50.5130    0.1040  -39.2010 N.am  267  SER267     -0.1952
     82  CA        50.6290   -0.6980  -40.4020 C.3   267  SER267      0.1924
     83  C         49.9160   -0.0520  -41.5950 C.2   267  SER267      0.2314
     84  O         50.5000    0.0860  -42.6660 O.2   267  SER267     -0.2863
     85  CB        50.0790   -2.0940  -40.1580 C.3   267  SER267      0.2116
     86  OG        51.0440   -2.9190  -39.5520 O.3   267  SER267     -0.2180
     87  N         51.3450    3.4690  -42.7380 N.3   270  PHE270     -0.1227
     88  CA        52.6240    3.3940  -43.3610 C.3   270  PHE270      0.1736
     89  C         52.4590    2.8420  -44.7460 C.2   270  PHE270      0.2595
     90  O         52.9710    3.4260  -45.6870 O.2   270  PHE270     -0.2718
     91  CB        53.5530    2.5170  -42.5430 C.3   270  PHE270      0.0547
     92  CG        54.9830    2.5610  -42.9850 C.ar  270  PHE270     -0.0202
     93  CD1       55.9230    3.2880  -42.2720 C.ar  270  PHE270     -0.0042
     94  CD2       55.4050    1.8450  -44.0960 C.ar  270  PHE270     -0.0042
     95  CE1       57.2610    3.3250  -42.6600 C.ar  270  PHE270     -0.0003
     96  CE2       56.7520    1.8690  -44.4930 C.ar  270  PHE270     -0.0003
     97  CZ        57.6780    2.6170  -43.7570 C.ar  270  PHE270     -0.0000
     98  N         51.7420    1.7320  -44.8780 N.am  271  ALA271     -0.1980
     99  CA        51.6010    1.0660  -46.1750 C.3   271  ALA271      0.1597
    100  C         50.8660    1.9450  -47.1930 C.2   271  ALA271      0.2287
    101  O         51.2670    2.0450  -48.3600 O.2   271  ALA271     -0.2864
    102  CB        50.8920   -0.2720  -46.0130 C.3   271  ALA271      0.0319
    103  N         53.4200    5.4820  -47.9650 N.3   274  GLU274     -0.1231
    104  CA        54.7410    5.3550  -48.5580 C.3   274  GLU274      0.1699
    105  C         54.6830    4.3640  -49.6850 C.2   274  GLU274      0.2592
    106  O         55.7020    3.8340  -50.1270 O.2   274  GLU274     -0.2718
    107  CB        55.7590    4.9030  -47.5100 C.3   274  GLU274      0.0402
    108  CG        57.1070    5.5980  -47.6140 C.3   274  GLU274      0.1161
    109  CD        57.0030    7.1000  -47.4400 C.2   274  GLU274      0.3649
    110  OE1       58.0000    7.8020  -47.7120 O.co2 274  GLU274     -0.2457
    111  OE2       55.9240    7.5800  -47.0320 O.co2 274  GLU274     -0.2457
    112  N         53.4710    4.0860  -50.1530 N.am  275  THR275     -0.1953
    113  CA        53.2770    3.1130  -51.2220 C.3   275  THR275      0.1897
    114  C         52.8690    3.7780  -52.5310 C.2   275  THR275      0.2313
    115  O         53.5150    3.5880  -53.5610 O.2   275  THR275     -0.2863
    116  CB        52.2160    2.0630  -50.8410 C.3   275  THR275      0.1794
    117  OG1       52.8580    0.9130  -50.2760 O.3   275  THR275     -0.2208
    118  CG2       51.4190    1.6420  -52.0670 C.3   275  THR275      0.0378
    119  N         57.5390   -1.6680  -57.3000 N.3   335  LEU335     -0.1231
    120  CA        57.7490   -1.1560  -55.9630 C.3   335  LEU335      0.1693
    121  C         58.2240   -2.1670  -54.9170 C.2   335  LEU335      0.2591
    122  O         59.0170   -1.8220  -54.0440 O.2   335  LEU335     -0.2718
    123  CB        56.4560   -0.5000  -55.4930 C.3   335  LEU335      0.0284
    124  CG        56.3810    0.3230  -54.2090 C.3   335  LEU335      0.0019
    125  CD1       57.7250    0.9610  -53.7890 C.3   335  LEU335      0.0001
    126  CD2       55.3600    1.3950  -54.4800 C.3   335  LEU335      0.0001
    127  N         57.7290   -3.3990  -54.9860 N.am  336  LEU336     -0.1980
    128  CA        58.0790   -4.4020  -53.9950 C.3   336  LEU336      0.1596
    129  C         58.6580   -5.6270  -54.6680 C.2   336  LEU336      0.2287
    130  O         57.9590   -6.6210  -54.8570 O.2   336  LEU336     -0.2864
    131  CB        56.8650   -4.7590  -53.1410 C.3   336  LEU336      0.0297
    132  CG        56.4660   -3.6700  -52.1520 C.3   336  LEU336      0.0022
    133  CD1       55.3310   -4.1140  -51.3050 C.3   336  LEU336      0.0001
    134  CD2       57.6260   -3.3460  -51.2700 C.3   336  LEU336      0.0001
    135  N         56.4700   -9.3950  -50.1780 N.3   340  VAL340     -0.1245
    136  CA        56.7460   -9.4450  -48.7270 C.3   340  VAL340      0.1561
    137  C         56.8530  -10.9310  -48.3620 C.2   340  VAL340      0.2260
    138  O         56.1350  -11.7400  -48.9650 O.2   340  VAL340     -0.2867
    139  CB        55.6380   -8.7380  -47.8930 C.3   340  VAL340      0.0252
    140  CG1       55.9840   -8.7170  -46.4510 C.3   340  VAL340      0.0019
    141  CG2       55.4530   -7.3160  -48.3530 C.3   340  VAL340      0.0019
    142  N         47.2270   -7.3290  -51.5880 N.3   409  CYS409     -0.1235
    143  CA        47.0120   -5.9920  -51.0080 C.3   409  CYS409      0.1677
    144  C         45.5870   -5.6210  -50.6020 C.2   409  CYS409      0.2270
    145  O         44.6780   -5.7750  -51.4140 O.2   409  CYS409     -0.2867
    146  CB        47.6340   -4.9380  -51.9100 C.3   409  CYS409      0.0956
    147  SG        47.6240   -3.3260  -51.1750 S.3   409  CYS409     -0.0801
    148  N         63.8920   -4.3250  -50.1540 N.3   450  VAL450     -0.1245
    149  CA        62.4990   -4.6740  -49.9730 C.3   450  VAL450      0.1561
    150  C         61.6360   -3.7880  -50.8620 C.2   450  VAL450      0.2260
    151  O         60.6110   -4.2380  -51.3670 O.2   450  VAL450     -0.2867
    152  CB        62.0410   -4.5250  -48.5050 C.3   450  VAL450      0.0252
    153  CG1       60.7260   -5.2200  -48.3070 C.3   450  VAL450      0.0019
    154  CG2       63.0420   -5.1400  -47.5840 C.3   450  VAL450      0.0019
@<TRIPOS>BOND
     1   119   120    1
     2   120   123    1
     3   120   121    1
     4   123   124    1
     5   127   121   am
     6   127   128    1
     7   121   122    2
     8   130   129    2
     9   129   128    1
    10   126   124    1
    11   124   125    1
    12   128   131    1
    13   115   114    2
    14   131   132    1
    15   114   113    1
    16   132   133    1
    17   132   134    1
    18   118   116    1
    19   146   147    1
    20   146   143    1
    21   142   143    1
    22   145   144    2
    23   151   150    2
    24   113   116    1
    25   113   112    1
    26   143   144    1
    27   150   149    1
    28   116   117    1
    29    56    55   ar
    30    56    54   ar
    31    55    53   ar
    32   135   136    1
    33   148   149    1
    34   112   105   am
    35   106   105    2
    36   149   152    1
    37   105   104    1
    38    54    52   ar
    39    53    51   ar
    40   138   137    2
    41   136   137    1
    42   136   139    1
    43   104   103    1
    44   104   107    1
    45   152   153    1
    46   152   154    1
    47   101   100    2
    48   141   139    1
    49    52    51   ar
    50   139   140    1
    51    51    50    1
    52   110   109   ar
    53   108   107    1
    54   108   109    1
    55   109   111   ar
    56   100    99    1
    57    49    48    2
    58    50    47    1
    59    48    47    1
    60    60    59    2
    61    99   102    1
    62    99    98    1
    63    59    58    1
    64    90    89    2
    65    47    46    1
    66    63    61    1
    67    98    89   am
    68    89    88    1
    69     8     6    1
    70    58    61    1
    71    58    57    1
    72    61    62    1
    73    96    94   ar
    74    96    97   ar
    75     6     5    1
    76    94    92   ar
    77    97    95   ar
    78    33    31    1
    79    88    87    1
    80    88    91    1
    81     7     5    1
    82    62    64    1
    83    34    32    1
    84    32    31    1
    85    92    91    1
    86    92    93   ar
    87     5     2    1
    88    84    83    2
    89    95    93   ar
    90    31    28    1
    91    30    29    2
    92    28    29    1
    93    28    27    1
    94     2     1    1
    95     2     3    1
    96    45    44   ar
    97    45    43   ar
    98    29    35   am
    99    44    42   ar
   100    83    82    1
   101    43    41   ar
   102    42    40   ar
   103     3     4    2
   104    35    36    1
   105    82    85    1
   106    82    81    1
   107    15    13    1
   108    76    75    2
   109    85    86    1
   110    41    40   ar
   111    40    39    1
   112    14    13    1
   113    36    39    1
   114    36    37    1
   115    13    10    1
   116    81    75   am
   117    75    74    1
   118    37    38    2
   119     9    10    1
   120    25    26   ar
   121    25    23   ar
   122    26    24   ar
   123    10    11    1
   124    79    78    1
   125    72    70    1
   126    74    73    1
   127    74    77    1
   128    23    21   ar
   129    24    22   ar
   130    11    12    2
   131    80    78    1
   132    71    70    1
   133    70    69    1
   134    78    77    1
   135    21    22   ar
   136    21    20    1
   137    20    17    1
   138    69    66    1
   139    65    66    1
   140    66    67    1
   141    17    16    1
   142    17    18    1
   143    67    68    2
   144    18    19    2
