@<TRIPOS>MOLECULE
tmp/5wbmB01.pdb
 108 101 0 0 0
SMALL
GASTEIGER

@<TRIPOS>ATOM
      1  N        -37.8750  -44.0730   31.2900 N.3   228  ALA228     -0.1245
      2  CA       -38.6080  -44.7290   30.2140 C.3   228  ALA228      0.1562
      3  C        -37.6520  -45.6820   29.5360 C.2   228  ALA228      0.2260
      4  O        -36.4720  -45.3640   29.3740 O.2   228  ALA228     -0.2867
      5  CB       -39.1520  -43.7000   29.2160 C.3   228  ALA228      0.0290
      6  N        -38.3050  -47.4980   26.3730 N.3   230  ALA230     -0.1231
      7  CA       -38.8880  -47.7880   25.0660 C.3   230  ALA230      0.1694
      8  C        -40.0230  -48.8180   25.1030 C.2   230  ALA230      0.2591
      9  O        -41.0330  -48.5730   25.7690 O.2   230  ALA230     -0.2718
     10  CB       -37.7760  -48.2080   24.0940 C.3   230  ALA230      0.0304
     11  N        -39.8370  -49.9940   24.4510 N.am  231  GLU231     -0.1979
     12  CA       -40.8500  -51.0510   24.4010 C.3   231  GLU231      0.1602
     13  C        -41.0580  -51.8220   25.7140 C.2   231  GLU231      0.2287
     14  O        -42.0610  -52.5220   25.8580 O.2   231  GLU231     -0.2864
     15  CB       -40.7650  -51.9380   23.1170 C.3   231  GLU231      0.0415
     16  CG       -39.3750  -52.4340   22.7370 C.3   231  GLU231      0.1163
     17  CD       -38.4570  -51.4360   22.0450 C.2   231  GLU231      0.3649
     18  OE1      -38.8530  -50.8810   20.9930 O.co2 231  GLU231     -0.2457
     19  OE2      -37.3210  -51.2440   22.5350 O.co2 231  GLU231     -0.2457
     20  N        -41.7150  -50.2320   28.4700 N.3   233  GLY233     -0.1225
     21  CA       -42.5400  -49.3080   29.2320 C.3   233  GLY233      0.1811
     22  C        -41.6900  -48.3530   30.0370 C.2   233  GLY233      0.2280
     23  O        -40.6310  -47.9320   29.5770 O.2   233  GLY233     -0.2866
     24  N        -45.5140  -50.7080   28.1790 N.3   248  ALA248     -0.1231
     25  CA       -45.6140  -49.8400   27.0220 C.3   248  ALA248      0.1694
     26  C        -46.9920  -50.0490   26.3760 C.2   248  ALA248      0.2592
     27  O        -47.6500  -51.0540   26.6570 O.2   248  ALA248     -0.2718
     28  CB       -44.5100  -50.1780   26.0220 C.3   248  ALA248      0.0304
     29  N        -47.4410  -49.0880   25.5400 N.am  249  PHE249     -0.1963
     30  CA       -48.6960  -49.1900   24.7740 C.3   249  PHE249      0.1756
     31  C        -48.2520  -49.0830   23.3220 C.2   249  PHE249      0.2461
     32  O        -48.3500  -48.0100   22.7270 O.2   249  PHE249     -0.2730
     33  CB       -49.6930  -48.0780   25.1730 C.3   249  PHE249      0.0574
     34  CG       -50.2120  -48.2850   26.5750 C.ar  249  PHE249     -0.0200
     35  CD1      -51.4130  -48.9490   26.7960 C.ar  249  PHE249     -0.0042
     36  CD2      -49.4560  -47.8890   27.6840 C.ar  249  PHE249     -0.0042
     37  CE1      -51.8680  -49.1860   28.1030 C.ar  249  PHE249     -0.0003
     38  CE2      -49.9060  -48.1240   28.9810 C.ar  249  PHE249     -0.0003
     39  CZ       -51.1130  -48.7630   29.1880 C.ar  249  PHE249     -0.0000
     40  N        -47.6070  -50.1310   22.7680 N.am  250  PRO250     -0.2716
     41  CA       -47.0870  -50.0040   21.3980 C.3   250  PRO250      0.1521
     42  C        -48.1600  -49.7740   20.3250 C.2   250  PRO250      0.2440
     43  O        -49.2910  -50.2470   20.4820 O.2   250  PRO250     -0.2731
     44  CB       -46.2780  -51.2910   21.1930 C.3   250  PRO250      0.0310
     45  CG       -46.9490  -52.2870   22.0920 C.3   250  PRO250      0.0237
     46  CD       -47.4080  -51.5060   23.2920 C.3   250  PRO250      0.0939
     47  N        -47.8470  -48.9570   19.2850 N.am  251  PRO251     -0.2727
     48  CA       -48.8320  -48.7290   18.2050 C.3   251  PRO251      0.1402
     49  C        -48.9930  -49.9740   17.2940 C.2   251  PRO251      0.2269
     50  O        -48.1190  -50.8400   17.3500 O.2   251  PRO251     -0.2865
     51  CB       -48.2110  -47.5670   17.4230 C.3   251  PRO251      0.0296
     52  CG       -46.7370  -47.7410   17.5970 C.3   251  PRO251      0.0237
     53  CD       -46.5520  -48.2990   18.9900 C.3   251  PRO251      0.0939
     54  N        -44.9130  -49.1090   14.2560 N.3   254  VAL254     -0.1245
     55  CA       -44.1400  -47.9150   14.6140 C.3   254  VAL254      0.1561
     56  C        -43.7160  -47.1160   13.3690 C.2   254  VAL254      0.2260
     57  O        -42.9660  -47.6260   12.5330 O.2   254  VAL254     -0.2867
     58  CB       -43.0890  -48.0340   15.7660 C.3   254  VAL254      0.0252
     59  CG1      -42.8530  -49.4750   16.1940 C.3   254  VAL254      0.0019
     60  CG2      -41.7720  -47.3200   15.4570 C.3   254  VAL254      0.0019
     61  N        -40.6550  -42.3170   15.7710 N.3   257  THR257     -0.1218
     62  CA       -40.0950  -42.3500   17.1190 C.3   257  THR257      0.1862
     63  C        -39.5830  -40.9670   17.6240 C.2   257  THR257      0.2287
     64  O        -39.5690  -40.7340   18.8280 O.2   257  THR257     -0.2866
     65  CB       -39.1690  -43.5800   17.2050 C.3   257  THR257      0.1770
     66  OG1      -39.9170  -44.6770   17.7440 O.3   257  THR257     -0.2211
     67  CG2      -37.8860  -43.3460   17.9730 C.3   257  THR257      0.0375
     68  N        -40.6630  -39.1600   20.8720 N.3   260  ALA260     -0.1231
     69  CA       -41.5520  -39.9640   21.7080 C.3   260  ALA260      0.1694
     70  C        -41.1480  -39.8430   23.1870 C.2   260  ALA260      0.2592
     71  O        -42.0170  -39.8780   24.0450 O.2   260  ALA260     -0.2718
     72  CB       -41.4990  -41.4050   21.2500 C.3   260  ALA260      0.0304
     73  N        -39.8540  -39.6300   23.4540 N.am  261  GLY261     -0.1957
     74  CA       -39.3350  -39.3810   24.8020 C.3   261  GLY261      0.1869
     75  C        -39.8630  -38.0740   25.3780 C.2   261  GLY261      0.2309
     76  O        -40.3160  -38.0240   26.5290 O.2   261  GLY261     -0.2863
     77  N        -43.5330  -38.4230   26.2140 N.3   264  PHE264     -0.1241
     78  CA       -43.5970  -39.1400   27.4990 C.3   264  PHE264      0.1605
     79  C        -43.3560  -38.1430   28.6370 C.2   264  PHE264      0.2264
     80  O        -44.1570  -38.0710   29.5590 O.2   264  PHE264     -0.2867
     81  CB       -42.5720  -40.3160   27.5560 C.3   264  PHE264      0.0534
     82  CG       -42.4310  -40.9510   28.9260 C.ar  264  PHE264     -0.0203
     83  CD1      -43.3140  -41.9500   29.3460 C.ar  264  PHE264     -0.0042
     84  CD2      -41.4120  -40.5540   29.7980 C.ar  264  PHE264     -0.0042
     85  CE1      -43.2180  -42.4950   30.6240 C.ar  264  PHE264     -0.0003
     86  CE2      -41.2920  -41.1290   31.0690 C.ar  264  PHE264     -0.0003
     87  CZ       -42.1970  -42.0900   31.4780 C.ar  264  PHE264     -0.0000
     88  N        -46.8540  -43.4050   29.0850 N.3   286  CYS286     -0.1235
     89  CA       -46.7140  -44.5990   28.2290 C.3   286  CYS286      0.1677
     90  C        -47.7700  -44.6650   27.1500 C.2   286  CYS286      0.2270
     91  O        -47.4340  -44.9260   25.9910 O.2   286  CYS286     -0.2867
     92  CB       -46.6680  -45.8690   29.0720 C.3   286  CYS286      0.0956
     93  SG       -45.1450  -46.0180   30.0300 S.3   286  CYS286     -0.0801
     94  N        -47.0970  -41.4410   24.6300 N.3   289  ALA289     -0.1231
     95  CA       -45.8570  -41.6400   23.8950 C.3   289  ALA289      0.1694
     96  C        -45.9620  -42.8260   22.9280 C.2   289  ALA289      0.2592
     97  O        -45.4260  -42.7420   21.8160 O.2   289  ALA289     -0.2718
     98  CB       -44.6900  -41.8480   24.8490 C.3   289  ALA289      0.0304
     99  N        -46.6130  -43.9120   23.3760 N.am  290  GLY290     -0.1957
    100  CA       -46.8350  -45.1070   22.5610 C.3   290  GLY290      0.1869
    101  C        -47.7070  -44.8080   21.3590 C.2   290  GLY290      0.2309
    102  O        -47.4220  -45.2760   20.2540 O.2   290  GLY290     -0.2863
    103  N        -45.7590  -42.8540   18.6710 N.3   293  CYS293     -0.1235
    104  CA       -44.8680  -43.7300   17.8910 C.3   293  CYS293      0.1677
    105  C        -45.4660  -44.2640   16.5780 C.2   293  CYS293      0.2270
    106  O        -44.7210  -44.5570   15.6530 O.2   293  CYS293     -0.2867
    107  CB       -44.3080  -44.8510   18.7570 C.3   293  CYS293      0.0956
    108  SG       -43.0630  -44.2980   19.9430 S.3   293  CYS293     -0.0801
@<TRIPOS>BOND
     1    57    56    2
     2    56    55    1
     3    54    55    1
     4    55    58    1
     5    60    58    1
     6   106   105    2
     7    58    59    1
     8    61    62    1
     9   105   104    1
    10    62    65    1
    11    62    63    1
    12    65    66    1
    13    65    67    1
    14    49    50    2
    15    49    48    1
    16    51    52    1
    17    51    48    1
    18    52    53    1
    19    63    64    2
    20   104   103    1
    21   104   107    1
    22    48    47    1
    23   107   108    1
    24    53    47    1
    25    47    42   am
    26   102   101    2
    27    42    43    2
    28    42    41    1
    29    68    69    1
    30    18    17   ar
    31    44    41    1
    32    44    45    1
    33    72    69    1
    34   101   100    1
    35    41    40    1
    36    69    70    1
    37    97    96    2
    38    17    19   ar
    39    17    16    1
    40    45    46    1
    41   100    99    1
    42    32    31    2
    43    16    15    1
    44    40    46    1
    45    40    31   am
    46    96    99   am
    47    96    95    1
    48    15    12    1
    49    70    73   am
    50    70    71    2
    51    31    30    1
    52    73    74    1
    53    95    94    1
    54    95    98    1
    55    10     7    1
    56    12    11    1
    57    12    13    1
    58    11     8   am
    59    30    33    1
    60    30    29    1
    61    74    75    1
    62     7     8    1
    63     7     6    1
    64     8     9    2
    65    33    34    1
    66    75    76    2
    67    29    26   am
    68    13    14    2
    69    91    90    2
    70    28    25    1
    71    77    78    1
    72    26    27    2
    73    26    25    1
    74    34    35   ar
    75    34    36   ar
    76    35    37   ar
    77    25    24    1
    78    90    89    1
    79    78    81    1
    80    78    79    1
    81    81    82    1
    82    36    38   ar
    83    37    39   ar
    84    89    92    1
    85    89    88    1
    86    20    21    1
    87    79    80    2
    88    82    83   ar
    89    82    84   ar
    90    38    39   ar
    91    92    93    1
    92     5     2    1
    93    21    22    1
    94    83    85   ar
    95     4     3    2
    96     3     2    1
    97    23    22    2
    98    84    86   ar
    99     2     1    1
   100    85    87   ar
   101    86    87   ar
