@<TRIPOS>MOLECULE
tmp/5wbnA00.pdb
 111 110 0 0 0
SMALL
GASTEIGER

@<TRIPOS>ATOM
      1  N          8.5880    0.3930   12.2330 N.3    37  TRP37      -0.1241
      2  CA         8.1320   -0.7380   11.4610 C.3    37  TRP37       0.1605
      3  C          9.3790   -1.4280   10.9230 C.2    37  TRP37       0.2264
      4  O         10.4870   -0.8220   10.7610 O.2    37  TRP37      -0.2867
      5  CB         7.2570   -0.2880   10.2900 C.3    37  TRP37       0.0550
      6  CG         5.9780    0.3920   10.6880 C.ar   37  TRP37       0.0003
      7  CD1        5.8680    1.5800   11.3290 C.ar   37  TRP37       0.0946
      8  CD2        4.6150   -0.0770   10.4590 C.ar   37  TRP37       0.0152
      9  NE1        4.5090    1.9000   11.5230 N.ar   37  TRP37      -0.2442
     10  CE2        3.7370    0.8930   11.0230 C.ar   37  TRP37       0.0810
     11  CE3        4.0720   -1.2160    9.8620 C.ar   37  TRP37       0.0012
     12  CZ2        2.3300    0.7620   10.9750 C.ar   37  TRP37       0.0191
     13  CZ3        2.6690   -1.3670    9.8070 C.ar   37  TRP37       0.0001
     14  CH2        1.8090   -0.3430   10.3760 C.ar   37  TRP37       0.0015
     15  N          7.2130    4.9460   11.5020 N.3    48  GLY48      -0.1210
     16  CA         5.8870    5.0700   10.8960 C.3    48  GLY48       0.1956
     17  C          5.5200    6.4900   10.5230 C.2    48  GLY48       0.2612
     18  O          6.2250    7.4510   10.8540 O.2    48  GLY48      -0.2717
     19  N          4.3730    6.6250    9.8620 N.am   49  ARG49      -0.1965
     20  CA         4.0350    7.9010    9.2560 C.3    49  ARG49       0.1729
     21  C          3.6580    8.9770   10.2670 C.2    49  ARG49       0.2616
     22  O          3.6510   10.1360    9.9060 O.2    49  ARG49      -0.2715
     23  CB         2.9810    7.7550    8.1400 C.3    49  ARG49       0.0348
     24  CG         1.5750    7.3480    8.5630 C.3    49  ARG49       0.0492
     25  CD         0.7010    7.2450    7.3100 C.3    49  ARG49       0.2205
     26  NE        -0.7020    6.8590    7.5470 N.pl3  49  ARG49      -0.0865
     27  CZ        -1.7200    7.0880    6.7140 C.cat  49  ARG49       0.5346
     28  NH1       -2.9500    6.7110    7.0490 N.pl3  49  ARG49       0.1354
     29  NH2       -1.5560    7.7300    5.5390 N.pl3  49  ARG49       0.1354
     30  N          3.3530    8.6040   11.4930 N.am   50  TYR50      -0.1974
     31  CA         3.0530    9.5650   12.5480 C.3    50  TYR50       0.1639
     32  C          4.3230   10.0150   13.2590 C.2    50  TYR50       0.2290
     33  O          4.2340   10.9660   14.0320 O.2    50  TYR50      -0.2864
     34  CB         1.9150    9.0960   13.4960 C.3    50  TYR50       0.0560
     35  CG         0.6600    8.8640   12.7040 C.ar   50  TYR50      -0.0198
     36  CD1        0.0040    9.9060   12.0840 C.ar   50  TYR50      -0.0009
     37  CD2        0.1720    7.5940   12.4870 C.ar   50  TYR50      -0.0009
     38  CE1       -1.1220    9.7110   11.2860 C.ar   50  TYR50       0.0417
     39  CE2       -0.9630    7.3780   11.6860 C.ar   50  TYR50       0.0417
     40  CZ        -1.5950    8.4390   11.0770 C.ar   50  TYR50       0.1957
     41  OH        -2.6790    8.2430   10.2580 O.3    50  TYR50      -0.2866
     42  N          9.6190    4.7950    7.0250 N.3    55  MET55      -0.1230
     43  CA         9.2380    3.5470    6.3790 C.3    55  MET55       0.1702
     44  C          8.5040    3.8170    5.0540 C.2    55  MET55       0.2592
     45  O          8.7330    3.1450    4.0440 O.2    55  MET55      -0.2718
     46  CB         8.4150    2.6040    7.2500 C.3    55  MET55       0.0401
     47  CG         8.2820    1.2760    6.5590 C.3    55  MET55       0.0596
     48  SD         9.8760    0.4860    6.1690 S.3    55  MET55      -0.1393
     49  CE        10.2380   -0.3010    7.7370 C.3    55  MET55       0.0692
     50  N          7.5800    4.7680    5.0470 N.am   56  LEU56      -0.1980
     51  CA         6.9400    5.1890    3.7820 C.3    56  LEU56       0.1596
     52  C          7.9570    5.6600    2.7320 C.2    56  LEU56       0.2287
     53  O          7.8490    5.3110    1.5280 O.2    56  LEU56      -0.2864
     54  CB         5.8590    6.2410    4.0520 C.3    56  LEU56       0.0297
     55  CG         5.0370    6.7520    2.8830 C.3    56  LEU56       0.0022
     56  CD1        4.3990    5.6100    2.0920 C.3    56  LEU56       0.0001
     57  CD2        3.9620    7.7070    3.4230 C.3    56  LEU56       0.0001
     58  N          5.1420   -4.0150    5.3660 N.3    67  VAL67      -0.1245
     59  CA         5.8470   -3.6300    6.5600 C.3    67  VAL67       0.1561
     60  C          5.0760   -4.0780    7.7840 C.2    67  VAL67       0.2260
     61  O          3.8270   -4.0970    7.7530 O.2    67  VAL67      -0.2867
     62  CB         6.0940   -2.1380    6.5890 C.3    67  VAL67       0.0252
     63  CG1        7.0150   -1.7770    5.4330 C.3    67  VAL67       0.0019
     64  CG2        4.7800   -1.3490    6.4860 C.3    67  VAL67       0.0019
     65  N          0.9920   -4.0270    7.1000 N.3    76  TRP76      -0.1298
     66  CA         0.3310   -3.1410    6.1500 C.3    76  TRP76       0.1291
     67  C          0.9830   -3.2920    4.7900 C.3    76  TRP76       0.2013
     68  O          2.2680   -3.2960    4.7220 O.3    76  TRP76      -0.2188
     69  CB         0.4980   -1.7090    6.6290 C.3    76  TRP76       0.0497
     70  CG        -0.1620   -0.7210    5.7810 C.ar   76  TRP76      -0.0001
     71  CD1        0.4080    0.0590    4.8270 C.ar   76  TRP76       0.0946
     72  CD2       -1.5690   -0.4170    5.7670 C.ar   76  TRP76       0.0152
     73  NE1       -0.5490    0.8720    4.2700 N.ar   76  TRP76      -0.2442
     74  CE2       -1.7670    0.5710    4.7870 C.ar   76  TRP76       0.0810
     75  CE3       -2.6760   -0.8800    6.5010 C.ar   76  TRP76       0.0012
     76  CZ2       -3.0210    1.1230    4.5330 C.ar   76  TRP76       0.0191
     77  CZ3       -3.9130   -0.3270    6.2450 C.ar   76  TRP76       0.0001
     78  CH2       -4.0630    0.6620    5.2670 C.ar   76  TRP76       0.0015
     79  N          1.4620   -1.3050    1.4180 N.3    78  TYR78      -0.1241
     80  CA         1.3670    0.0560    0.8920 C.3    78  TYR78       0.1605
     81  C          0.6230    0.0800   -0.4460 C.2    78  TYR78       0.2264
     82  O         -0.1070    0.9940   -0.7080 O.2    78  TYR78      -0.2867
     83  CB         2.7830    0.6490    0.7280 C.3    78  TYR78       0.0534
     84  CG         3.4680    1.0340    2.0010 C.ar   78  TYR78      -0.0201
     85  CD1        2.9700    2.0850    2.7820 C.ar   78  TYR78      -0.0009
     86  CD2        4.6200    0.3900    2.4380 C.ar   78  TYR78      -0.0009
     87  CE1        3.6050    2.4830    3.9260 C.ar   78  TYR78       0.0417
     88  CE2        5.2520    0.7960    3.6040 C.ar   78  TYR78       0.0417
     89  CZ         4.7570    1.8390    4.3230 C.ar   78  TYR78       0.1957
     90  OH         5.4170    2.2450    5.4610 O.3    78  TYR78      -0.2866
     91  N         -3.1600   -0.8620    0.2940 N.3    81  GLN81      -0.1245
     92  CA        -3.7050    0.0690    1.2610 C.3    81  GLN81       0.1566
     93  C         -4.6510   -0.6700    2.2310 C.2    81  GLN81       0.2260
     94  O         -5.8370   -0.3150    2.4350 O.2    81  GLN81      -0.2867
     95  CB        -4.4610    1.1890    0.5450 C.3    81  GLN81       0.0367
     96  CG        -3.7690    1.7600   -0.6490 C.3    81  GLN81       0.0905
     97  CD        -4.6460    2.7990   -1.3500 C.2    81  GLN81       0.2608
     98  OE1       -4.9380    3.8430   -0.7690 O.2    81  GLN81      -0.2717
     99  NE2       -5.0640    2.5190   -2.5950 N.am   81  GLN81      -0.0878
    100  N         -4.5320   -3.6740    5.7340 N.3    83  TYR83      -0.1241
    101  CA        -3.8860   -4.6410    6.5650 C.3    83  TYR83       0.1605
    102  C         -4.0660   -5.9820    5.9150 C.2    83  TYR83       0.2264
    103  O         -5.0840   -6.2250    5.2370 O.2    83  TYR83      -0.2867
    104  CB        -4.5770   -4.7390    7.8930 C.3    83  TYR83       0.0534
    105  CG        -4.3370   -3.6400    8.8600 C.ar   83  TYR83      -0.0201
    106  CD1       -3.0810   -3.3690    9.3290 C.ar   83  TYR83      -0.0009
    107  CD2       -5.4120   -2.9920    9.4270 C.ar   83  TYR83      -0.0009
    108  CE1       -2.8860   -2.4100   10.3340 C.ar   83  TYR83       0.0417
    109  CE2       -5.2400   -2.0560   10.4220 C.ar   83  TYR83       0.0417
    110  CZ        -3.9850   -1.7970   10.8960 C.ar   83  TYR83       0.1957
    111  OH        -3.8470   -0.8310   11.8880 O.3    83  TYR83      -0.2866
@<TRIPOS>BOND
     1    99    97   am
     2    97    98    2
     3    97    96    1
     4    82    81    2
     5    96    95    1
     6    81    80    1
     7    91    92    1
     8    95    92    1
     9    83    80    1
    10    83    84    1
    11    80    79    1
    12    92    93    1
    13    53    52    2
    14    84    86   ar
    15    84    85   ar
    16    56    55    1
    17    93    94    2
    18    86    88   ar
    19    52    51    1
    20    85    87   ar
    21    55    57    1
    22    55    54    1
    23    88    89   ar
    24    51    54    1
    25    51    50    1
    26    87    89   ar
    27    45    44    2
    28    73    74   ar
    29    73    71   ar
    30    89    90    1
    31    76    74   ar
    32    76    78   ar
    33    68    67    1
    34    74    72   ar
    35    67    66    1
    36    71    70   ar
    37    50    44   am
    38    44    43    1
    39   103   102    2
    40    78    77   ar
    41    58    59    1
    42    63    62    1
    43    29    27    1
    44   100   101    1
    45    72    70   ar
    46    72    75   ar
    47    70    69    1
    48   102   101    1
    49    66    69    1
    50    66    65    1
    51    48    47    1
    52    48    49    1
    53    77    75   ar
    54    43    42    1
    55    43    46    1
    56    64    62    1
    57    47    46    1
    58    59    62    1
    59    59    60    1
    60   101   104    1
    61    27    28    1
    62    27    26    2
    63    25    26    1
    64    25    24    1
    65    61    60    2
    66   104   105    1
    67    23    24    1
    68    23    20    1
    69   105   106   ar
    70   105   107   ar
    71    20    19    1
    72    20    21    1
    73   106   108   ar
    74   107   109   ar
    75    13    11   ar
    76    13    14   ar
    77    19    17   am
    78    11     8   ar
    79    22    21    2
    80    41    40    1
    81    21    30   am
    82     5     6    1
    83     5     2    1
    84   108   110   ar
    85    14    12   ar
    86   109   110   ar
    87     8     6   ar
    88     8    10   ar
    89    17    18    2
    90    17    16    1
    91     6     7   ar
    92     4     3    2
    93    16    15    1
    94   110   111    1
    95     3     2    1
    96    12    10   ar
    97    10     9   ar
    98    40    38   ar
    99    40    39   ar
   100    38    36   ar
   101     7     9   ar
   102     2     1    1
   103    30    31    1
   104    39    37   ar
   105    36    35   ar
   106    37    35   ar
   107    31    32    1
   108    31    34    1
   109    35    34    1
   110    32    33    2
