@<TRIPOS>MOLECULE
tmp/5wboA01.pdb
 100 89 0 0 0
SMALL
GASTEIGER

@<TRIPOS>ATOM
      1  N         -0.4410   19.3180   19.1370 N.3     9  LEU9       -0.1245
      2  CA        -0.6500   19.6530   20.5480 C.3     9  LEU9        0.1561
      3  C          0.2920   19.0210   21.5250 C.2     9  LEU9        0.2260
      4  O          0.8300   17.9490   21.2680 O.2     9  LEU9       -0.2867
      5  CB        -2.0880   19.3110   20.9680 C.3     9  LEU9        0.0270
      6  CG        -3.1840   19.9070   20.1380 C.3     9  LEU9        0.0019
      7  CD1       -4.5200   19.3240   20.5230 C.3     9  LEU9        0.0001
      8  CD2       -3.1760   21.4330   20.2480 C.3     9  LEU9        0.0001
      9  N         -0.2780   18.4390   25.6730 N.3    11  VAL11      -0.1245
     10  CA        -1.2780   18.4770   26.7470 C.3    11  VAL11       0.1561
     11  C         -0.7150   17.7630   27.9800 C.2    11  VAL11       0.2260
     12  O          0.0420   16.8110   27.8320 O.2    11  VAL11      -0.2867
     13  CB        -2.6080   17.8090   26.2740 C.3    11  VAL11       0.0252
     14  CG1       -3.7210   17.9670   27.2920 C.3    11  VAL11       0.0019
     15  CG2       -3.0560   18.3280   24.9160 C.3    11  VAL11       0.0019
     16  N         -1.2540   15.1800   30.6580 N.3    13  ASP13      -0.1239
     17  CA        -2.1200   14.0420   30.9430 C.3    13  ASP13       0.1674
     18  C         -2.0000   13.6740   32.3870 C.2    13  ASP13       0.2266
     19  O         -0.9570   13.1810   32.8270 O.2    13  ASP13      -0.2867
     20  CB        -1.8270   12.8310   30.0220 C.3    13  ASP13       0.1410
     21  CG        -2.2510   13.0390   28.5780 C.2    13  ASP13       0.3668
     22  OD1       -3.1960   13.8130   28.3410 O.co2  13  ASP13      -0.2456
     23  OD2       -1.7000   12.3630   27.7000 O.co2  13  ASP13      -0.2456
     24  N         -0.5710   14.8400   24.1980 N.3    39  GLY39      -0.1210
     25  CA        -0.7950   15.5430   22.9490 C.3    39  GLY39       0.1956
     26  C         -0.2940   14.6260   21.8550 C.2    39  GLY39       0.2611
     27  O          0.7850   14.0510   22.0150 O.2    39  GLY39      -0.2717
     28  N         -1.0660   14.4390   20.7660 N.am   40  ASN40      -0.1974
     29  CA        -0.7120   13.5030   19.6760 C.3    40  ASN40       0.1688
     30  C          0.6700   13.7160   19.0870 C.2    40  ASN40       0.2292
     31  O          1.5170   12.8240   19.2150 O.2    40  ASN40      -0.2864
     32  CB        -1.7680   13.4780   18.5620 C.3    40  ASN40       0.1181
     33  CG        -3.0810   12.9320   19.0270 C.2    40  ASN40       0.2629
     34  OD1       -3.2590   12.6360   20.2080 O.2    40  ASN40      -0.2716
     35  ND2       -3.9980   12.7250   18.1080 N.am   40  ASN40      -0.0877
     36  N          3.3200   13.0070   21.7080 N.3    43  ASN43      -0.1240
     37  CA         3.5360   11.5830   21.9850 C.3    43  ASN43       0.1653
     38  C          4.3570   10.9290   20.8900 C.2    43  ASN43       0.2266
     39  O          5.2380   10.1350   21.2070 O.2    43  ASN43      -0.2867
     40  CB         2.2280   10.8300   22.2130 C.3    43  ASN43       0.1155
     41  CG         1.5620   11.0630   23.5360 C.2    43  ASN43       0.2627
     42  OD1        2.1970   11.3370   24.5600 O.2    43  ASN43      -0.2716
     43  ND2        0.2580   10.8860   23.5470 N.am   43  ASN43      -0.0877
     44  N         -5.6060   17.2650   30.6380 N.3    95  SER95      -0.1217
     45  CA        -6.7010   16.3250   30.5240 C.3    95  SER95       0.1889
     46  C         -6.6420   15.2570   31.5840 C.2    95  SER95       0.2288
     47  O         -5.5710   14.8990   32.0520 O.2    95  SER95      -0.2866
     48  CB        -6.8120   15.7490   29.1110 C.3    95  SER95       0.2089
     49  OG        -5.8350   14.7810   28.7960 O.3    95  SER95      -0.2183
     50  N        -10.3600    9.9140   28.0100 N.3   108  ILE108     -0.1245
     51  CA        -9.7790   11.2610   28.1270 C.3   108  ILE108      0.1561
     52  C        -10.8540   12.3420   28.2380 C.2   108  ILE108      0.2260
     53  O        -11.7240   12.4390   27.3760 O.2   108  ILE108     -0.2867
     54  CB        -8.7910   11.5460   26.9590 C.3   108  ILE108      0.0252
     55  CG1       -7.6870   10.4650   26.8820 C.3   108  ILE108      0.0019
     56  CG2       -8.1930   12.9590   27.0580 C.3   108  ILE108      0.0019
     57  CD1       -7.0230   10.3220   25.5070 C.3   108  ILE108      0.0001
     58  N        -10.7550   16.0540   28.1300 N.3   110  LEU110     -0.1245
     59  CA        -9.8360   17.1260   27.7840 C.3   110  LEU110      0.1561
     60  C        -10.3160   18.5250   28.1620 C.2   110  LEU110      0.2260
     61  O        -11.4520   18.9090   27.8660 O.2   110  LEU110     -0.2867
     62  CB        -9.4480   17.0580   26.2770 C.3   110  LEU110      0.0270
     63  CG        -8.6840   18.2680   25.6550 C.3   110  LEU110      0.0019
     64  CD1       -7.2590   18.3930   26.1740 C.3   110  LEU110      0.0001
     65  CD2       -8.7100   18.2210   24.1460 C.3   110  LEU110      0.0001
     66  N         -0.5060   17.1890   12.8600 N.3   137  GLU137     -0.1245
     67  CA        -1.6920   16.7150   13.5660 C.3   137  GLU137      0.1567
     68  C         -2.8090   17.7240   13.2530 C.2   137  GLU137      0.2260
     69  O         -2.6980   18.8880   13.6540 O.2   137  GLU137     -0.2867
     70  CB        -1.4190   16.6290   15.0860 C.3   137  GLU137      0.0388
     71  CG        -2.6650   16.3960   15.9260 C.3   137  GLU137      0.1160
     72  CD        -2.5280   16.5790   17.4230 C.2   137  GLU137      0.3649
     73  OE1       -1.4190   16.9100   17.8970 O.co2 137  GLU137     -0.2457
     74  OE2       -3.5200   16.3100   18.1360 O.co2 137  GLU137     -0.2457
     75  N         -7.6360   12.6530   12.9270 N.3   171  GLU171     -0.1231
     76  CA        -8.0890   11.8440   14.0670 C.3   171  GLU171      0.1699
     77  C         -9.5170   12.1750   14.5270 C.2   171  GLU171      0.2592
     78  O        -10.3110   11.2620   14.7870 O.2   171  GLU171     -0.2718
     79  CB        -7.0880   11.9480   15.2370 C.3   171  GLU171      0.0402
     80  CG        -7.1480   10.7960   16.2330 C.3   171  GLU171      0.1161
     81  CD        -7.3600   11.2160   17.6750 C.2   171  GLU171      0.3649
     82  OE1       -6.4010   11.1240   18.4770 O.co2 171  GLU171     -0.2457
     83  OE2       -8.4930   11.6330   18.0040 O.co2 171  GLU171     -0.2457
     84  N         -9.8350   13.4730   14.6410 N.am  172  LYS172     -0.1980
     85  CA       -11.1560   13.9100   15.0840 C.3   172  LYS172      0.1596
     86  C        -12.1690   13.9520   13.9270 C.2   172  LYS172      0.2287
     87  O        -11.8090   14.3710   12.8210 O.2   172  LYS172     -0.2864
     88  CB       -11.0680   15.2400   15.8560 C.3   172  LYS172      0.0298
     89  CG       -10.8220   15.0470   17.3590 C.3   172  LYS172      0.0038
     90  CD        -9.3360   14.9850   17.7250 C.3   172  LYS172      0.0206
     91  CE        -9.1060   14.7600   19.2020 C.3   172  LYS172      0.1093
     92  NZ        -8.4210   15.9200   19.8340 N.3   172  LYS172     -0.1314
     93  N         -3.2150    4.4640   26.0460 N.3   252  LEU252     -0.1245
     94  CA        -3.0350    5.9110   25.8970 C.3   252  LEU252      0.1561
     95  C         -1.8030    6.2320   25.0420 C.2   252  LEU252      0.2260
     96  O         -0.6690    5.9680   25.4480 O.2   252  LEU252     -0.2867
     97  CB        -2.9640    6.6320   27.2780 C.3   252  LEU252      0.0270
     98  CG        -2.7240    8.1500   27.2340 C.3   252  LEU252      0.0019
     99  CD1       -3.8850    8.8750   26.5980 C.3   252  LEU252      0.0001
    100  CD2       -2.4510    8.6890   28.5930 C.3   252  LEU252      0.0001
@<TRIPOS>BOND
     1    87    86    2
     2    66    67    1
     3    75    76    1
     4    68    67    1
     5    68    69    2
     6    67    70    1
     7    86    85    1
     8    76    77    1
     9    76    79    1
    10    77    84   am
    11    77    78    2
    12    84    85    1
    13    85    88    1
    14    70    71    1
    15    79    80    1
    16    88    89    1
    17    71    72    1
    18    80    81    1
    19    89    90    1
    20    72    73   ar
    21    72    74   ar
    22    81    83   ar
    23    81    82   ar
    24    90    91    1
    25    35    33   am
    26    32    33    1
    27    32    29    1
    28    33    34    2
    29    30    31    2
    30    30    29    1
    31     1     2    1
    32    91    92    1
    33    29    28    1
    34     6     8    1
    35     6     7    1
    36     6     5    1
    37     2     5    1
    38     2     3    1
    39    28    26   am
    40    38    39    2
    41    38    37    1
    42     4     3    2
    43    36    37    1
    44    26    27    2
    45    26    25    1
    46    37    40    1
    47    40    41    1
    48    25    24    1
    49    41    43   am
    50    41    42    2
    51    65    63    1
    52    15    13    1
    53    95    96    2
    54    95    94    1
    55    57    55    1
    56    63    64    1
    57    63    62    1
    58     9    10    1
    59    94    93    1
    60    94    97    1
    61    13    10    1
    62    13    14    1
    63    62    59    1
    64    99    98    1
    65    10    11    1
    66    55    54    1
    67    54    56    1
    68    54    51    1
    69    98    97    1
    70    98   100    1
    71    53    52    2
    72    23    21   ar
    73    59    58    1
    74    59    60    1
    75    12    11    2
    76    61    60    2
    77    50    51    1
    78    51    52    1
    79    22    21   ar
    80    21    20    1
    81    49    48    1
    82    48    45    1
    83    20    17    1
    84    45    44    1
    85    45    46    1
    86    16    17    1
    87    17    18    1
    88    46    47    2
    89    18    19    2
