@<TRIPOS>MOLECULE
tmp/5wboA00.pdb
 108 101 0 0 0
SMALL
GASTEIGER

@<TRIPOS>ATOM
      1  N         -5.4080    2.5680   10.7570 N.3   222  ALA222     -0.1245
      2  CA        -5.2440    1.5600   11.7970 C.3   222  ALA222      0.1562
      3  C         -6.6430    1.2570   12.3840 C.2   222  ALA222      0.2260
      4  O         -7.5200    2.1380   12.4020 O.2   222  ALA222     -0.2867
      5  CB        -4.2910    2.0460   12.8760 C.3   222  ALA222      0.0290
      6  N         -7.2410   -0.8560   15.5380 N.3   224  ALA224     -0.1231
      7  CA        -6.9850   -1.4800   16.8420 C.3   224  ALA224      0.1694
      8  C         -6.5740   -2.9870   16.7600 C.2   224  ALA224      0.2591
      9  O         -5.5440   -3.3180   16.1590 O.2   224  ALA224     -0.2718
     10  CB        -8.1770   -1.2670   17.7720 C.3   224  ALA224      0.0304
     11  N         -7.3830   -3.8910   17.3450 N.am  225  GLU225     -0.1979
     12  CA        -7.1270   -5.3330   17.3620 C.3   225  GLU225      0.1602
     13  C         -7.1650   -5.9430   15.9540 C.2   225  GLU225      0.2287
     14  O         -6.6580   -7.0470   15.7670 O.2   225  GLU225     -0.2864
     15  CB        -8.0470   -6.0730   18.3570 C.3   225  GLU225      0.0415
     16  CG        -9.5230   -5.6810   18.3310 C.3   225  GLU225      0.1163
     17  CD        -9.8610   -4.2840   18.8260 C.2   225  GLU225      0.3649
     18  OE1      -10.6500   -3.5970   18.1360 O.co2 225  GLU225     -0.2457
     19  OE2       -9.2520   -3.8340   19.8270 O.co2 225  GLU225     -0.2457
     20  N         -5.4620   -4.7140   13.5090 N.3   227  GLY227     -0.1225
     21  CA        -4.1940   -4.3030   12.9430 C.3   227  GLY227      0.1811
     22  C         -4.3390   -3.0130   12.1690 C.2   227  GLY227      0.2280
     23  O         -5.0390   -2.1000   12.6120 O.2   227  GLY227     -0.2866
     24  N         -2.1720   -6.9720   13.9060 N.3   242  ALA242     -0.1231
     25  CA        -1.7600   -6.3220   15.1280 C.3   242  ALA242      0.1694
     26  C         -0.7610   -7.2300   15.8470 C.2   242  ALA242      0.2592
     27  O         -0.6950   -8.4370   15.5700 O.2   242  ALA242     -0.2718
     28  CB        -2.9950   -6.1110   16.0130 C.3   242  ALA242      0.0304
     29  N         -0.0070   -6.6590   16.8030 N.am  243  PHE243     -0.1963
     30  CA         0.8950   -7.4110   17.6740 C.3   243  PHE243      0.1756
     31  C          0.3940   -7.2080   19.1350 C.2   243  PHE243      0.2461
     32  O          1.1330   -6.6240   19.9450 O.2   243  PHE243     -0.2730
     33  CB         2.3550   -6.9300   17.5160 C.3   243  PHE243      0.0574
     34  CG         3.0370   -7.1970   16.1920 C.ar  243  PHE243     -0.0200
     35  CD1        2.5630   -6.6200   15.0170 C.ar  243  PHE243     -0.0042
     36  CD2        4.2390   -7.8930   16.1410 C.ar  243  PHE243     -0.0042
     37  CE1        3.2390   -6.7990   13.7990 C.ar  243  PHE243     -0.0003
     38  CE2        4.9140   -8.0740   14.9200 C.ar  243  PHE243     -0.0003
     39  CZ         4.4040   -7.5270   13.7570 C.ar  243  PHE243     -0.0000
     40  N         -0.8680   -7.6250   19.4940 N.am  244  PRO244     -0.2716
     41  CA        -1.3510   -7.3720   20.8730 C.3   244  PRO244      0.1521
     42  C         -0.5020   -8.0470   21.9320 C.2   244  PRO244      0.2440
     43  O         -0.1110   -9.1970   21.7410 O.2   244  PRO244     -0.2731
     44  CB        -2.7840   -7.9710   20.8860 C.3   244  PRO244      0.0310
     45  CG        -2.7800   -8.9920   19.7740 C.3   244  PRO244      0.0237
     46  CD        -1.8920   -8.3510   18.7090 C.3   244  PRO244      0.0939
     47  N         -0.2460   -7.3690   23.0710 N.am  245  PRO245     -0.2727
     48  CA         0.4750   -8.0380   24.1580 C.3   245  PRO245      0.1402
     49  C         -0.4830   -9.0590   24.8240 C.2   245  PRO245      0.2269
     50  O         -1.6930   -8.8370   24.7880 O.2   245  PRO245     -0.2865
     51  CB         0.7680   -6.8720   25.1220 C.3   245  PRO245      0.0296
     52  CG        -0.3820   -5.9510   24.9470 C.3   245  PRO245      0.0237
     53  CD        -0.7040   -6.0170   23.4740 C.3   245  PRO245      0.0939
     54  N         -3.0970   -6.3620   27.8220 N.3   248  VAL248     -0.1245
     55  CA        -3.2410   -4.9610   27.3880 C.3   248  VAL248      0.1561
     56  C         -3.4890   -4.1150   28.6670 C.2   248  VAL248      0.2260
     57  O         -4.5550   -4.2530   29.2820 O.2   248  VAL248     -0.2867
     58  CB        -4.4020   -4.7900   26.3830 C.3   248  VAL248      0.0252
     59  CG1       -4.3640   -3.4140   25.7300 C.3   248  VAL248      0.0019
     60  CG2       -4.4000   -5.8970   25.3290 C.3   248  VAL248      0.0019
     61  N         -3.5400    1.7730   26.6470 N.3   251  THR251     -0.1218
     62  CA        -3.6380    2.1400   25.2290 C.3   251  THR251      0.1862
     63  C         -3.4690    3.6580   24.9840 C.2   251  THR251      0.2287
     64  O         -3.5850    4.0870   23.8320 O.2   251  THR251     -0.2866
     65  CB        -4.9300    1.6030   24.5650 C.3   251  THR251      0.1770
     66  OG1       -6.0740    2.1060   25.2500 O.3   251  THR251     -0.2211
     67  CG2       -4.9670    0.0860   24.4660 C.3   251  THR251      0.0375
     68  N         -1.3930    4.8920   21.8920 N.3   254  ALA254     -0.1231
     69  CA        -1.0860    3.7300   21.0280 C.3   254  ALA254      0.1694
     70  C         -1.0960    4.1300   19.5500 C.2   254  ALA254      0.2592
     71  O         -0.1560    3.7940   18.8350 O.2   254  ALA254     -0.2718
     72  CB        -2.0540    2.5770   21.2840 C.3   254  ALA254      0.0304
     73  N         -2.1330    4.8580   19.1380 N.am  255  GLY255     -0.1957
     74  CA        -2.3000    5.4480   17.8110 C.3   255  GLY255      0.1869
     75  C         -1.1620    6.3950   17.4660 C.2   255  GLY255      0.2309
     76  O         -0.7030    6.4070   16.3270 O.2   255  GLY255     -0.2863
     77  N          1.8360    4.2120   16.7780 N.3   258  PHE258     -0.1241
     78  CA         1.6550    3.6600   15.4470 C.3   258  PHE258      0.1605
     79  C          2.1380    4.6720   14.3800 C.2   258  PHE258      0.2264
     80  O          2.9830    4.3090   13.5530 O.2   258  PHE258     -0.2867
     81  CB         0.1840    3.2600   15.2200 C.3   258  PHE258      0.0534
     82  CG        -0.1280    2.8590   13.7930 C.ar  258  PHE258     -0.0203
     83  CD1        0.1980    1.5860   13.3200 C.ar  258  PHE258     -0.0042
     84  CD2       -0.7320    3.7560   12.9160 C.ar  258  PHE258     -0.0042
     85  CE1       -0.0350    1.2310   11.9890 C.ar  258  PHE258     -0.0003
     86  CE2       -0.9750    3.3990   11.5860 C.ar  258  PHE258     -0.0003
     87  CZ        -0.6340    2.1300   11.1360 C.ar  258  PHE258     -0.0000
     88  N          2.3330   -1.4850   13.7980 N.3   280  CYS280     -0.1235
     89  CA         1.5590   -2.4100   14.6220 C.3   280  CYS280      0.1677
     90  C          2.4220   -3.0400   15.7050 C.2   280  CYS280      0.2270
     91  O          1.9450   -3.2450   16.8140 O.2   280  CYS280     -0.2867
     92  CB         0.9160   -3.4790   13.7500 C.3   280  CYS280      0.0956
     93  SG        -0.3770   -2.8490   12.6710 S.3   280  CYS280     -0.0801
     94  N          3.3130   -0.2340   18.4020 N.3   283  ALA283     -0.1231
     95  CA         2.0570    0.1340   19.0670 C.3   283  ALA283      0.1694
     96  C          1.5960   -0.9730   20.0250 C.2   283  ALA283      0.2592
     97  O          1.3030   -0.6720   21.1960 O.2   283  ALA283     -0.2718
     98  CB         0.9810    0.4360   18.0530 C.3   283  ALA283      0.0304
     99  N          1.6310   -2.2320   19.5440 N.am  284  GLY284     -0.1957
    100  CA         1.2830   -3.4130   20.3200 C.3   284  GLY284      0.1869
    101  C          2.1580   -3.5730   21.5420 C.2   284  GLY284      0.2309
    102  O          1.6420   -3.8470   22.6280 O.2   284  GLY284     -0.2863
    103  N          1.1740   -1.0190   24.2880 N.3   287  CYS287     -0.1235
    104  CA        -0.0890   -1.4540   24.8950 C.3   287  CYS287      0.1677
    105  C          0.0720   -2.4060   26.0920 C.2   287  CYS287      0.2270
    106  O         -0.8550   -2.5550   26.8760 O.2   287  CYS287     -0.2867
    107  CB        -0.9950   -2.0510   23.8330 C.3   287  CYS287      0.0956
    108  SG        -1.6920   -0.8360   22.7070 S.3   287  CYS287     -0.0801
@<TRIPOS>BOND
     1     1     2    1
     2    87    86   ar
     3    87    85   ar
     4    86    84   ar
     5     2     3    1
     6     2     5    1
     7    85    83   ar
     8    22    23    2
     9    22    21    1
    10     3     4    2
    11    93    92    1
    12    84    82   ar
    13    21    20    1
    14    83    82   ar
    15    80    79    2
    16    92    89    1
    17    39    37   ar
    18    39    38   ar
    19    82    81    1
    20    88    89    1
    21    37    35   ar
    22    24    25    1
    23    79    78    1
    24    89    90    1
    25    38    36   ar
    26    35    34   ar
    27    25    26    1
    28    25    28    1
    29    81    78    1
    30    78    77    1
    31     6     7    1
    32    27    26    2
    33    90    91    2
    34    14    13    2
    35    26    29   am
    36    13    12    1
    37    36    34   ar
    38     9     8    2
    39    34    33    1
    40    76    75    2
    41     8     7    1
    42     8    11   am
    43    29    30    1
    44     7    10    1
    45    11    12    1
    46    12    15    1
    47    75    74    1
    48    33    30    1
    49    30    31    1
    50    74    73    1
    51    98    95    1
    52    18    17   ar
    53    16    15    1
    54    16    17    1
    55    94    95    1
    56    46    40    1
    57    46    45    1
    58    17    19   ar
    59    71    70    2
    60    95    96    1
    61    31    40   am
    62    31    32    2
    63    73    70   am
    64    40    41    1
    65    99    96   am
    66    99   100    1
    67    70    69    1
    68    45    44    1
    69    96    97    2
    70   100   101    1
    71    41    44    1
    72    41    42    1
    73    69    72    1
    74    69    68    1
    75   101   102    2
    76    43    42    2
    77    42    47   am
    78   108   107    1
    79    47    53    1
    80    47    48    1
    81    53    52    1
    82    64    63    2
    83   107   104    1
    84    48    49    1
    85    48    51    1
    86   103   104    1
    87    67    65    1
    88    65    62    1
    89    65    66    1
    90    50    49    2
    91   104   105    1
    92    52    51    1
    93    63    62    1
    94    62    61    1
    95    60    58    1
    96    59    58    1
    97   105   106    2
    98    58    55    1
    99    55    54    1
   100    55    56    1
   101    56    57    2
