@<TRIPOS>MOLECULE
tmp/5wbpA00.pdb
 108 101 0 0 0
SMALL
GASTEIGER

@<TRIPOS>ATOM
      1  N         -5.5620    2.6700   10.8540 N.3   222  ALA222     -0.1245
      2  CA        -5.3940    1.6630   11.8960 C.3   222  ALA222      0.1562
      3  C         -6.8080    1.3500   12.4300 C.2   222  ALA222      0.2260
      4  O         -7.7120    2.1970   12.3390 O.2   222  ALA222     -0.2867
      5  CB        -4.5020    2.1930   13.0070 C.3   222  ALA222      0.0290
      6  N         -7.5170   -0.5170   15.6940 N.3   224  ALA224     -0.1231
      7  CA        -7.2640   -1.1010   17.0110 C.3   224  ALA224      0.1694
      8  C         -6.6990   -2.5270   16.8920 C.2   224  ALA224      0.2591
      9  O         -5.6520   -2.7330   16.2560 O.2   224  ALA224     -0.2718
     10  CB        -8.5420   -1.0820   17.8540 C.3   224  ALA224      0.0304
     11  N         -7.4350   -3.5050   17.4560 N.am  225  GLU225     -0.1979
     12  CA        -7.1240   -4.9360   17.5020 C.3   225  GLU225      0.1602
     13  C         -7.2780   -5.6270   16.1480 C.2   225  GLU225      0.2287
     14  O         -6.7950   -6.7500   15.9840 O.2   225  GLU225     -0.2864
     15  CB        -7.9420   -5.6450   18.6130 C.3   225  GLU225      0.0415
     16  CG        -9.4660   -5.6340   18.4450 C.3   225  GLU225      0.1163
     17  CD       -10.1750   -4.2940   18.5670 C.2   225  GLU225      0.3649
     18  OE1      -10.8530   -3.8870   17.5920 O.co2 225  GLU225     -0.2457
     19  OE2      -10.0220   -3.6350   19.6230 O.co2 225  GLU225     -0.2457
     20  N         -5.7950   -4.6820   13.5040 N.3   227  GLY227     -0.1225
     21  CA        -4.5830   -4.3380   12.7940 C.3   227  GLY227      0.1811
     22  C         -4.7230   -3.0260   12.0730 C.2   227  GLY227      0.2280
     23  O         -5.4470   -2.1460   12.5240 O.2   227  GLY227     -0.2866
     24  N         -2.4680   -7.1070   14.0220 N.3   242  ALA242     -0.1231
     25  CA        -1.9590   -6.4210   15.2080 C.3   242  ALA242      0.1694
     26  C         -0.9760   -7.3150   15.9740 C.2   242  ALA242      0.2592
     27  O         -0.9110   -8.5430   15.7620 O.2   242  ALA242     -0.2718
     28  CB        -3.1210   -6.0080   16.1020 C.3   242  ALA242      0.0304
     29  N         -0.2130   -6.6970   16.8790 N.am  243  PHE243     -0.1963
     30  CA         0.7070   -7.4190   17.7640 C.3   243  PHE243      0.1756
     31  C          0.1910   -7.2650   19.2220 C.2   243  PHE243      0.2461
     32  O          0.9130   -6.6850   20.0550 O.2   243  PHE243     -0.2730
     33  CB         2.1380   -6.8660   17.6330 C.3   243  PHE243      0.0574
     34  CG         2.8060   -7.0700   16.2980 C.ar  243  PHE243     -0.0200
     35  CD1        3.9400   -7.8680   16.1860 C.ar  243  PHE243     -0.0042
     36  CD2        2.3640   -6.3820   15.1630 C.ar  243  PHE243     -0.0042
     37  CE1        4.5890   -8.0030   14.9730 C.ar  243  PHE243     -0.0003
     38  CE2        3.0430   -6.4860   13.9580 C.ar  243  PHE243     -0.0003
     39  CZ         4.1400   -7.3050   13.8680 C.ar  243  PHE243     -0.0000
     40  N         -1.0490   -7.7390   19.5470 N.am  244  PRO244     -0.2716
     41  CA        -1.5660   -7.5570   20.9090 C.3   244  PRO244      0.1521
     42  C         -0.7180   -8.1580   21.9980 C.2   244  PRO244      0.2440
     43  O         -0.2400   -9.2790   21.8470 O.2   244  PRO244     -0.2731
     44  CB        -2.9520   -8.2420   20.8620 C.3   244  PRO244      0.0310
     45  CG        -2.8930   -9.1470   19.7660 C.3   244  PRO244      0.0237
     46  CD        -2.0680   -8.4270   18.7330 C.3   244  PRO244      0.0939
     47  N         -0.5280   -7.4460   23.1230 N.am  245  PRO245     -0.2727
     48  CA         0.1950   -8.0780   24.2350 C.3   245  PRO245      0.1402
     49  C         -0.7780   -9.0630   24.9250 C.2   245  PRO245      0.2269
     50  O         -2.0230   -8.8740   24.8650 O.2   245  PRO245     -0.2865
     51  CB         0.5810   -6.8900   25.1190 C.3   245  PRO245      0.0296
     52  CG        -0.4060   -5.7900   24.8000 C.3   245  PRO245      0.0237
     53  CD        -1.0870   -6.1170   23.4940 C.3   245  PRO245      0.0939
     54  N         -3.3230   -6.4840   27.8800 N.3   248  VAL248     -0.1245
     55  CA        -3.4740   -5.0930   27.4060 C.3   248  VAL248      0.1561
     56  C         -3.7780   -4.2090   28.6580 C.2   248  VAL248      0.2260
     57  O         -4.8940   -4.2900   29.2020 O.2   248  VAL248     -0.2867
     58  CB        -4.6180   -4.9930   26.3680 C.3   248  VAL248      0.0252
     59  CG1       -4.7760   -3.5720   25.8440 C.3   248  VAL248      0.0019
     60  CG2       -4.4110   -5.9610   25.2300 C.3   248  VAL248      0.0019
     61  N         -3.9910    1.7030   26.7030 N.3   251  THR251     -0.1218
     62  CA        -4.1150    2.1180   25.2860 C.3   251  THR251      0.1862
     63  C         -3.9580    3.6460   25.0600 C.2   251  THR251      0.2287
     64  O         -4.1600    4.1120   23.9280 O.2   251  THR251     -0.2866
     65  CB        -5.4080    1.5970   24.5950 C.3   251  THR251      0.1770
     66  OG1       -6.5640    2.2370   25.1420 O.3   251  THR251     -0.2211
     67  CG2       -5.5410    0.0740   24.6110 C.3   251  THR251      0.0375
     68  N         -1.5700    4.8690   22.0600 N.3   254  ALA254     -0.1231
     69  CA        -1.2500    3.7530   21.1730 C.3   254  ALA254      0.1694
     70  C         -1.2850    4.1960   19.6980 C.2   254  ALA254      0.2592
     71  O         -0.3560    3.8970   18.9470 O.2   254  ALA254     -0.2718
     72  CB        -2.2140    2.6030   21.4130 C.3   254  ALA254      0.0304
     73  N         -2.3240    4.9440   19.3240 N.am  255  GLY255     -0.1957
     74  CA        -2.5120    5.4970   17.9840 C.3   255  GLY255      0.1869
     75  C         -1.4100    6.4630   17.5970 C.2   255  GLY255      0.2309
     76  O         -0.9760    6.4780   16.4500 O.2   255  GLY255     -0.2863
     77  N          1.5570    4.2490   16.9110 N.3   258  PHE258     -0.1241
     78  CA         1.3630    3.6750   15.5900 C.3   258  PHE258      0.1605
     79  C          1.8520    4.7280   14.5500 C.2   258  PHE258      0.2264
     80  O          2.8240    4.4820   13.8400 O.2   258  PHE258     -0.2867
     81  CB        -0.1260    3.3350   15.3640 C.3   258  PHE258      0.0534
     82  CG        -0.4090    2.9300   13.9360 C.ar  258  PHE258     -0.0203
     83  CD1       -0.0950    1.6460   13.4790 C.ar  258  PHE258     -0.0042
     84  CD2       -0.9310    3.8420   13.0280 C.ar  258  PHE258     -0.0042
     85  CE1       -0.3240    1.2760   12.1450 C.ar  258  PHE258     -0.0003
     86  CE2       -1.1800    3.4660   11.6920 C.ar  258  PHE258     -0.0003
     87  CZ        -0.8920    2.1810   11.2660 C.ar  258  PHE258     -0.0000
     88  N          2.0920   -1.3480   13.9780 N.3   280  CYS280     -0.1235
     89  CA         1.3040   -2.3150   14.7180 C.3   280  CYS280      0.1677
     90  C          2.1860   -2.9390   15.7730 C.2   280  CYS280      0.2270
     91  O          1.7460   -3.2040   16.8800 O.2   280  CYS280     -0.2867
     92  CB         0.7600   -3.3740   13.7660 C.3   280  CYS280      0.0956
     93  SG        -0.5090   -2.7690   12.6230 S.3   280  CYS280     -0.0801
     94  N          2.9030   -0.1090   18.5200 N.3   283  ALA283     -0.1231
     95  CA         1.6320    0.1840   19.1870 C.3   283  ALA283      0.1694
     96  C          1.2120   -0.9770   20.1270 C.2   283  ALA283      0.2592
     97  O          0.7080   -0.7150   21.2160 O.2   283  ALA283     -0.2718
     98  CB         0.5490    0.4880   18.1720 C.3   283  ALA283      0.0304
     99  N          1.5090   -2.2230   19.7400 N.am  284  GLY284     -0.1957
    100  CA         1.2510   -3.4170   20.5270 C.3   284  GLY284      0.1869
    101  C          2.1260   -3.4890   21.7570 C.2   284  GLY284      0.2309
    102  O          1.6140   -3.7130   22.8500 O.2   284  GLY284     -0.2863
    103  N          0.9030   -1.0460   24.3680 N.3   287  CYS287     -0.1235
    104  CA        -0.3400   -1.4540   25.0530 C.3   287  CYS287      0.1677
    105  C         -0.1630   -2.4310   26.2220 C.2   287  CYS287      0.2270
    106  O         -1.1230   -2.6650   26.9380 O.2   287  CYS287     -0.2867
    107  CB        -1.3430   -1.9920   24.0540 C.3   287  CYS287      0.0956
    108  SG        -1.9760   -0.7360   22.9380 S.3   287  CYS287     -0.0801
@<TRIPOS>BOND
     1     1     2    1
     2    87    86   ar
     3    87    85   ar
     4    86    84   ar
     5     2     3    1
     6     2     5    1
     7    22    23    2
     8    22    21    1
     9    85    83   ar
    10     4     3    2
    11    93    92    1
    12    21    20    1
    13    84    82   ar
    14    83    82   ar
    15    92    89    1
    16    80    79    2
    17    39    38   ar
    18    39    37   ar
    19    82    81    1
    20    38    36   ar
    21    88    89    1
    22    24    25    1
    23    79    78    1
    24    89    90    1
    25    37    35   ar
    26    36    34   ar
    27    25    26    1
    28    25    28    1
    29    81    78    1
    30    78    77    1
    31     6     7    1
    32    27    26    2
    33    90    91    2
    34    26    29   am
    35    14    13    2
    36    13    12    1
    37    35    34   ar
    38     9     8    2
    39    34    33    1
    40    76    75    2
    41    29    30    1
    42     8     7    1
    43     8    11   am
    44     7    10    1
    45    11    12    1
    46    12    15    1
    47    18    17   ar
    48    75    74    1
    49    33    30    1
    50    30    31    1
    51    74    73    1
    52    98    95    1
    53    16    17    1
    54    16    15    1
    55    94    95    1
    56    17    19   ar
    57    46    40    1
    58    46    45    1
    59    71    70    2
    60    95    96    1
    61    31    40   am
    62    31    32    2
    63    73    70   am
    64    40    41    1
    65    70    69    1
    66    99    96   am
    67    99   100    1
    68    45    44    1
    69    96    97    2
    70   100   101    1
    71    44    41    1
    72    41    42    1
    73    69    72    1
    74    69    68    1
    75   101   102    2
    76    43    42    2
    77    42    47   am
    78   108   107    1
    79    47    53    1
    80    47    48    1
    81    53    52    1
    82    64    63    2
    83   107   104    1
    84    48    49    1
    85    48    51    1
    86   103   104    1
    87    65    67    1
    88    65    66    1
    89    65    62    1
    90    52    51    1
    91    50    49    2
    92   104   105    1
    93    63    62    1
    94    60    58    1
    95    62    61    1
    96    59    58    1
    97   105   106    2
    98    58    55    1
    99    55    54    1
   100    55    56    1
   101    56    57    2
