@<TRIPOS>MOLECULE
tmp/5wbqA00.pdb
 133 121 0 0 0
SMALL
GASTEIGER

@<TRIPOS>ATOM
      1  N         -8.3630   -4.3060   31.1600 N.3   103  ASN103     -0.1240
      2  CA        -8.4490   -4.3930   29.7010 C.3   103  ASN103      0.1653
      3  C         -7.5610   -3.3870   28.9610 C.2   103  ASN103      0.2266
      4  O         -7.4910   -3.4100   27.7270 O.2   103  ASN103     -0.2867
      5  CB        -9.9200   -4.2810   29.2540 C.3   103  ASN103      0.1155
      6  CG       -10.5980   -2.9620   29.5440 C.2   103  ASN103      0.2627
      7  OD1       -9.9830   -2.0050   30.0280 O.2   103  ASN103     -0.2716
      8  ND2      -11.8820   -2.8720   29.2150 N.am  103  ASN103     -0.0877
      9  N         -8.1500   -0.2490   28.5770 N.3   105  ASN105     -0.1225
     10  CA        -8.9490    0.8250   27.9770 C.3   105  ASN105      0.1785
     11  C         -8.6440    2.1740   28.6300 C.2   105  ASN105      0.2597
     12  O         -8.4180    2.2550   29.8420 O.2   105  ASN105     -0.2718
     13  CB       -10.4550    0.5390   28.0730 C.3   105  ASN105      0.1169
     14  CG       -11.0130   -0.4050   27.0430 C.2   105  ASN105      0.2627
     15  OD1      -10.4180   -1.4360   26.7290 O.2   105  ASN105     -0.2716
     16  ND2      -12.2180   -0.1180   26.5670 N.am  105  ASN105     -0.0877
     17  N         -8.6470    3.2220   27.8190 N.am  106  ARG106     -0.1979
     18  CA        -8.3450    4.5540   28.2920 C.3   106  ARG106      0.1597
     19  C         -9.4870    5.5160   27.9730 C.2   106  ARG106      0.2287
     20  O         -9.9400    5.5980   26.8290 O.2   106  ARG106     -0.2864
     21  CB        -6.9460    5.0290   27.7810 C.3   106  ARG106      0.0334
     22  CG        -6.9200    5.9890   26.5860 C.3   106  ARG106      0.0492
     23  CD        -7.1120    5.2860   25.2670 C.3   106  ARG106      0.2205
     24  NE        -7.2170    6.2240   24.1480 N.pl3 106  ARG106     -0.0865
     25  CZ        -8.3610    6.6510   23.6240 C.cat 106  ARG106      0.5346
     26  NH1       -9.5220    6.2870   24.1560 N.pl3 106  ARG106      0.1354
     27  NH2       -8.3530    7.4590   22.5760 N.pl3 106  ARG106      0.1354
     28  N        -10.2220    5.0460   13.3030 N.3   191  LYS191     -0.1245
     29  CA       -11.3210    4.0880   13.2950 C.3   191  LYS191      0.1561
     30  C        -12.6280    4.8290   13.6820 C.2   191  LYS191      0.2260
     31  O        -13.6890    4.5270   13.1340 O.2   191  LYS191     -0.2867
     32  CB       -10.9710    2.9460   14.2740 C.3   191  LYS191      0.0271
     33  CG       -12.1000    1.9870   14.6200 C.3   191  LYS191      0.0035
     34  CD       -11.7240    1.1300   15.8030 C.3   191  LYS191      0.0206
     35  CE       -12.9080    0.3790   16.3460 C.3   191  LYS191      0.1093
     36  NZ       -12.8420    0.2560   17.8260 N.3   191  LYS191     -0.1314
     37  N         -5.8140    2.2550   11.1740 N.3   222  ALA222     -0.1245
     38  CA        -5.6390    1.2640   12.2270 C.3   222  ALA222      0.1562
     39  C         -7.0360    0.9260   12.8260 C.2   222  ALA222      0.2260
     40  O         -7.8910    1.8140   12.9530 O.2   222  ALA222     -0.2867
     41  CB        -4.6940    1.7970   13.2860 C.3   222  ALA222      0.0290
     42  N         -7.8040   -1.0660   15.9590 N.3   224  ALA224     -0.1231
     43  CA        -7.5650   -1.6830   17.2720 C.3   224  ALA224      0.1694
     44  C         -6.9690   -3.1160   17.1940 C.2   224  ALA224      0.2591
     45  O         -5.8350   -3.3130   16.7090 O.2   224  ALA224     -0.2718
     46  CB        -8.8340   -1.6530   18.1310 C.3   224  ALA224      0.0304
     47  N         -7.7650   -4.1050   17.6490 N.am  225  GLU225     -0.1979
     48  CA        -7.4200   -5.5270   17.6820 C.3   225  GLU225      0.1602
     49  C         -7.4430   -6.1530   16.2940 C.2   225  GLU225      0.2287
     50  O         -6.8930   -7.2360   16.1040 O.2   225  GLU225     -0.2864
     51  CB        -8.3040   -6.3030   18.6920 C.3   225  GLU225      0.0415
     52  CG        -9.8100   -6.2780   18.4310 C.3   225  GLU225      0.1163
     53  CD       -10.5000   -4.9960   18.8480 C.2   225  GLU225      0.3649
     54  OE1      -11.0550   -4.3100   17.9580 O.co2 225  GLU225     -0.2457
     55  OE2      -10.4190   -4.6390   20.0480 O.co2 225  GLU225     -0.2457
     56  N         -5.9100   -4.9700   13.7580 N.3   227  GLY227     -0.1225
     57  CA        -4.6470   -4.6030   13.1410 C.3   227  GLY227      0.1811
     58  C         -4.7410   -3.2630   12.4540 C.2   227  GLY227      0.2280
     59  O         -5.2790   -2.3140   13.0280 O.2   227  GLY227     -0.2866
     60  N         -2.6370   -7.3940   14.1610 N.3   242  ALA242     -0.1245
     61  CA        -2.1230   -6.6740   15.3380 C.3   242  ALA242      0.1562
     62  C         -1.0760   -7.5170   16.0450 C.2   242  ALA242      0.2260
     63  O         -0.9270   -8.7090   15.7660 O.2   242  ALA242     -0.2867
     64  CB        -3.2640   -6.3380   16.2960 C.3   242  ALA242      0.0290
     65  N         -1.0820   -8.0440   19.6440 N.3   244  PRO244     -0.2103
     66  CA        -1.5740   -7.8430   21.0050 C.3   244  PRO244      0.1489
     67  C         -0.7120   -8.4550   22.0870 C.2   244  PRO244      0.2417
     68  O         -0.2280   -9.5620   21.9250 O.2   244  PRO244     -0.2734
     69  CB        -2.9850   -8.4710   20.9730 C.3   244  PRO244      0.0282
     70  CG        -2.9700   -9.4030   19.9060 C.3   244  PRO244      0.0208
     71  CD        -2.0720   -8.8280   18.8650 C.3   244  PRO244      0.0893
     72  N         -0.5050   -7.7420   23.2110 N.am  245  PRO245     -0.2729
     73  CA         0.2490   -8.3520   24.2970 C.3   245  PRO245      0.1401
     74  C         -0.7040   -9.3370   25.0200 C.2   245  PRO245      0.2269
     75  O         -1.9420   -9.1770   24.9230 O.2   245  PRO245     -0.2865
     76  CB         0.6710   -7.1460   25.1430 C.3   245  PRO245      0.0296
     77  CG        -0.3640   -6.1000   24.8710 C.3   245  PRO245      0.0237
     78  CD        -1.0430   -6.4080   23.5870 C.3   245  PRO245      0.0939
     79  N         -3.1600   -6.7240   28.0490 N.3   248  VAL248     -0.1245
     80  CA        -3.3590   -5.3420   27.6010 C.3   248  VAL248      0.1561
     81  C         -3.6410   -4.5210   28.8760 C.2   248  VAL248      0.2260
     82  O         -4.6870   -4.7140   29.5000 O.2   248  VAL248     -0.2867
     83  CB        -4.4880   -5.2190   26.5520 C.3   248  VAL248      0.0252
     84  CG1       -4.5790   -3.8030   26.0040 C.3   248  VAL248      0.0019
     85  CG2       -4.2800   -6.2020   25.4160 C.3   248  VAL248      0.0019
     86  N         -3.7180    1.4170   26.8640 N.3   251  THR251     -0.1218
     87  CA        -3.8670    1.7900   25.4480 C.3   251  THR251      0.1862
     88  C         -3.7010    3.2930   25.1970 C.2   251  THR251      0.2287
     89  O         -3.8640    3.7300   24.0470 O.2   251  THR251     -0.2866
     90  CB        -5.2000    1.2790   24.8430 C.3   251  THR251      0.1770
     91  OG1       -6.3050    1.8460   25.5430 O.3   251  THR251     -0.2211
     92  CG2       -5.2980   -0.2430   24.8110 C.3   251  THR251      0.0375
     93  N         -1.4730    4.6560   22.2820 N.3   254  ALA254     -0.1231
     94  CA        -1.2100    3.5100   21.4120 C.3   254  ALA254      0.1694
     95  C         -1.3220    3.8560   19.9530 C.2   254  ALA254      0.2592
     96  O         -0.4630    3.4410   19.1810 O.2   254  ALA254     -0.2718
     97  CB        -2.1140    2.3500   21.7620 C.3   254  ALA254      0.0304
     98  N         -2.3530    4.6200   19.5910 N.am  255  GLY255     -0.1957
     99  CA        -2.5830    5.1260   18.2380 C.3   255  GLY255      0.1869
    100  C         -1.4660    6.0490   17.7980 C.2   255  GLY255      0.2309
    101  O         -1.1180    6.0750   16.6230 O.2   255  GLY255     -0.2863
    102  N          1.4610    3.8990   17.1280 N.3   258  PHE258     -0.1241
    103  CA         1.2240    3.3790   15.7880 C.3   258  PHE258      0.1605
    104  C          1.7550    4.3570   14.7300 C.2   258  PHE258      0.2264
    105  O          2.6480    4.0000   13.9720 O.2   258  PHE258     -0.2867
    106  CB        -0.2670    3.0890   15.5510 C.3   258  PHE258      0.0534
    107  CG        -0.5500    2.6550   14.1260 C.ar  258  PHE258     -0.0203
    108  CD1       -0.2290    1.3670   13.6940 C.ar  258  PHE258     -0.0042
    109  CD2       -1.1120    3.5390   13.2100 C.ar  258  PHE258     -0.0042
    110  CE1       -0.4640    0.9710   12.3720 C.ar  258  PHE258     -0.0003
    111  CE2       -1.3680    3.1350   11.8960 C.ar  258  PHE258     -0.0003
    112  CZ        -1.0370    1.8510   11.4850 C.ar  258  PHE258     -0.0000
    113  N          2.0400   -1.7000   14.0000 N.3   280  CYS280     -0.1235
    114  CA         1.2540   -2.6200   14.8110 C.3   280  CYS280      0.1677
    115  C          2.0880   -3.2380   15.8990 C.2   280  CYS280      0.2270
    116  O          1.6000   -3.4660   16.9910 O.2   280  CYS280     -0.2867
    117  CB         0.6090   -3.6860   13.9320 C.3   280  CYS280      0.0956
    118  SG        -0.5810   -3.0320   12.7370 S.3   280  CYS280     -0.0801
    119  N          2.9230   -0.4560   18.5810 N.3   283  ALA283     -0.1231
    120  CA         1.6640   -0.1110   19.2670 C.3   283  ALA283      0.1694
    121  C          1.2180   -1.2360   20.2200 C.2   283  ALA283      0.2592
    122  O          0.7800   -0.9570   21.3380 O.2   283  ALA283     -0.2718
    123  CB         0.5630    0.1970   18.2740 C.3   283  ALA283      0.0304
    124  N          1.3640   -2.4840   19.7780 N.am  284  GLY284     -0.1957
    125  CA         1.0340   -3.6760   20.5470 C.3   284  GLY284      0.1869
    126  C          1.9510   -3.8890   21.7240 C.2   284  GLY284      0.2309
    127  O          1.4790   -4.3050   22.7680 O.2   284  GLY284     -0.2863
    128  N          0.8340   -1.3900   24.4390 N.3   287  CYS287     -0.1235
    129  CA        -0.4080   -1.7980   25.1050 C.3   287  CYS287      0.1677
    130  C         -0.2160   -2.7470   26.2940 C.2   287  CYS287      0.2270
    131  O         -1.1450   -2.9310   27.0590 O.2   287  CYS287     -0.2867
    132  CB        -1.3940   -2.3720   24.0990 C.3   287  CYS287      0.0956
    133  SG        -2.0350   -1.1570   22.9370 S.3   287  CYS287     -0.0801
@<TRIPOS>BOND
     1    37    38    1
     2   112   111   ar
     3   112   110   ar
     4   111   109   ar
     5    38    39    1
     6    38    41    1
     7   110   108   ar
     8    58    59    2
     9    58    57    1
    10   118   117    1
    11    39    40    2
    12    31    30    2
    13    57    56    1
    14   109   107   ar
    15    29    28    1
    16    29    30    1
    17    29    32    1
    18   108   107   ar
    19   117   114    1
    20   105   104    2
    21   113   114    1
    22   107   106    1
    23    60    61    1
    24    32    33    1
    25    33    34    1
    26   104   103    1
    27   114   115    1
    28    61    62    1
    29    61    64    1
    30   106   103    1
    31    63    62    2
    32   103   102    1
    33    34    35    1
    34   115   116    2
    35    42    43    1
    36    50    49    2
    37    49    48    1
    38    35    36    1
    39   101   100    2
    40    45    44    2
    41    44    43    1
    42    44    47   am
    43    43    46    1
    44    47    48    1
    45    48    51    1
    46   100    99    1
    47    54    53   ar
    48    99    98    1
    49   123   120    1
    50    52    51    1
    51    52    53    1
    52   119   120    1
    53    53    55   ar
    54    71    65    1
    55    71    70    1
    56    96    95    2
    57   120   121    1
    58    98    95   am
    59    65    66    1
    60   124   121   am
    61   124   125    1
    62    70    69    1
    63    95    94    1
    64   121   122    2
    65   125   126    1
    66    69    66    1
    67    66    67    1
    68    94    97    1
    69    94    93    1
    70   126   127    2
    71    68    67    2
    72    67    72   am
    73    27    25    1
    74   133   132    1
    75    72    78    1
    76    72    73    1
    77    78    77    1
    78    25    24    2
    79    25    26    1
    80    89    88    2
    81   132   129    1
    82    24    23    1
    83    73    74    1
    84    73    76    1
    85   128   129    1
    86    92    90    1
    87    90    87    1
    88    90    91    1
    89    77    76    1
    90    75    74    2
    91   129   130    1
    92    88    87    1
    93    23    22    1
    94    85    83    1
    95    87    86    1
    96    84    83    1
    97   130   131    2
    98    83    80    1
    99    16    14   am
   100    22    21    1
   101    15    14    2
   102    20    19    2
   103    14    13    1
   104    80    79    1
   105    80    81    1
   106     4     3    2
   107    21    18    1
   108    17    18    1
   109    17    11   am
   110    19    18    1
   111    10    13    1
   112    10     9    1
   113    10    11    1
   114    11    12    2
   115    81    82    2
   116     3     2    1
   117     8     6   am
   118     5     6    1
   119     5     2    1
   120     6     7    2
   121     2     1    1
