@<TRIPOS>MOLECULE
tmp/5wbrB00.pdb
 116 109 0 0 0
SMALL
GASTEIGER

@<TRIPOS>ATOM
      1  N        -23.6090   18.6460   63.3000 N.3   227  ALA227     -0.1245
      2  CA       -24.3440   19.4870   62.3660 C.3   227  ALA227      0.1562
      3  C        -25.2360   18.5590   61.5270 C.2   227  ALA227      0.2260
      4  O        -24.9150   17.3710   61.3740 O.2   227  ALA227     -0.2867
      5  CB       -23.3940   20.2810   61.4900 C.3   227  ALA227      0.0290
      6  N        -26.9540   19.7520   58.3920 N.3   229  ALA229     -0.1231
      7  CA       -27.1740   20.5130   57.1710 C.3   229  ALA229      0.1694
      8  C        -28.2220   21.6190   57.3830 C.2   229  ALA229      0.2591
      9  O        -28.0160   22.4610   58.2690 O.2   229  ALA229     -0.2718
     10  CB       -27.5650   19.5690   56.0380 C.3   229  ALA229      0.0304
     11  N        -29.3500   21.5890   56.6180 N.am  230  GLU230     -0.1979
     12  CA       -30.4810   22.5310   56.6870 C.3   230  GLU230      0.1602
     13  C        -31.1250   22.6390   58.0780 C.2   230  GLU230      0.2287
     14  O        -31.7740   23.6510   58.3870 O.2   230  GLU230     -0.2864
     15  CB       -31.5570   22.1960   55.6400 C.3   230  GLU230      0.0415
     16  CG       -31.5900   20.7500   55.1550 C.3   230  GLU230      0.1163
     17  CD       -30.7150   20.4600   53.9470 C.2   230  GLU230      0.3649
     18  OE1      -30.7870   21.2210   52.9530 O.co2 230  GLU230     -0.2457
     19  OE2      -29.9920   19.4390   53.9770 O.co2 230  GLU230     -0.2457
     20  N        -29.4820   22.8510   60.8930 N.3   232  GLY232     -0.1225
     21  CA       -28.5220   23.5430   61.7460 C.3   232  GLY232      0.1811
     22  C        -27.5550   22.6310   62.4690 C.2   232  GLY232      0.2280
     23  O        -27.1120   21.6290   61.9160 O.2   232  GLY232     -0.2866
     24  N        -29.9090   26.6060   61.1610 N.3   247  ALA247     -0.1231
     25  CA       -29.0620   27.0250   60.0570 C.3   247  ALA247      0.1694
     26  C        -29.4770   28.4280   59.5890 C.2   247  ALA247      0.2592
     27  O        -30.6200   28.8670   59.8040 O.2   247  ALA247     -0.2718
     28  CB       -29.1630   26.0450   58.9050 C.3   247  ALA247      0.0304
     29  N        -28.5240   29.1300   58.9650 N.am  248  PHE248     -0.1963
     30  CA       -28.6960   30.4500   58.3680 C.3   248  PHE248      0.1756
     31  C        -28.5300   30.2250   56.8560 C.2   248  PHE248      0.2461
     32  O        -27.4780   30.5200   56.3080 O.2   248  PHE248     -0.2730
     33  CB       -27.6490   31.4180   58.9440 C.3   248  PHE248      0.0574
     34  CG       -27.8020   31.6200   60.4320 C.ar  248  PHE248     -0.0200
     35  CD1      -27.3010   30.6850   61.3360 C.ar  248  PHE248     -0.0042
     36  CD2      -28.4810   32.7240   60.9330 C.ar  248  PHE248     -0.0042
     37  CE1      -27.4480   30.8670   62.7140 C.ar  248  PHE248     -0.0003
     38  CE2      -28.6290   32.9060   62.3120 C.ar  248  PHE248     -0.0003
     39  CZ       -28.1100   31.9770   63.1910 C.ar  248  PHE248     -0.0000
     40  N        -29.5180   29.6090   56.1680 N.am  249  PRO249     -0.2716
     41  CA       -29.3440   29.3350   54.7360 C.3   249  PRO249      0.1521
     42  C        -29.1710   30.5710   53.8530 C.2   249  PRO249      0.2440
     43  O        -29.6630   31.6600   54.1980 O.2   249  PRO249     -0.2731
     44  CB       -30.6240   28.5710   54.3780 C.3   249  PRO249      0.0310
     45  CG       -31.6270   29.0740   55.3420 C.3   249  PRO249      0.0237
     46  CD       -30.8620   29.1830   56.6160 C.3   249  PRO249      0.0939
     47  N        -28.4560   30.4300   52.7130 N.am  250  PRO250     -0.2727
     48  CA       -28.2950   31.5880   51.8240 C.3   250  PRO250      0.1402
     49  C        -29.5410   31.7640   50.9350 C.2   250  PRO250      0.2269
     50  O        -30.3040   30.7930   50.7590 O.2   250  PRO250     -0.2865
     51  CB       -27.0350   31.2440   51.0200 C.3   250  PRO250      0.0296
     52  CG       -26.9450   29.7550   51.0650 C.3   250  PRO250      0.0237
     53  CD       -27.7930   29.2240   52.1660 C.3   250  PRO250      0.0939
     54  N        -28.6400   28.4340   47.0880 N.3   253  VAL253     -0.1245
     55  CA       -27.5290   27.5290   47.4090 C.3   253  VAL253      0.1561
     56  C        -26.6980   27.2190   46.1590 C.2   253  VAL253      0.2260
     57  O        -27.2030   26.6320   45.2020 O.2   253  VAL253     -0.2867
     58  CB       -28.0010   26.2690   48.1640 C.3   253  VAL253      0.0252
     59  CG1      -26.9020   25.2150   48.2440 C.3   253  VAL253      0.0019
     60  CG2      -28.4880   26.6430   49.5560 C.3   253  VAL253      0.0019
     61  N        -22.1260   23.6400   48.4580 N.3   256  THR256     -0.1203
     62  CA       -22.0640   23.0560   49.8160 C.3   256  THR256      0.1994
     63  C        -20.7480   22.3150   50.0660 C.2   256  THR256      0.2617
     64  O        -20.5230   21.8330   51.1780 O.2   256  THR256     -0.2717
     65  CB       -23.2680   22.1580   50.1400 C.3   256  THR256      0.1784
     66  OG1      -23.3210   21.0810   49.2070 O.3   256  THR256     -0.2211
     67  CG2      -24.5760   22.9220   50.1950 C.3   256  THR256      0.0376
     68  N        -19.8830   22.2270   49.0520 N.am  257  LEU257     -0.1979
     69  CA       -18.6020   21.5520   49.2060 C.3   257  LEU257      0.1596
     70  C        -17.6360   22.3660   50.0670 C.2   257  LEU257      0.2287
     71  O        -17.2010   23.4460   49.6590 O.2   257  LEU257     -0.2864
     72  CB       -17.9990   21.1610   47.8450 C.3   257  LEU257      0.0297
     73  CG       -18.1790   19.7110   47.3500 C.3   257  LEU257      0.0022
     74  CD1      -19.5050   19.0670   47.8020 C.3   257  LEU257      0.0001
     75  CD2      -18.1120   19.6620   45.8670 C.3   257  LEU257      0.0001
     76  N        -18.5600   23.0290   53.3310 N.3   259  ALA259     -0.1231
     77  CA       -19.4660   23.6790   54.2820 C.3   259  ALA259      0.1694
     78  C        -19.3100   23.1150   55.6930 C.2   259  ALA259      0.2592
     79  O        -19.3520   23.8900   56.6360 O.2   259  ALA259     -0.2718
     80  CB       -20.9030   23.5920   53.8010 C.3   259  ALA259      0.0304
     81  N        -19.0200   21.8160   55.8070 N.am  260  GLY260     -0.1957
     82  CA       -18.7170   21.1550   57.0770 C.3   260  GLY260      0.1869
     83  C        -17.4060   21.6440   57.6660 C.2   260  GLY260      0.2309
     84  O        -17.3010   21.9240   58.8670 O.2   260  GLY260     -0.2863
     85  N        -17.8250   25.0880   59.0080 N.3   263  PHE263     -0.1241
     86  CA       -18.4920   24.9700   60.2890 C.3   263  PHE263      0.1605
     87  C        -17.4610   24.6300   61.3890 C.2   263  PHE263      0.2264
     88  O        -17.3850   25.3050   62.4180 O.2   263  PHE263     -0.2867
     89  CB       -19.5880   23.9050   60.1800 C.3   263  PHE263      0.0534
     90  CG       -20.2450   23.6500   61.5060 C.ar  263  PHE263     -0.0203
     91  CD1      -21.2470   24.4930   61.9780 C.ar  263  PHE263     -0.0042
     92  CD2      -19.8300   22.5940   62.3140 C.ar  263  PHE263     -0.0042
     93  CE1      -21.7980   24.3040   63.2430 C.ar  263  PHE263     -0.0003
     94  CE2      -20.3820   22.4090   63.5820 C.ar  263  PHE263     -0.0003
     95  CZ       -21.3640   23.2640   64.0360 C.ar  263  PHE263     -0.0000
     96  N        -22.6970   28.1620   62.2780 N.3   285  CYS285     -0.1235
     97  CA       -23.9060   28.0570   61.4550 C.3   285  CYS285      0.1677
     98  C        -24.0400   29.2600   60.5390 C.2   285  CYS285      0.2270
     99  O        -24.4810   29.1110   59.3960 O.2   285  CYS285     -0.2867
    100  CB       -25.1450   27.8690   62.3210 C.3   285  CYS285      0.0956
    101  SG       -25.4540   26.1540   62.7850 S.3   285  CYS285     -0.0801
    102  N        -20.8560   28.9890   57.8960 N.3   288  ALA288     -0.1231
    103  CA       -21.1590   27.8400   57.0170 C.3   288  ALA288      0.1694
    104  C        -22.3400   28.0960   56.0580 C.2   288  ALA288      0.2592
    105  O        -22.3630   27.5330   54.9700 O.2   288  ALA288     -0.2718
    106  CB       -21.4190   26.5870   57.8460 C.3   288  ALA288      0.0304
    107  N        -23.3080   28.9110   56.4940 N.am  289  GLY289     -0.1957
    108  CA       -24.4910   29.2960   55.7300 C.3   289  GLY289      0.1869
    109  C        -24.1460   30.2090   54.5740 C.2   289  GLY289      0.2309
    110  O        -24.5590   29.9560   53.4420 O.2   289  GLY289     -0.2863
    111  N        -22.3860   28.4090   51.6470 N.3   292  CYS292     -0.1235
    112  CA       -23.2560   27.6060   50.7850 C.3   292  CYS292      0.1677
    113  C        -23.8180   28.3760   49.5870 C.2   292  CYS292      0.2270
    114  O        -24.1000   27.7510   48.5740 O.2   292  CYS292     -0.2867
    115  CB       -24.3580   26.9230   51.5850 C.3   292  CYS292      0.0956
    116  SG       -23.7640   25.6300   52.7150 S.3   292  CYS292     -0.0801
@<TRIPOS>BOND
     1    57    56    2
     2    75    73    1
     3    56    55    1
     4    54    55    1
     5    73    74    1
     6    73    72    1
     7    55    58    1
     8    72    69    1
     9    58    59    1
    10    58    60    1
    11    61    62    1
    12   114   113    2
    13    68    69    1
    14    68    63   am
    15    69    70    1
    16    66    65    1
    17   113   112    1
    18    71    70    2
    19    62    63    1
    20    62    65    1
    21    63    64    2
    22    65    67    1
    23    50    49    2
    24   112   115    1
    25   112   111    1
    26    49    48    1
    27    51    52    1
    28    51    48    1
    29    52    53    1
    30   115   116    1
    31    48    47    1
    32    53    47    1
    33    47    42   am
    34    18    17   ar
    35    76    77    1
    36   110   109    2
    37    80    77    1
    38    42    43    2
    39    42    41    1
    40    17    19   ar
    41    17    16    1
    42    77    78    1
    43    44    41    1
    44    44    45    1
    45   109   108    1
    46    41    40    1
    47   105   104    2
    48    16    15    1
    49    45    46    1
    50    15    12    1
    51    78    81   am
    52    78    79    2
    53   108   107    1
    54    81    82    1
    55    10     7    1
    56   104   107   am
    57   104   103    1
    58    40    46    1
    59    40    31   am
    60    32    31    2
    61    11    12    1
    62    11     8   am
    63    12    13    1
    64    31    30    1
    65   103   106    1
    66   103   102    1
    67    82    83    1
    68     7     8    1
    69     7     6    1
    70     8     9    2
    71    83    84    2
    72    13    14    2
    73    30    33    1
    74    30    29    1
    75    28    25    1
    76    33    34    1
    77    29    26   am
    78    85    86    1
    79    99    98    2
    80    26    27    2
    81    26    25    1
    82    25    24    1
    83    89    86    1
    84    89    90    1
    85    86    87    1
    86    34    36   ar
    87    34    35   ar
    88    98    97    1
    89    20    21    1
    90    36    38   ar
    91    35    37   ar
    92     4     3    2
    93    87    88    2
    94    97    96    1
    95    97   100    1
    96     5     2    1
    97    90    91   ar
    98    90    92   ar
    99     3     2    1
   100    21    22    1
   101    23    22    2
   102    91    93   ar
   103    38    39   ar
   104    92    94   ar
   105   100   101    1
   106     2     1    1
   107    37    39   ar
   108    93    95   ar
   109    94    95   ar
