@<TRIPOS>MOLECULE
tmp/5wbvB01.pdb
 135 131 0 0 0
SMALL
GASTEIGER

@<TRIPOS>ATOM
      1  N          6.9340   12.6660  -17.8430 N.3   123  GLY123     -0.1225
      2  CA         7.4370   13.5800  -16.8250 C.3   123  GLY123      0.1811
      3  C          8.7510   13.0580  -16.2980 C.2   123  GLY123      0.2280
      4  O          9.0360   11.8680  -16.4290 O.2   123  GLY123     -0.2866
      5  N          3.8100   24.3770   -9.0890 N.3   144  PHE144     -0.1227
      6  CA         2.5970   23.8970   -9.7430 C.3   144  PHE144      0.1736
      7  C          2.6360   22.3550   -9.9770 C.2   144  PHE144      0.2596
      8  O          1.5920   21.7170  -10.0690 O.2   144  PHE144     -0.2718
      9  CB         2.3960   24.6600  -11.0720 C.3   144  PHE144      0.0547
     10  CG         3.6370   24.7510  -11.9230 C.ar  144  PHE144     -0.0202
     11  CD1        4.0240   23.6900  -12.7260 C.ar  144  PHE144     -0.0042
     12  CD2        4.4220   25.9010  -11.9150 C.ar  144  PHE144     -0.0042
     13  CE1        5.2150   23.7470  -13.4540 C.ar  144  PHE144     -0.0003
     14  CE2        5.5890   25.9730  -12.6670 C.ar  144  PHE144     -0.0003
     15  CZ         5.9800   24.8930  -13.4280 C.ar  144  PHE144     -0.0000
     16  N          3.8320   21.7790  -10.0860 N.am  145  SER145     -0.1938
     17  CA         4.0780   20.3410  -10.3190 C.3   145  SER145      0.2055
     18  C          5.0170   19.7470   -9.2500 C.2   145  SER145      0.2643
     19  O          5.8170   18.8820   -9.5390 O.2   145  SER145     -0.2714
     20  CB         4.6020   20.1070  -11.7390 C.3   145  SER145      0.2130
     21  OG         5.8710   20.7260  -11.8950 O.3   145  SER145     -0.2179
     22  N          4.8920   20.2030   -8.0090 N.am  146  VAL146     -0.1963
     23  CA         5.6890   19.7030   -6.9010 C.3   146  VAL146      0.1727
     24  C          4.7660   18.9060   -5.9850 C.2   146  VAL146      0.2616
     25  O          3.6760   19.3690   -5.6480 O.2   146  VAL146     -0.2715
     26  CB         6.3950   20.8550   -6.1440 C.3   146  VAL146      0.0290
     27  CG1        6.8480   20.4420   -4.7430 C.3   146  VAL146      0.0023
     28  CG2        7.5590   21.4210   -6.9600 C.3   146  VAL146      0.0023
     29  N          5.1830   17.7010   -5.6060 N.am  147  MET147     -0.1977
     30  CA         4.4070   16.9160   -4.6530 C.3   147  MET147      0.1605
     31  C          5.2910   16.5340   -3.4850 C.2   147  MET147      0.2287
     32  O          6.5090   16.4920   -3.6440 O.2   147  MET147     -0.2864
     33  CB         3.6720   15.7390   -5.3130 C.3   147  MET147      0.0413
     34  CG         4.4900   14.5240   -5.5530 C.3   147  MET147      0.0598
     35  SD         3.5540   13.2500   -6.4710 S.3   147  MET147     -0.1393
     36  CE         2.0790   13.0900   -5.4340 C.3   147  MET147      0.0692
     37  N          9.0820   16.5090   -4.4620 N.3   156  GLN156     -0.1245
     38  CA         9.2890   15.7900   -5.7030 C.3   156  GLN156      0.1566
     39  C          8.8090   16.6570   -6.8270 C.2   156  GLN156      0.2260
     40  O          7.6020   16.8990   -6.9600 O.2   156  GLN156     -0.2867
     41  CB         8.5270   14.4630   -5.6850 C.3   156  GLN156      0.0367
     42  CG         8.8500   13.5700   -4.4920 C.3   156  GLN156      0.0905
     43  CD         8.1300   12.2520   -4.5700 C.2   156  GLN156      0.2608
     44  OE1        6.9120   12.1940   -4.7030 O.2   156  GLN156     -0.2717
     45  NE2        8.8780   11.1660   -4.4730 N.am  156  GLN156     -0.0878
     46  N          8.1770   17.3550  -10.6740 N.3   158  TRP158     -0.1241
     47  CA         7.9040   16.6500  -11.9070 C.3   158  TRP158      0.1605
     48  C          7.7790   17.6440  -13.0370 C.2   158  TRP158      0.2264
     49  O          7.0060   18.5640  -12.9270 O.2   158  TRP158     -0.2867
     50  CB         6.6190   15.8400  -11.7400 C.3   158  TRP158      0.0550
     51  CG         6.7910   14.5870  -10.9270 C.ar  158  TRP158      0.0003
     52  CD1        6.5190   14.4160   -9.5940 C.ar  158  TRP158      0.0946
     53  CD2        7.2000   13.3150  -11.4200 C.ar  158  TRP158      0.0152
     54  NE1        6.7830   13.1180   -9.2220 N.ar  158  TRP158     -0.2442
     55  CE2        7.2030   12.4180  -10.3250 C.ar  158  TRP158      0.0810
     56  CE3        7.5660   12.8390  -12.6870 C.ar  158  TRP158      0.0012
     57  CZ2        7.5650   11.0650  -10.4650 C.ar  158  TRP158      0.0191
     58  CZ3        8.0210   11.5300  -12.8040 C.ar  158  TRP158      0.0001
     59  CH2        7.9560   10.6410  -11.7230 C.ar  158  TRP158      0.0015
     60  N          3.9760   15.9780  -19.4150 N.3   162  ALA162     -0.1231
     61  CA         2.9370   15.5790  -18.4570 C.3   162  ALA162      0.1694
     62  C          2.7040   16.6070  -17.3180 C.2   162  ALA162      0.2591
     63  O          1.6950   16.5050  -16.6260 O.2   162  ALA162     -0.2718
     64  CB         3.2230   14.1960  -17.9120 C.3   162  ALA162      0.0304
     65  N          3.5760   17.6370  -17.1890 N.am  163  ALA163     -0.1980
     66  CA         3.4020   18.7480  -16.2280 C.3   163  ALA163      0.1597
     67  C          2.3730   19.7450  -16.7660 C.2   163  ALA163      0.2287
     68  O          2.0760   20.7430  -16.1160 O.2   163  ALA163     -0.2864
     69  CB         4.7320   19.4720  -15.9690 C.3   163  ALA163      0.0319
     70  N         -0.7140   18.5580  -17.8000 N.3   165  ILE165     -0.1245
     71  CA        -1.9660   17.8300  -17.5170 C.3   165  ILE165      0.1561
     72  C         -2.6200   18.4580  -16.2840 C.2   165  ILE165      0.2260
     73  O         -2.0100   18.5140  -15.2230 O.2   165  ILE165     -0.2867
     74  CB        -1.6840   16.3130  -17.2800 C.3   165  ILE165      0.0252
     75  CG1       -1.2230   15.5980  -18.5650 C.3   165  ILE165      0.0019
     76  CG2       -2.8880   15.5980  -16.6490 C.3   165  ILE165      0.0019
     77  CD1       -0.5390   14.2600  -18.2610 C.3   165  ILE165      0.0001
     78  N         -0.7900    8.8350  -13.2540 N.3   175  PHE175     -0.1227
     79  CA         0.6490    8.8180  -13.4070 C.3   175  PHE175      0.1736
     80  C          1.1590    7.4560  -12.9760 C.2   175  PHE175      0.2595
     81  O          0.8210    6.9720  -11.8880 O.2   175  PHE175     -0.2718
     82  CB         1.2700    9.9340  -12.5720 C.3   175  PHE175      0.0547
     83  CG         0.8200   11.3290  -12.9490 C.ar  175  PHE175     -0.0202
     84  CD1        1.1440   11.8720  -14.1940 C.ar  175  PHE175     -0.0042
     85  CD2        0.1720   12.1370  -12.0290 C.ar  175  PHE175     -0.0042
     86  CE1        0.7510   13.1780  -14.5320 C.ar  175  PHE175     -0.0003
     87  CE2       -0.2170   13.4400  -12.3680 C.ar  175  PHE175     -0.0003
     88  CZ         0.0640   13.9450  -13.6200 C.ar  175  PHE175     -0.0000
     89  N          1.8940    6.8010  -13.8860 N.am  176  VAL176     -0.1966
     90  CA         2.5030    5.4910  -13.6380 C.3   176  VAL176      0.1727
     91  C          3.9940    5.5960  -13.9120 C.2   176  VAL176      0.2616
     92  O          4.3810    6.2180  -14.9030 O.2   176  VAL176     -0.2715
     93  CB         1.8380    4.2820  -14.3710 C.3   176  VAL176      0.0290
     94  CG1        0.5100    3.9100  -13.7320 C.3   176  VAL176      0.0023
     95  CG2        1.6940    4.4990  -15.8850 C.3   176  VAL176      0.0023
     96  N          4.8180    4.9820  -13.0520 N.am  177  SER177     -0.1950
     97  CA         6.2720    4.9880  -13.2060 C.3   177  SER177      0.1924
     98  C          6.7150    4.1740  -14.4490 C.2   177  SER177      0.2314
     99  O          6.1530    3.1270  -14.7290 O.2   177  SER177     -0.2863
    100  CB         6.9330    4.4810  -11.9180 C.3   177  SER177      0.2116
    101  OG         8.2440    3.9600  -12.0600 O.3   177  SER177     -0.2180
    102  N          8.0430    8.7160  -15.6380 N.3   183  ALA183     -0.1231
    103  CA         6.6420    8.3370  -15.6160 C.3   183  ALA183      0.1694
    104  C          5.9920    8.8160  -16.8910 C.2   183  ALA183      0.2592
    105  O          6.5310    9.6720  -17.5770 O.2   183  ALA183     -0.2718
    106  CB         5.9350    9.0090  -14.4160 C.3   183  ALA183      0.0304
    107  N          4.8160    8.2840  -17.1870 N.am  184  CYS184     -0.1970
    108  CA         3.9040    8.6920  -18.2580 C.3   184  CYS184      0.1712
    109  C          2.4800    8.5670  -17.6800 C.2   184  CYS184      0.2296
    110  O          2.3360    8.5200  -16.4620 O.2   184  CYS184     -0.2864
    111  CB         4.1070    7.8900  -19.5460 C.3   184  CYS184      0.0983
    112  SG         3.6540    6.1350  -19.4490 S.3   184  CYS184     -0.0798
    113  N         -4.0560   14.8760   -8.5830 N.3   201  TYR201     -0.1241
    114  CA        -2.7430   15.1750   -7.9910 C.3   201  TYR201      0.1605
    115  C         -2.5830   14.5620   -6.5850 C.2   201  TYR201      0.2264
    116  O         -1.5230   14.0000   -6.2890 O.2   201  TYR201     -0.2867
    117  CB        -2.4470   16.6990   -7.9370 C.3   201  TYR201      0.0534
    118  CG        -2.4580   17.4650   -9.2490 C.ar  201  TYR201     -0.0201
    119  CD1       -2.4560   16.7960  -10.4760 C.ar  201  TYR201     -0.0009
    120  CD2       -2.3420   18.8580   -9.2660 C.ar  201  TYR201     -0.0009
    121  CE1       -2.4160   17.4950  -11.6840 C.ar  201  TYR201      0.0417
    122  CE2       -2.3200   19.5670  -10.4660 C.ar  201  TYR201      0.0417
    123  CZ        -2.3630   18.8790  -11.6710 C.ar  201  TYR201      0.1957
    124  OH        -2.3480   19.5730  -12.8470 O.3   201  TYR201     -0.2866
    125  N         -4.0930   19.0920   -2.1820 N.3   205  PHE205     -0.1241
    126  CA        -3.3350   19.8930   -3.1500 C.3   205  PHE205      0.1605
    127  C         -3.8360   21.3150   -3.3560 C.2   205  PHE205      0.2264
    128  O         -3.0240   22.2370   -3.5540 O.2   205  PHE205     -0.2867
    129  CB        -3.2580   19.1710   -4.4980 C.3   205  PHE205      0.0534
    130  CG        -1.9310   18.4940   -4.6940 C.ar  205  PHE205     -0.0203
    131  CD1       -0.8430   19.1960   -5.1840 C.ar  205  PHE205     -0.0042
    132  CD2       -1.7530   17.1640   -4.3390 C.ar  205  PHE205     -0.0042
    133  CE1        0.3870   18.5740   -5.3370 C.ar  205  PHE205     -0.0003
    134  CE2       -0.5220   16.5350   -4.5170 C.ar  205  PHE205     -0.0003
    135  CZ         0.5340   17.2420   -5.0170 C.ar  205  PHE205     -0.0000
@<TRIPOS>BOND
     1   111   112    1
     2   111   108    1
     3    60    61    1
     4    75    77    1
     5    75    74    1
     6    61    64    1
     7    61    62    1
     8   108   109    1
     9   108   107    1
    10     1     2    1
    11    70    71    1
    12   109   110    2
    13   105   104    2
    14    71    74    1
    15    71    72    1
    16    62    65   am
    17    62    63    2
    18    74    76    1
    19    65    66    1
    20   107   104   am
    21   104   103    1
    22     2     3    1
    23    67    66    1
    24    67    68    2
    25     4     3    2
    26    72    73    2
    27    66    69    1
    28    95    93    1
    29   102   103    1
    30   103   106    1
    31    92    91    2
    32    99    98    2
    33    86    84   ar
    34    86    88   ar
    35    98    97    1
    36    93    94    1
    37    93    90    1
    38    84    83   ar
    39    91    90    1
    40    91    96   am
    41    89    90    1
    42    89    80   am
    43    88    87   ar
    44    13    15   ar
    45    13    11   ar
    46    15    14   ar
    47    79    78    1
    48    79    80    1
    49    79    82    1
    50    97    96    1
    51    97   100    1
    52    48    49    2
    53    48    47    1
    54    80    81    2
    55    83    82    1
    56    83    85   ar
    57   124   123    1
    58    58    56   ar
    59    58    59   ar
    60    11    10   ar
    61    56    53   ar
    62    14    12   ar
    63    87    85   ar
    64   101   100    1
    65    10    12   ar
    66    10     9    1
    67    47    50    1
    68    47    46    1
    69    21    20    1
    70    50    51    1
    71    20    17    1
    72    59    57   ar
    73   121   123   ar
    74   121   119   ar
    75   123   122   ar
    76    53    51   ar
    77    53    55   ar
    78     9     6    1
    79    51    52   ar
    80   119   118   ar
    81   122   120   ar
    82    57    55   ar
    83    55    54   ar
    84    17    16    1
    85    17    18    1
    86    16     7   am
    87     8     7    2
    88     7     6    1
    89     6     5    1
    90    52    54   ar
    91    19    18    2
    92   120   118   ar
    93    18    22   am
    94   118   117    1
    95   113   114    1
    96    22    23    1
    97   114   117    1
    98   114   115    1
    99    40    39    2
   100    28    26    1
   101    23    26    1
   102    23    24    1
   103    39    38    1
   104   115   116    2
   105    35    34    1
   106    35    36    1
   107    26    27    1
   108    24    25    2
   109    24    29   am
   110    38    41    1
   111    38    37    1
   112    41    42    1
   113    29    30    1
   114    34    33    1
   115   133   131   ar
   116   133   135   ar
   117    33    30    1
   118   131   130   ar
   119   135   134   ar
   120    44    43    2
   121   130   129    1
   122   130   132   ar
   123    30    31    1
   124    43    42    1
   125    43    45   am
   126   134   132   ar
   127   129   126    1
   128    32    31    2
   129   128   127    2
   130   127   126    1
   131   126   125    1
