@<TRIPOS>MOLECULE
tmp/5wbxB00.pdb
 95 88 0 0 0
SMALL
GASTEIGER

@<TRIPOS>ATOM
      1  N          9.4170  -10.3400  -21.6860 N.3    18  PHE18      -0.1241
      2  CA         8.2830  -10.9310  -21.0200 C.3    18  PHE18       0.1605
      3  C          7.8620  -12.2880  -21.5860 C.2    18  PHE18       0.2264
      4  O          7.6040  -13.1830  -20.8670 O.2    18  PHE18      -0.2867
      5  CB         7.1230   -9.9790  -21.0790 C.3    18  PHE18       0.0534
      6  CG         7.4390   -8.6140  -20.5690 C.ar   18  PHE18      -0.0203
      7  CD1        7.3970   -8.3390  -19.2340 C.ar   18  PHE18      -0.0042
      8  CD2        7.7940   -7.6140  -21.4230 C.ar   18  PHE18      -0.0042
      9  CE1        7.6880   -7.0800  -18.7710 C.ar   18  PHE18      -0.0003
     10  CE2        8.1010   -6.3630  -20.9590 C.ar   18  PHE18      -0.0003
     11  CZ         8.0470   -6.0890  -19.6340 C.ar   18  PHE18      -0.0000
     12  N          2.1770  -13.4810  -23.6910 N.3    26  ILE26      -0.1245
     13  CA         2.6120  -13.3780  -22.2960 C.3    26  ILE26       0.1561
     14  C          1.5450  -13.9980  -21.4080 C.2    26  ILE26       0.2260
     15  O          0.3990  -13.5390  -21.4070 O.2    26  ILE26      -0.2867
     16  CB         2.8440  -11.9180  -21.8760 C.3    26  ILE26       0.0252
     17  CG1        3.9240  -11.2500  -22.7350 C.3    26  ILE26       0.0019
     18  CG2        3.1870  -11.8490  -20.3720 C.3    26  ILE26       0.0019
     19  CD1        3.9720   -9.7500  -22.5490 C.3    26  ILE26       0.0001
     20  N          4.8760  -13.7820  -16.4060 N.3    31  LEU31      -0.1245
     21  CA         4.9600  -12.5390  -15.6340 C.3    31  LEU31       0.1561
     22  C          5.4320  -12.8060  -14.2100 C.2    31  LEU31       0.2260
     23  O          6.1260  -11.9740  -13.6170 O.2    31  LEU31      -0.2867
     24  CB         3.6090  -11.8190  -15.5980 C.3    31  LEU31       0.0270
     25  CG         3.2000  -10.9940  -16.8180 C.3    31  LEU31       0.0019
     26  CD1        2.0100  -10.1170  -16.4440 C.3    31  LEU31       0.0001
     27  CD2        4.3580  -10.1470  -17.3390 C.3    31  LEU31       0.0001
     28  N         -2.9380   -8.3180  -13.6250 N.3    50  MET50      -0.1245
     29  CA        -2.0650   -7.6630  -14.5980 C.3    50  MET50       0.1570
     30  C         -2.3800   -8.1090  -16.0200 C.2    50  MET50       0.2261
     31  O         -2.4150   -7.2820  -16.9390 O.2    50  MET50      -0.2867
     32  CB        -0.5990   -7.9580  -14.2950 C.3    50  MET50       0.0387
     33  CG         0.2650   -6.7500  -14.4590 C.3    50  MET50       0.0595
     34  SD         0.3980   -5.9510  -12.8670 S.3    50  MET50      -0.1393
     35  CE         1.3780   -7.2170  -12.0550 C.3    50  MET50       0.0692
     36  N         -6.0200   -6.8020  -17.1400 N.3    53  GLU53      -0.1231
     37  CA        -6.1380   -5.3670  -17.3770 C.3    53  GLU53       0.1699
     38  C         -5.7290   -5.0010  -18.8000 C.2    53  GLU53       0.2592
     39  O         -6.1970   -3.9940  -19.3380 O.2    53  GLU53      -0.2718
     40  CB        -5.2920   -4.6070  -16.3500 C.3    53  GLU53       0.0402
     41  CG        -5.5790   -3.1180  -16.2510 C.3    53  GLU53       0.1161
     42  CD        -6.8250   -2.8010  -15.4450 C.2    53  GLU53       0.3649
     43  OE1       -7.1720   -1.6030  -15.3460 O.co2  53  GLU53      -0.2457
     44  OE2       -7.4520   -3.7380  -14.9020 O.co2  53  GLU53      -0.2457
     45  N         -4.8880   -5.8200  -19.4240 N.am   54  VAL54      -0.1980
     46  CA        -4.3750   -5.5560  -20.7600 C.3    54  VAL54       0.1595
     47  C         -4.9740   -6.4870  -21.8090 C.2    54  VAL54       0.2287
     48  O         -5.0240   -6.1100  -22.9910 O.2    54  VAL54      -0.2864
     49  CB        -2.8330   -5.6510  -20.7710 C.3    54  VAL54       0.0276
     50  CG1       -2.2600   -5.4530  -22.1610 C.3    54  VAL54       0.0022
     51  CG2       -2.2460   -4.6230  -19.8240 C.3    54  VAL54       0.0022
     52  N         -1.4940  -12.0370  -23.0260 N.3    62  ILE62      -0.1245
     53  CA        -1.2360  -10.7350  -23.6450 C.3    62  ILE62       0.1561
     54  C         -0.4250  -10.9530  -24.9140 C.2    62  ILE62       0.2260
     55  O          0.6660  -11.5340  -24.8660 O.2    62  ILE62      -0.2867
     56  CB        -0.4840   -9.7810  -22.7020 C.3    62  ILE62       0.0252
     57  CG1       -1.3410   -9.4070  -21.4940 C.3    62  ILE62       0.0019
     58  CG2       -0.0240   -8.5270  -23.4610 C.3    62  ILE62       0.0019
     59  CD1       -0.5460   -8.6570  -20.4160 C.3    62  ILE62       0.0001
     60  N         -0.0320   -5.6070  -25.7680 N.3    67  PHE67      -0.1241
     61  CA         1.1410   -5.0660  -25.0900 C.3    67  PHE67       0.1605
     62  C          1.4340   -3.6520  -25.5680 C.2    67  PHE67       0.2264
     63  O          1.4850   -2.7070  -24.7720 O.2    67  PHE67      -0.2867
     64  CB         2.3300   -5.9870  -25.3520 C.3    67  PHE67       0.0534
     65  CG         3.6200   -5.5340  -24.7310 C.ar   67  PHE67      -0.0203
     66  CD1        3.9180   -5.8440  -23.4150 C.ar   67  PHE67      -0.0042
     67  CD2        4.5570   -4.8420  -25.4800 C.ar   67  PHE67      -0.0042
     68  CE1        5.1200   -5.4490  -22.8490 C.ar   67  PHE67      -0.0003
     69  CE2        5.7600   -4.4510  -24.9200 C.ar   67  PHE67      -0.0003
     70  CZ         6.0390   -4.7520  -23.5990 C.ar   67  PHE67      -0.0000
     71  N         -1.1170   -0.7570  -24.7690 N.3    70  MET70      -0.1230
     72  CA        -1.1350   -0.2300  -23.4080 C.3    70  MET70       0.1702
     73  C          0.1300    0.5660  -23.0710 C.2    70  MET70       0.2592
     74  O          0.0660    1.5190  -22.2850 O.2    70  MET70      -0.2718
     75  CB        -1.3600   -1.3780  -22.4240 C.3    70  MET70       0.0401
     76  CG        -1.2240   -1.0070  -20.9660 C.3    70  MET70       0.0596
     77  SD         0.4490   -1.3760  -20.4780 S.3    70  MET70      -0.1393
     78  CE         0.7280   -2.8750  -21.4290 C.3    70  MET70       0.0692
     79  N          1.2820    0.2070  -23.6430 N.am   71  MET71      -0.1979
     80  CA         2.4610    1.0540  -23.4910 C.3    71  MET71       0.1605
     81  C          2.1820    2.4700  -23.9780 C.2    71  MET71       0.2287
     82  O          2.6690    3.4440  -23.3920 O.2    71  MET71      -0.2864
     83  CB         3.6480    0.4530  -24.2470 C.3    71  MET71       0.0413
     84  CG         4.2060   -0.8300  -23.6490 C.3    71  MET71       0.0598
     85  SD         5.0040   -0.5410  -22.0510 S.3    71  MET71      -0.1393
     86  CE         3.7340   -1.0860  -20.9660 C.3    71  MET71       0.0692
     87  N          1.2060    4.8680  -21.3650 N.3    74  LYS74      -0.1245
     88  CA         2.0200    4.9040  -20.1530 C.3    74  LYS74       0.1561
     89  C          3.3880    5.5300  -20.3970 C.2    74  LYS74       0.2260
     90  O          4.3350    5.2640  -19.6580 O.2    74  LYS74      -0.2867
     91  CB         2.1730    3.5000  -19.5730 C.3    74  LYS74       0.0271
     92  CG         0.8570    2.7740  -19.3220 C.3    74  LYS74       0.0035
     93  CD         0.2430    3.1690  -17.9860 C.3    74  LYS74       0.0206
     94  CE        -0.9960    2.3240  -17.7040 C.3    74  LYS74       0.1093
     95  NZ        -1.3410    2.2600  -16.2510 N.3    74  LYS74      -0.1314
@<TRIPOS>BOND
     1    60    61    1
     2    62    61    1
     3    62    63    2
     4    67    69   ar
     5    67    65   ar
     6    64    61    1
     7    64    65    1
     8    69    70   ar
     9    54    55    2
    10    54    53    1
    11    71    72    1
    12    65    66   ar
    13    83    84    1
    14    83    80    1
    15    81    80    1
    16    81    82    2
    17    12    13    1
    18    84    85    1
    19    53    52    1
    20    53    56    1
    21    79    80    1
    22    79    73   am
    23    70    68   ar
    24    58    56    1
    25    66    68   ar
    26    72    73    1
    27    72    75    1
    28    73    74    2
    29    48    47    2
    30    17    19    1
    31    17    16    1
    32    56    57    1
    33    75    76    1
    34    13    16    1
    35    13    14    1
    36    50    49    1
    37    85    86    1
    38    16    18    1
    39    47    46    1
    40     1     2    1
    41     3     2    1
    42     3     4    2
    43    57    59    1
    44    78    77    1
    45     8    10   ar
    46     8     6   ar
    47    14    15    2
    48    87    88    1
    49     5     2    1
    50     5     6    1
    51    76    77    1
    52    10    11   ar
    53    49    46    1
    54    49    51    1
    55    46    45    1
    56     6     7   ar
    57    89    88    1
    58    89    90    2
    59    88    91    1
    60    11     9   ar
    61    91    92    1
    62    45    38   am
    63    39    38    2
    64    92    93    1
    65     7     9   ar
    66    38    37    1
    67    93    94    1
    68    94    95    1
    69    37    36    1
    70    37    40    1
    71    27    25    1
    72    31    30    2
    73    25    26    1
    74    25    24    1
    75    20    21    1
    76    40    41    1
    77    41    42    1
    78    30    29    1
    79    21    24    1
    80    21    22    1
    81    42    43   ar
    82    42    44   ar
    83    29    32    1
    84    29    28    1
    85    33    32    1
    86    33    34    1
    87    22    23    2
    88    34    35    1
