@<TRIPOS>MOLECULE
tmp/5wbzA00.pdb
 147 138 0 0 0
SMALL
GASTEIGER

@<TRIPOS>ATOM
      1  N         -8.1700   -3.6820   30.4090 N.3   103  ASN103     -0.1240
      2  CA        -8.2760   -3.8020   28.9440 C.3   103  ASN103      0.1653
      3  C         -7.4980   -2.7170   28.1480 C.2   103  ASN103      0.2266
      4  O         -7.5290   -2.7100   26.9100 O.2   103  ASN103     -0.2867
      5  CB        -9.7540   -3.8000   28.5180 C.3   103  ASN103      0.1155
      6  CG       -10.5500   -2.5980   28.9780 C.2   103  ASN103      0.2627
      7  OD1      -10.0430   -1.4810   29.0870 O.2   103  ASN103     -0.2716
      8  ND2      -11.8390   -2.7980   29.2200 N.am  103  ASN103     -0.0877
      9  N         -8.3410    0.4200   27.8100 N.3   105  ASN105     -0.1225
     10  CA        -9.1760    1.4900   27.2730 C.3   105  ASN105      0.1785
     11  C         -8.8070    2.7950   27.9770 C.2   105  ASN105      0.2597
     12  O         -8.6050    2.8190   29.1940 O.2   105  ASN105     -0.2718
     13  CB       -10.6720    1.2060   27.4510 C.3   105  ASN105      0.1169
     14  CG       -11.2680    0.0730   26.6360 C.2   105  ASN105      0.2627
     15  OD1      -10.7330   -0.3860   25.6260 O.2   105  ASN105     -0.2716
     16  ND2      -12.4250   -0.3920   27.0520 N.am  105  ASN105     -0.0877
     17  N         -8.6450    3.8500   27.1970 N.am  106  ARG106     -0.1979
     18  CA        -8.3020    5.1440   27.7190 C.3   106  ARG106      0.1597
     19  C         -9.4190    6.0850   27.3590 C.2   106  ARG106      0.2287
     20  O         -9.9270    6.0510   26.2280 O.2   106  ARG106     -0.2864
     21  CB        -6.8840    5.6130   27.2550 C.3   106  ARG106      0.0334
     22  CG        -6.8030    6.5820   26.0570 C.3   106  ARG106      0.0492
     23  CD        -7.0020    5.8270   24.7800 C.3   106  ARG106      0.2205
     24  NE        -7.0890    6.6620   23.5750 N.pl3 106  ARG106     -0.0865
     25  CZ        -8.2210    7.0450   22.9940 C.cat 106  ARG106      0.5346
     26  NH1       -9.3900    6.8160   23.5800 N.pl3 106  ARG106      0.1354
     27  NH2       -8.1920    7.6880   21.8380 N.pl3 106  ARG106      0.1354
     28  N         -9.7690    5.3520   12.6930 N.3   191  LYS191     -0.1245
     29  CA       -10.8830    4.4070   12.7090 C.3   191  LYS191      0.1561
     30  C        -12.1770    5.1830   13.0620 C.2   191  LYS191      0.2260
     31  O        -13.2180    4.9280   12.4490 O.2   191  LYS191     -0.2867
     32  CB       -10.5910    3.2800   13.7230 C.3   191  LYS191      0.0271
     33  CG       -11.7450    2.3260   13.9640 C.3   191  LYS191      0.0035
     34  CD       -11.4450    1.4160   15.1240 C.3   191  LYS191      0.0206
     35  CE       -12.5960    0.4920   15.4300 C.3   191  LYS191      0.1093
     36  NZ       -12.3260   -0.3330   16.6350 N.3   191  LYS191     -0.1314
     37  N         -5.3190    2.5000   10.5720 N.3   222  ALA222     -0.1231
     38  CA        -5.1600    1.5090   11.6370 C.3   222  ALA222      0.1694
     39  C         -6.5650    1.2140   12.2180 C.2   222  ALA222      0.2592
     40  O         -7.4410    2.0970   12.2330 O.2   222  ALA222     -0.2718
     41  CB        -4.2280    2.0280   12.7180 C.3   222  ALA222      0.0304
     42  N         -6.7930   -0.0260   12.6450 N.am  223  TRP223     -0.1962
     43  CA        -8.0960   -0.4640   13.1410 C.3   223  TRP223      0.1771
     44  C         -7.9820   -1.3350   14.4020 C.2   223  TRP223      0.2619
     45  O         -8.5090   -2.4520   14.4500 O.2   223  TRP223     -0.2715
     46  CB        -8.8840   -1.1660   12.0110 C.3   223  TRP223      0.0590
     47  CG       -10.3830   -1.0740   12.1350 C.ar  223  TRP223      0.0006
     48  CD1      -11.1970   -1.8770   12.8800 C.ar  223  TRP223      0.0946
     49  CD2      -11.2470   -0.1590   11.4400 C.ar  223  TRP223      0.0152
     50  NE1      -12.5200   -1.5480   12.6610 N.ar  223  TRP223     -0.2442
     51  CE2      -12.5780   -0.4820   11.7990 C.ar  223  TRP223      0.0810
     52  CE3      -11.0260    0.9000   10.5420 C.ar  223  TRP223      0.0012
     53  CZ2      -13.6810    0.2290   11.3070 C.ar  223  TRP223      0.0191
     54  CZ3      -12.1170    1.6020   10.0540 C.ar  223  TRP223      0.0001
     55  CH2      -13.4290    1.2600   10.4280 C.ar  223  TRP223      0.0015
     56  N         -7.3010   -0.7900   15.4350 N.am  224  ALA224     -0.1963
     57  CA        -7.1050   -1.4080   16.7490 C.3   224  ALA224      0.1728
     58  C         -6.5440   -2.8420   16.6480 C.2   224  ALA224      0.2616
     59  O         -5.4790   -3.0200   16.0440 O.2   224  ALA224     -0.2715
     60  CB        -8.4000   -1.3390   17.5700 C.3   224  ALA224      0.0334
     61  N         -7.2720   -3.8570   17.1660 N.am  225  GLU225     -0.1977
     62  CA        -6.8450   -5.2620   17.1450 C.3   225  GLU225      0.1602
     63  C         -6.9430   -5.8990   15.7520 C.2   225  GLU225      0.2287
     64  O         -6.4040   -6.9840   15.5480 O.2   225  GLU225     -0.2864
     65  CB        -7.5510   -6.1110   18.2220 C.3   225  GLU225      0.0415
     66  CG        -9.0690   -5.9870   18.2690 C.3   225  GLU225      0.1163
     67  CD        -9.5950   -4.7550   18.9870 C.2   225  GLU225      0.3649
     68  OE1      -10.2950   -3.9470   18.3380 O.co2 225  GLU225     -0.2457
     69  OE2       -9.2950   -4.5890   20.1910 O.co2 225  GLU225     -0.2457
     70  N         -5.3670   -4.7250   13.2670 N.3   227  GLY227     -0.1225
     71  CA        -4.1170   -4.3220   12.6470 C.3   227  GLY227      0.1811
     72  C         -4.2880   -3.0360   11.8780 C.2   227  GLY227      0.2280
     73  O         -5.0180   -2.1450   12.3110 O.2   227  GLY227     -0.2866
     74  N         -2.1060   -6.9820   13.7030 N.3   242  ALA242     -0.1245
     75  CA        -1.7060   -6.2770   14.9030 C.3   242  ALA242      0.1562
     76  C         -0.7380   -7.1870   15.6500 C.2   242  ALA242      0.2260
     77  O         -0.7060   -8.3860   15.3860 O.2   242  ALA242     -0.2867
     78  CB        -2.9420   -6.0210   15.7700 C.3   242  ALA242      0.0290
     79  N         -0.8260   -7.6700   19.2990 N.3   244  PRO244     -0.2103
     80  CA        -1.3160   -7.4150   20.6630 C.3   244  PRO244      0.1489
     81  C         -0.4800   -8.0610   21.7520 C.2   244  PRO244      0.2417
     82  O         -0.0900   -9.2170   21.6050 O.2   244  PRO244     -0.2734
     83  CB        -2.7230   -8.0490   20.6660 C.3   244  PRO244      0.0282
     84  CG        -2.6700   -9.0910   19.6040 C.3   244  PRO244      0.0208
     85  CD        -1.8280   -8.4490   18.5330 C.3   244  PRO244      0.0893
     86  N         -0.2570   -7.3390   22.8740 N.am  245  PRO245     -0.2729
     87  CA         0.4370   -7.9640   24.0040 C.3   245  PRO245      0.1401
     88  C         -0.5300   -8.9690   24.6520 C.2   245  PRO245      0.2269
     89  O         -1.7490   -8.7630   24.5850 O.2   245  PRO245     -0.2865
     90  CB         0.6730   -6.7750   24.9610 C.3   245  PRO245      0.0296
     91  CG        -0.4170   -5.8060   24.6650 C.3   245  PRO245      0.0237
     92  CD        -0.6910   -5.9520   23.1960 C.3   245  PRO245      0.0939
     93  N         -3.2200   -6.3510   27.4980 N.3   248  VAL248     -0.1245
     94  CA        -3.3730   -4.9560   27.0370 C.3   248  VAL248      0.1561
     95  C         -3.6850   -4.0860   28.2790 C.2   248  VAL248      0.2260
     96  O         -4.7680   -4.2420   28.8510 O.2   248  VAL248     -0.2867
     97  CB        -4.4870   -4.8020   25.9730 C.3   248  VAL248      0.0252
     98  CG1       -4.4800   -3.3920   25.3770 C.3   248  VAL248      0.0019
     99  CG2       -4.3690   -5.8560   24.8750 C.3   248  VAL248      0.0019
    100  N         -3.6520    1.9000   26.1880 N.3   251  THR251     -0.1218
    101  CA        -3.6770    2.2770   24.7660 C.3   251  THR251      0.1862
    102  C         -3.4870    3.7820   24.5260 C.2   251  THR251      0.2287
    103  O         -3.5600    4.2140   23.3640 O.2   251  THR251     -0.2866
    104  CB        -4.9470    1.7540   24.0700 C.3   251  THR251      0.1770
    105  OG1       -6.0810    2.3850   24.6680 O.3   251  THR251     -0.2211
    106  CG2       -5.0550    0.2290   24.1130 C.3   251  THR251      0.0375
    107  N         -1.2560    5.0010   21.6230 N.3   254  ALA254     -0.1231
    108  CA        -0.9730    3.8510   20.7310 C.3   254  ALA254      0.1694
    109  C         -1.0570    4.2940   19.2680 C.2   254  ALA254      0.2592
    110  O         -0.2030    3.9150   18.4800 O.2   254  ALA254     -0.2718
    111  CB        -1.9360    2.6900   20.9960 C.3   254  ALA254      0.0304
    112  N         -2.0570    5.1130   18.9430 N.am  255  GLY255     -0.1957
    113  CA        -2.2540    5.7280   17.6300 C.3   255  GLY255      0.1869
    114  C         -1.0580    6.5740   17.2320 C.2   255  GLY255      0.2309
    115  O         -0.5440    6.4390   16.1240 O.2   255  GLY255     -0.2863
    116  N          1.9440    4.2610   16.5420 N.3   258  PHE258     -0.1241
    117  CA         1.7910    3.7060   15.2070 C.3   258  PHE258      0.1605
    118  C          2.2070    4.7390   14.1140 C.2   258  PHE258      0.2264
    119  O          2.9950    4.3830   13.2320 O.2   258  PHE258     -0.2867
    120  CB         0.3510    3.2120   14.9860 C.3   258  PHE258      0.0534
    121  CG         0.0320    2.8580   13.5450 C.ar  258  PHE258     -0.0203
    122  CD1        0.3660    1.6060   13.0260 C.ar  258  PHE258     -0.0042
    123  CD2       -0.5910    3.7790   12.7050 C.ar  258  PHE258     -0.0042
    124  CE1        0.1020    1.2840   11.6890 C.ar  258  PHE258     -0.0003
    125  CE2       -0.8700    3.4540   11.3680 C.ar  258  PHE258     -0.0003
    126  CZ        -0.5270    2.2010   10.8700 C.ar  258  PHE258     -0.0000
    127  N          2.5240   -1.4630   13.5320 N.3   280  CYS280     -0.1235
    128  CA         1.7100   -2.4020   14.3120 C.3   280  CYS280      0.1677
    129  C          2.5230   -3.0170   15.4330 C.2   280  CYS280      0.2270
    130  O          2.0150   -3.2060   16.5330 O.2   280  CYS280     -0.2867
    131  CB         1.1270   -3.4770   13.4010 C.3   280  CYS280      0.0956
    132  SG        -0.1330   -2.8550   12.2680 S.3   280  CYS280     -0.0801
    133  N          3.3470   -0.1250   18.1230 N.3   283  ALA283     -0.1231
    134  CA         2.0740    0.2180   18.7520 C.3   283  ALA283      0.1694
    135  C          1.5610   -0.8980   19.6940 C.2   283  ALA283      0.2592
    136  O          1.0250   -0.5770   20.7600 O.2   283  ALA283     -0.2718
    137  CB         1.0360    0.5210   17.7000 C.3   283  ALA283      0.0304
    138  N          1.7630   -2.1690   19.3170 N.am  284  GLY284     -0.1957
    139  CA         1.3210   -3.3170   20.0960 C.3   284  GLY284      0.1869
    140  C          2.1760   -3.5500   21.3170 C.2   284  GLY284      0.2309
    141  O          1.6690   -3.9230   22.3750 O.2   284  GLY284     -0.2863
    142  N          1.0170   -1.0140   23.9830 N.3   287  CYS287     -0.1235
    143  CA        -0.2410   -1.3930   24.6330 C.3   287  CYS287      0.1677
    144  C         -0.0580   -2.3220   25.8470 C.2   287  CYS287      0.2270
    145  O         -0.9350   -2.3940   26.6920 O.2   287  CYS287     -0.2867
    146  CB        -1.2170   -1.9710   23.6230 C.3   287  CYS287      0.0956
    147  SG        -1.8480   -0.7590   22.4600 S.3   287  CYS287     -0.0801
@<TRIPOS>BOND
     1    54    55   ar
     2    54    52   ar
     3    55    53   ar
     4    52    49   ar
     5    37    38    1
     6   126   125   ar
     7   126   124   ar
     8    53    51   ar
     9   125   123   ar
    10    49    51   ar
    11    49    47   ar
    12    38    39    1
    13    38    41    1
    14   124   122   ar
    15    51    50   ar
    16    72    73    2
    17    72    71    1
    18    46    47    1
    19    46    43    1
    20    47    48   ar
    21    39    40    2
    22    39    42   am
    23   132   131    1
    24    31    30    2
    25    42    43    1
    26    71    70    1
    27    50    48   ar
    28    28    29    1
    29   123   121   ar
    30    29    30    1
    31    29    32    1
    32   122   121   ar
    33    43    44    1
    34   119   118    2
    35   131   128    1
    36   127   128    1
    37   121   120    1
    38    74    75    1
    39    32    33    1
    40    33    34    1
    41   118   117    1
    42   128   129    1
    43    44    45    2
    44    44    56   am
    45    75    76    1
    46    75    78    1
    47   120   117    1
    48    34    35    1
    49   117   116    1
    50    77    76    2
    51    35    36    1
    52   129   130    2
    53    56    57    1
    54    64    63    2
    55    63    62    1
    56    59    58    2
    57   115   114    2
    58    58    57    1
    59    58    61   am
    60    57    60    1
    61    62    61    1
    62    62    65    1
    63   114   113    1
    64   113   112    1
    65   137   134    1
    66   133   134    1
    67    65    66    1
    68    66    67    1
    69    68    67   ar
    70   110   109    2
    71    85    79    1
    72    85    84    1
    73   134   135    1
    74   112   109   am
    75    67    69   ar
    76   109   108    1
    77    79    80    1
    78   138   135   am
    79   138   139    1
    80    84    83    1
    81   135   136    2
    82   139   140    1
    83    80    83    1
    84    80    81    1
    85   108   111    1
    86   108   107    1
    87   140   141    2
    88    82    81    2
    89    81    86   am
    90    27    25    1
    91   147   146    1
    92    86    92    1
    93    86    87    1
    94    25    24    2
    95    25    26    1
    96    92    91    1
    97   103   102    2
    98    24    23    1
    99   146   143    1
   100   142   143    1
   101    87    88    1
   102    87    90    1
   103   104   106    1
   104   104   105    1
   105   104   101    1
   106   102   101    1
   107    89    88    2
   108   143   144    1
   109    91    90    1
   110   101   100    1
   111    23    22    1
   112    99    97    1
   113    98    97    1
   114    15    14    2
   115   144   145    2
   116    97    94    1
   117    22    21    1
   118    20    19    2
   119    14    16   am
   120    14    13    1
   121     4     3    2
   122    94    93    1
   123    94    95    1
   124    17    18    1
   125    17    11   am
   126    21    18    1
   127    10    13    1
   128    10     9    1
   129    10    11    1
   130    19    18    1
   131    11    12    2
   132     3     2    1
   133    95    96    2
   134     5     2    1
   135     5     6    1
   136     2     1    1
   137     6     7    2
   138     6     8   am
