@<TRIPOS>MOLECULE
tmp/5wc2A00.pdb
 142 136 0 0 0
SMALL
GASTEIGER

@<TRIPOS>ATOM
      1  N         44.2680  122.3090   -4.4540 N.3    92  LEU92      -0.1245
      2  CA        44.7560  121.2840   -5.3750 C.3    92  LEU92       0.1561
      3  C         44.3660  121.6010   -6.8170 C.2    92  LEU92       0.2260
      4  O         45.1900  121.5020   -7.7340 O.2    92  LEU92      -0.2867
      5  CB        44.2090  119.9190   -4.9580 C.3    92  LEU92       0.0270
      6  CG        44.8340  118.6710   -5.5850 C.3    92  LEU92       0.0019
      7  CD1       46.3440  118.6170   -5.3870 C.3    92  LEU92       0.0001
      8  CD2       44.1900  117.4220   -4.9910 C.3    92  LEU92       0.0001
      9  N         46.5890  124.0350   -8.4250 N.3    95  SER95      -0.1202
     10  CA        47.9580  123.5550   -8.5680 C.3    95  SER95       0.2020
     11  C         48.1460  122.6940   -9.8120 C.2    95  SER95       0.2619
     12  O         49.2890  122.4550  -10.2130 O.2    95  SER95      -0.2717
     13  CB        48.3640  122.7550   -7.3310 C.3    95  SER95       0.2103
     14  OG        47.7900  121.4550   -7.3540 O.3    95  SER95      -0.2182
     15  N         47.0620  122.2190  -10.4230 N.am   96  LEU96      -0.1965
     16  CA        47.1460  121.3660  -11.6050 C.3    96  LEU96       0.1728
     17  C         47.0240  122.2460  -12.8450 C.2    96  LEU96       0.2616
     18  O         45.9850  122.8750  -13.0720 O.2    96  LEU96      -0.2715
     19  CB        46.0600  120.2920  -11.5640 C.3    96  LEU96       0.0311
     20  CG        46.0900  119.4000  -10.3230 C.3    96  LEU96       0.0022
     21  CD1       44.8560  118.5130  -10.2790 C.3    96  LEU96       0.0001
     22  CD2       47.3590  118.5600  -10.2880 C.3    96  LEU96       0.0001
     23  N         48.0840  122.2890  -13.6460 N.am   97  VAL97      -0.1963
     24  CA        48.1550  123.1350  -14.8330 C.3    97  VAL97       0.1727
     25  C         48.0640  122.2340  -16.0560 C.2    97  VAL97       0.2616
     26  O         49.0390  121.5650  -16.4150 O.2    97  VAL97      -0.2715
     27  CB        49.4460  123.9640  -14.8640 C.3    97  VAL97       0.0290
     28  CG1       49.5000  124.8250  -16.1260 C.3    97  VAL97       0.0023
     29  CG2       49.5650  124.8210  -13.6100 C.3    97  VAL97       0.0023
     30  N         46.9150  122.2290  -16.7160 N.am   98  TYR98      -0.1974
     31  CA        46.7570  121.5180  -17.9760 C.3    98  TYR98       0.1639
     32  C         46.5090  122.5110  -19.1010 C.2    98  TYR98       0.2290
     33  O         46.3280  123.7110  -18.8810 O.2    98  TYR98      -0.2864
     34  CB        45.6160  120.4980  -17.8900 C.3    98  TYR98       0.0560
     35  CG        45.8710  119.4490  -16.8400 C.ar   98  TYR98      -0.0198
     36  CD1       46.8190  118.4540  -17.0450 C.ar   98  TYR98      -0.0009
     37  CD2       45.1870  119.4650  -15.6330 C.ar   98  TYR98      -0.0009
     38  CE1       47.0720  117.5000  -16.0780 C.ar   98  TYR98       0.0417
     39  CE2       45.4330  118.5150  -14.6630 C.ar   98  TYR98       0.0417
     40  CZ        46.3770  117.5380  -14.8900 C.ar   98  TYR98       0.1957
     41  OH        46.6160  116.5950  -13.9210 O.3    98  TYR98      -0.2866
     42  N         52.0200  107.8280  -16.1260 N.3   138  PRO138     -0.2102
     43  CA        52.0900  108.1190  -14.6880 C.3   138  PRO138      0.1504
     44  C         52.7340  109.4660  -14.4070 C.2   138  PRO138      0.2576
     45  O         53.6300  109.9190  -15.1220 O.2   138  PRO138     -0.2718
     46  CB        52.9390  106.9670  -14.1330 C.3   138  PRO138      0.0282
     47  CG        53.6490  106.3920  -15.3100 C.3   138  PRO138      0.0208
     48  CD        52.7520  106.6040  -16.4800 C.3   138  PRO138      0.0893
     49  N         52.2540  110.1120  -13.3460 N.am  139  GLY139     -0.1943
     50  CA        52.7980  111.3790  -12.9070 C.3   139  GLY139      0.2014
     51  C         52.1790  112.6090  -13.5280 C.2   139  GLY139      0.2640
     52  O         52.7110  113.7090  -13.3350 O.2   139  GLY139     -0.2714
     53  N         51.0730  112.4700  -14.2550 N.am  140  THR140     -0.1936
     54  CA        50.4350  113.6010  -14.9120 C.3   140  THR140      0.2028
     55  C         49.3060  114.2090  -14.0860 C.2   140  THR140      0.2643
     56  O         48.5450  115.0280  -14.6100 O.2   140  THR140     -0.2714
     57  CB        49.9040  113.1860  -16.2890 C.3   140  THR140      0.1808
     58  OG1       49.0450  112.0470  -16.1590 O.3   140  THR140     -0.2208
     59  CG2       51.0530  112.8500  -17.2280 C.3   140  THR140      0.0379
     60  N         49.1800  113.8380  -12.8170 N.am  141  GLY141     -0.1939
     61  CA        48.1990  114.4560  -11.9460 C.3   141  GLY141      0.2014
     62  C         46.8240  113.8280  -11.9740 C.2   141  GLY141      0.2639
     63  O         45.8610  114.4690  -11.5390 O.2   141  GLY141     -0.2714
     64  N         46.7030  112.5900  -12.4560 N.am  142  LYS142     -0.1963
     65  CA        45.3890  111.9790  -12.6450 C.3   142  LYS142      0.1728
     66  C         44.6670  111.7860  -11.3160 C.2   142  LYS142      0.2617
     67  O         43.5030  112.1790  -11.1670 O.2   142  LYS142     -0.2715
     68  CB        45.5390  110.6460  -13.3790 C.3   142  LYS142      0.0311
     69  CG        45.6790  110.7940  -14.8880 C.3   142  LYS142      0.0038
     70  CD        46.0630  109.4780  -15.5590 C.3   142  LYS142      0.0206
     71  CE        47.5400  109.1640  -15.3770 C.3   142  LYS142      0.1093
     72  NZ        47.7840  108.1460  -14.3270 N.3   142  LYS142     -0.1314
     73  N         45.3390  111.1700  -10.3400 N.am  143  THR143     -0.1937
     74  CA        44.7210  110.9710   -9.0320 C.3   143  THR143      0.2028
     75  C         44.3710  112.3090   -8.3960 C.2   143  THR143      0.2642
     76  O         43.2790  112.4800   -7.8410 O.2   143  THR143     -0.2714
     77  CB        45.6590  110.1800   -8.1180 C.3   143  THR143      0.1808
     78  OG1       46.0960  108.9920   -8.7850 O.3   143  THR143     -0.2208
     79  CG2       44.9550  109.7970   -6.8240 C.3   143  THR143      0.0379
     80  N         45.2930  113.2720   -8.4670 N.am  144  SER144     -0.1949
     81  CA        45.0460  114.5910   -7.8960 C.3   144  SER144      0.1924
     82  C         43.8510  115.2650   -8.5560 C.2   144  SER144      0.2314
     83  O         43.0390  115.9100   -7.8820 O.2   144  SER144     -0.2863
     84  CB        46.2920  115.4650   -8.0390 C.3   144  SER144      0.2116
     85  OG        47.4050  114.8820   -7.3830 O.3   144  SER144     -0.2180
     86  N         42.0640  103.9230   -8.0200 N.3   198  ASP198     -0.1239
     87  CA        43.2780  104.4010   -8.6610 C.3   198  ASP198      0.1674
     88  C         43.9630  103.2730   -9.4210 C.2   198  ASP198      0.2266
     89  O         44.0080  102.1300   -8.9590 O.2   198  ASP198     -0.2867
     90  CB        44.2270  104.9840   -7.6120 C.3   198  ASP198      0.1410
     91  CG        45.1250  106.0650   -8.1750 C.2   198  ASP198      0.3668
     92  OD1       44.5920  107.1160   -8.5890 O.co2 198  ASP198     -0.2456
     93  OD2       46.3600  105.8700   -8.1990 O.co2 198  ASP198     -0.2456
     94  N         47.1410  104.2230  -15.8080 N.3   235  ASN235     -0.1240
     95  CA        48.4390  104.7030  -16.2610 C.3   235  ASN235      0.1653
     96  C         48.8230  104.1640  -17.6310 C.2   235  ASN235      0.2266
     97  O         49.8580  104.5730  -18.1700 O.2   235  ASN235     -0.2867
     98  CB        49.5220  104.3400  -15.2440 C.3   235  ASN235      0.1155
     99  CG        49.4610  105.2010  -13.9960 C.2   235  ASN235      0.2627
    100  OD1       48.9600  106.3250  -14.0270 O.2   235  ASN235     -0.2716
    101  ND2       49.9750  104.6780  -12.8910 N.am  235  ASN235     -0.0877
    102  N         53.0040  117.7930  -19.4400 N.3   257  PRO257     -0.2116
    103  CA        52.7630  119.2010  -19.7680 C.3   257  PRO257      0.1372
    104  C         53.6190  119.7010  -20.9190 C.2   257  PRO257      0.2244
    105  O         54.7520  119.2630  -21.1310 O.2   257  PRO257     -0.2868
    106  CB        53.1220  119.9400  -18.4700 C.3   257  PRO257      0.0268
    107  CG        53.6710  118.9030  -17.5230 C.3   257  PRO257      0.0207
    108  CD        53.9130  117.6510  -18.2930 C.3   257  PRO257      0.0892
    109  N         53.8240  126.1330  -14.2850 N.3   265  ILE265     -0.1245
    110  CA        54.1190  125.3310  -13.1010 C.3   265  ILE265      0.1561
    111  C         55.2960  125.9330  -12.3400 C.2   265  ILE265      0.2260
    112  O         55.2030  126.2230  -11.1420 O.2   265  ILE265     -0.2867
    113  CB        54.3810  123.8660  -13.4990 C.3   265  ILE265      0.0252
    114  CG1       53.0910  123.2270  -14.0220 C.3   265  ILE265      0.0019
    115  CG2       54.9120  123.0680  -12.3170 C.3   265  ILE265      0.0019
    116  CD1       53.2810  121.8560  -14.6460 C.3   265  ILE265      0.0001
    117  N         54.5530  116.2420  -14.4900 N.3   320  GLY320     -0.1210
    118  CA        54.2640  117.2380  -13.4710 C.3   320  GLY320      0.1956
    119  C         54.7930  116.8410  -12.1050 C.2   320  GLY320      0.2611
    120  O         55.2590  117.6870  -11.3370 O.2   320  GLY320     -0.2717
    121  N         54.7210  115.5480  -11.7820 N.am  321  ARG321     -0.1979
    122  CA        55.2640  115.0590  -10.5190 C.3   321  ARG321      0.1597
    123  C         56.7310  115.4410  -10.3680 C.2   321  ARG321      0.2287
    124  O         57.1560  115.9290   -9.3160 O.2   321  ARG321     -0.2864
    125  CB        55.0920  113.5400  -10.4360 C.3   321  ARG321      0.0334
    126  CG        55.7720  112.8990   -9.2390 C.3   321  ARG321      0.0492
    127  CD        55.3500  111.4470   -9.0770 C.3   321  ARG321      0.2205
    128  NE        54.0650  111.3280   -8.3920 N.pl3 321  ARG321     -0.0865
    129  CZ        53.9160  111.1450   -7.0810 C.cat 321  ARG321      0.5346
    130  NH1       54.9740  111.0490   -6.2820 N.pl3 321  ARG321      0.1354
    131  NH2       52.6980  111.0530   -6.5630 N.pl3 321  ARG321      0.1354
    132  N         57.2430  119.5230   -9.9990 N.3   324  ARG324     -0.1245
    133  CA        57.0260  120.1370   -8.6940 C.3   324  ARG324      0.1563
    134  C         57.9750  119.6090   -7.6250 C.2   324  ARG324      0.2260
    135  O         58.0150  120.1660   -6.5220 O.2   324  ARG324     -0.2867
    136  CB        55.5750  119.9460   -8.2490 C.3   324  ARG324      0.0307
    137  CG        54.6010  120.8270   -9.0180 C.3   324  ARG324      0.0489
    138  CD        53.2790  120.9690   -8.3010 C.3   324  ARG324      0.2205
    139  NE        52.3620  121.8620   -9.0120 N.pl3 324  ARG324     -0.0865
    140  CZ        52.5060  123.1830   -9.0930 C.cat 324  ARG324      0.5346
    141  NH1       53.5440  123.7870   -8.5290 N.pl3 324  ARG324      0.1354
    142  NH2       51.6130  123.9070   -9.7530 N.pl3 324  ARG324      0.1354
@<TRIPOS>BOND
     1   105   104    2
     2   104   103    1
     3   103   102    1
     4   103   106    1
     5   102   108    1
     6    32    33    2
     7    32    31    1
     8   106   107    1
     9   108   107    1
    10    97    96    2
    11    31    34    1
    12    31    30    1
    13    34    35    1
    14    96    95    1
    15    59    57    1
    16    36    35   ar
    17    36    38   ar
    18    35    37   ar
    19    30    25   am
    20    48    42    1
    21    48    47    1
    22    26    25    2
    23    57    58    1
    24    57    54    1
    25    95    94    1
    26    95    98    1
    27    28    27    1
    28    42    43    1
    29    38    40   ar
    30    25    24    1
    31    37    39   ar
    32    70    71    1
    33    70    69    1
    34    71    72    1
    35    47    46    1
    36    98    99    1
    37    45    44    2
    38    54    53    1
    39    54    55    1
    40    40    39   ar
    41    40    41    1
    42    69    68    1
    43    27    24    1
    44    27    29    1
    45    24    23    1
    46    43    44    1
    47    43    46    1
    48   116   114    1
    49    56    55    2
    50   117   118    1
    51    44    49   am
    52   109   110    1
    53    53    51   am
    54    55    60   am
    55   100    99    2
    56   114   113    1
    57    99   101   am
    58    23    17   am
    59    51    52    2
    60    51    50    1
    61   113   110    1
    62   113   115    1
    63   118   119    1
    64    68    65    1
    65    49    50    1
    66   110   111    1
    67    18    17    2
    68    17    16    1
    69    60    61    1
    70    65    64    1
    71    65    66    1
    72    64    62   am
    73   111   112    2
    74   119   121   am
    75   119   120    2
    76    62    61    1
    77    62    63    2
    78   121   122    1
    79    16    19    1
    80    16    15    1
    81    19    20    1
    82    66    67    2
    83    66    73   am
    84   122   125    1
    85   122   123    1
    86   125   126    1
    87    15    11   am
    88   123   124    2
    89    73    74    1
    90    20    22    1
    91    20    21    1
    92    12    11    2
    93   132   133    1
    94    11    10    1
    95   142   140    1
    96    88    89    2
    97    88    87    1
    98   126   127    1
    99   140   139    2
   100   140   141    1
   101   127   128    1
   102    74    75    1
   103    74    77    1
   104   137   138    1
   105   137   136    1
   106   139   138    1
   107    78    77    1
   108   133   136    1
   109   133   134    1
   110    87    86    1
   111    87    90    1
   112    92    91   ar
   113    10     9    1
   114    10    13    1
   115    82    81    1
   116    82    83    2
   117    80    75   am
   118    80    81    1
   119    75    76    2
   120   128   129    2
   121    93    91   ar
   122    91    90    1
   123    77    79    1
   124    84    81    1
   125    84    85    1
   126     4     3    2
   127   134   135    2
   128    14    13    1
   129   129   131    1
   130   129   130    1
   131     3     2    1
   132     6     7    1
   133     6     8    1
   134     6     5    1
   135     2     5    1
   136     2     1    1
