@<TRIPOS>MOLECULE
tmp/5wc5B00.pdb
 95 88 0 0 0
SMALL
GASTEIGER

@<TRIPOS>ATOM
      1  N          7.2270   -9.9160   10.9490 N.3    18  PHE18      -0.1241
      2  CA         6.0640  -10.4760   11.6210 C.3    18  PHE18       0.1605
      3  C          5.6810  -11.8360   11.0630 C.2    18  PHE18       0.2264
      4  O          5.4540  -12.7760   11.8310 O.2    18  PHE18      -0.2867
      5  CB         4.8890   -9.5000   11.5010 C.3    18  PHE18       0.0534
      6  CG         5.2020   -8.1110   11.9910 C.ar   18  PHE18      -0.0203
      7  CD1        5.1350   -7.8010   13.3480 C.ar   18  PHE18      -0.0042
      8  CD2        5.5930   -7.1200   11.0970 C.ar   18  PHE18      -0.0042
      9  CE1        5.4390   -6.5050   13.7970 C.ar   18  PHE18      -0.0003
     10  CE2        5.9080   -5.8320   11.5410 C.ar   18  PHE18      -0.0003
     11  CZ         5.8320   -5.5260   12.8840 C.ar   18  PHE18      -0.0000
     12  N          0.0890  -13.1340    8.9620 N.3    26  ILE26      -0.1245
     13  CA         0.5390  -13.0810   10.3490 C.3    26  ILE26       0.1561
     14  C         -0.5300  -13.6890   11.2430 C.2    26  ILE26       0.2260
     15  O         -1.6890  -13.2550   11.2190 O.2    26  ILE26      -0.2867
     16  CB         0.8300  -11.6380   10.7880 C.3    26  ILE26       0.0252
     17  CG1        1.8430  -10.9700    9.8480 C.3    26  ILE26       0.0019
     18  CG2        1.3230  -11.6330   12.2310 C.3    26  ILE26       0.0019
     19  CD1        1.8210   -9.4650    9.9350 C.3    26  ILE26       0.0001
     20  N          2.7600  -13.4120   16.1890 N.3    31  LEU31      -0.1245
     21  CA         2.8240  -12.1690   16.9580 C.3    31  LEU31       0.1561
     22  C          3.2640  -12.4220   18.3930 C.2    31  LEU31       0.2260
     23  O          3.9080  -11.5600   19.0040 O.2    31  LEU31      -0.2867
     24  CB         1.4750  -11.4490   16.9580 C.3    31  LEU31       0.0270
     25  CG         1.1300  -10.5810   15.7450 C.3    31  LEU31       0.0019
     26  CD1       -0.1060   -9.7450   16.0540 C.3    31  LEU31       0.0001
     27  CD2        2.2870   -9.6900   15.3670 C.3    31  LEU31       0.0001
     28  N         -4.9190   -7.9070   18.9570 N.3    50  MET50      -0.1245
     29  CA        -3.9870   -7.3510   17.9680 C.3    50  MET50       0.1570
     30  C         -4.4160   -7.7240   16.5530 C.2    50  MET50       0.2261
     31  O         -4.5890   -6.8570   15.6900 O.2    50  MET50      -0.2867
     32  CB        -2.5560   -7.8550   18.1920 C.3    50  MET50       0.0387
     33  CG        -1.8810   -7.4360   19.4770 C.3    50  MET50       0.0595
     34  SD        -1.6240   -5.6660   19.5740 S.3    50  MET50      -0.1393
     35  CE        -2.7740   -5.3190   20.9110 C.3    50  MET50       0.0692
     36  N         -8.0910   -6.4520   15.4510 N.3    53  GLU53      -0.1231
     37  CA        -8.2080   -5.0230   15.1840 C.3    53  GLU53       0.1699
     38  C         -7.8420   -4.6910   13.7410 C.2    53  GLU53       0.2592
     39  O         -8.3680   -3.7290   13.1730 O.2    53  GLU53      -0.2718
     40  CB        -7.3330   -4.2410   16.1700 C.3    53  GLU53       0.0402
     41  CG        -7.6390   -2.7540   16.2330 C.3    53  GLU53       0.1161
     42  CD        -8.8900   -2.4230   17.0320 C.2    53  GLU53       0.3649
     43  OE1       -9.2520   -1.2250   17.0810 O.co2  53  GLU53      -0.2457
     44  OE2       -9.5060   -3.3490   17.6140 O.co2  53  GLU53      -0.2457
     45  N         -6.9870   -5.5030   13.1190 N.am   54  VAL54      -0.1980
     46  CA        -6.4320   -5.2260   11.8010 C.3    54  VAL54       0.1595
     47  C         -7.0610   -6.1440   10.7570 C.2    54  VAL54       0.2287
     48  O         -7.1270   -5.7990    9.5720 O.2    54  VAL54      -0.2864
     49  CB        -4.8960   -5.3640   11.8360 C.3    54  VAL54       0.0276
     50  CG1       -4.3010   -5.5570   10.4440 C.3    54  VAL54       0.0022
     51  CG2       -4.2810   -4.1480   12.4890 C.3    54  VAL54       0.0022
     52  N         -3.6700  -11.6410    9.5980 N.3    62  ILE62      -0.1245
     53  CA        -3.4100  -10.3520    8.9650 C.3    62  ILE62       0.1561
     54  C         -2.6180  -10.6060    7.6940 C.2    62  ILE62       0.2260
     55  O         -1.5630  -11.2500    7.7330 O.2    62  ILE62      -0.2867
     56  CB        -2.6250   -9.4010    9.8830 C.3    62  ILE62       0.0252
     57  CG1       -3.4200   -9.0360   11.1290 C.3    62  ILE62       0.0019
     58  CG2       -2.1990   -8.1410    9.1190 C.3    62  ILE62       0.0019
     59  CD1       -2.5700   -8.3120   12.1720 C.3    62  ILE62       0.0001
     60  N         -2.3550   -5.1650    6.8560 N.3    67  PHE67      -0.1241
     61  CA        -1.2020   -4.6750    7.5950 C.3    67  PHE67       0.1605
     62  C         -0.8500   -3.2650    7.1580 C.2    67  PHE67       0.2264
     63  O         -0.6940   -2.3620    7.9860 O.2    67  PHE67      -0.2867
     64  CB        -0.0380   -5.6350    7.3680 C.3    67  PHE67       0.0534
     65  CG         1.2760   -5.1610    7.9070 C.ar   67  PHE67      -0.0203
     66  CD1        2.1170   -4.3880    7.1370 C.ar   67  PHE67      -0.0042
     67  CD2        1.6980   -5.5400    9.1660 C.ar   67  PHE67      -0.0042
     68  CE1        3.3310   -3.9720    7.6190 C.ar   67  PHE67      -0.0003
     69  CE2        2.9200   -5.1270    9.6460 C.ar   67  PHE67      -0.0003
     70  CZ         3.7350   -4.3380    8.8720 C.ar   67  PHE67      -0.0000
     71  N         -3.3880   -0.5550    8.1640 N.3    70  MET70      -0.1230
     72  CA        -3.1920   -0.1030    9.5370 C.3    70  MET70       0.1702
     73  C         -2.0150    0.8600    9.6520 C.2    70  MET70       0.2592
     74  O         -2.1130    1.9000   10.3150 O.2    70  MET70      -0.2718
     75  CB        -2.9560   -1.2970   10.4600 C.3    70  MET70       0.0401
     76  CG        -2.6930   -0.8760   11.8880 C.3    70  MET70       0.0596
     77  SD        -4.2790   -0.4130   12.6410 S.3    70  MET70      -0.1393
     78  CE        -3.8430    0.9970   13.6530 C.3    70  MET70       0.0692
     79  N         -0.8760    0.4960    9.0570 N.am   71  MET71      -0.1979
     80  CA         0.3120    1.3400    9.1150 C.3    71  MET71       0.1605
     81  C         -0.0050    2.7680    8.6860 C.2    71  MET71       0.2287
     82  O          0.4200    3.7280    9.3440 O.2    71  MET71      -0.2864
     83  CB         1.4060    0.7520    8.2190 C.3    71  MET71       0.0413
     84  CG         2.2610   -0.3890    8.7870 C.3    71  MET71       0.0598
     85  SD         2.6330   -0.2420   10.5520 S.3    71  MET71      -0.1393
     86  CE         4.2120    0.5780   10.4640 C.3    71  MET71       0.0692
     87  N         -1.0370    5.2690   11.3210 N.3    74  LYS74      -0.1245
     88  CA        -0.2440    5.3670   12.5430 C.3    74  LYS74       0.1561
     89  C          1.1520    5.9210   12.2770 C.2    74  LYS74       0.2260
     90  O          2.0760    5.6900   13.0590 O.2    74  LYS74      -0.2867
     91  CB        -0.1590    4.0060   13.2310 C.3    74  LYS74       0.0271
     92  CG        -1.4700    3.5360   13.8380 C.3    74  LYS74       0.0035
     93  CD        -1.5350    3.8770   15.3220 C.3    74  LYS74       0.0206
     94  CE        -2.9610    3.7850   15.8460 C.3    74  LYS74       0.1093
     95  NZ        -3.8040    4.9100   15.3500 N.3    74  LYS74      -0.1314
@<TRIPOS>BOND
     1    60    61    1
     2    66    68   ar
     3    66    65   ar
     4    62    61    1
     5    62    63    2
     6    64    61    1
     7    64    65    1
     8    68    70   ar
     9    54    55    2
    10    54    53    1
    11    65    67   ar
    12    71    72    1
    13    83    84    1
    14    83    80    1
    15    81    80    1
    16    81    82    2
    17    84    85    1
    18    70    69   ar
    19    12    13    1
    20    53    52    1
    21    53    56    1
    22    79    80    1
    23    79    73   am
    24    58    56    1
    25    67    69   ar
    26    72    73    1
    27    72    75    1
    28    48    47    2
    29    73    74    2
    30    17    19    1
    31    17    16    1
    32    56    57    1
    33    13    16    1
    34    13    14    1
    35    50    49    1
    36    75    76    1
    37    86    85    1
    38    47    46    1
    39    16    18    1
    40     1     2    1
    41     3     2    1
    42     3     4    2
    43     8    10   ar
    44     8     6   ar
    45    57    59    1
    46    15    14    2
    47    87    88    1
    48     5     2    1
    49     5     6    1
    50    10    11   ar
    51    46    49    1
    52    46    45    1
    53    49    51    1
    54    76    77    1
    55     6     7   ar
    56    89    88    1
    57    89    90    2
    58    88    91    1
    59    77    78    1
    60    11     9   ar
    61    45    38   am
    62    39    38    2
    63    91    92    1
    64     7     9   ar
    65    38    37    1
    66    92    93    1
    67    37    36    1
    68    37    40    1
    69    93    94    1
    70    95    94    1
    71    27    25    1
    72    31    30    2
    73    25    26    1
    74    25    24    1
    75    40    41    1
    76    20    21    1
    77    41    42    1
    78    30    29    1
    79    24    21    1
    80    21    22    1
    81    42    43   ar
    82    42    44   ar
    83    29    32    1
    84    29    28    1
    85    32    33    1
    86    22    23    2
    87    33    34    1
    88    34    35    1
