@<TRIPOS>MOLECULE
tmp/5wcbD00.pdb
 128 121 0 0 0
SMALL
GASTEIGER

@<TRIPOS>ATOM
      1  N        164.3350  162.0630  183.9030 N.3    17  ASP17      -0.1225
      2  CA       165.5130  161.6990  184.6720 C.3    17  ASP17       0.1805
      3  C        165.5710  162.4160  186.0170 C.2    17  ASP17       0.2598
      4  O        166.6050  162.3510  186.6900 O.2    17  ASP17      -0.2718
      5  CB       166.7690  162.0260  183.8610 C.3    17  ASP17       0.1424
      6  CG       166.8420  161.2540  182.5590 C.2    17  ASP17       0.3668
      7  OD1      166.3160  160.1240  182.5040 O.co2  17  ASP17      -0.2456
      8  OD2      167.4160  161.7850  181.5850 O.co2  17  ASP17      -0.2456
      9  N        164.4960  163.1050  186.4160 N.am   18  ILE18      -0.1966
     10  CA       164.4990  164.0510  187.5210 C.3    18  ILE18       0.1727
     11  C        163.1780  163.8850  188.2600 C.2    18  ILE18       0.2616
     12  O        162.1900  163.4020  187.7040 O.2    18  ILE18      -0.2715
     13  CB       164.6790  165.5020  187.0130 C.3    18  ILE18       0.0290
     14  CG1      165.9630  165.6170  186.1880 C.3    18  ILE18       0.0022
     15  CG2      164.7550  166.5100  188.1510 C.3    18  ILE18       0.0023
     16  CD1      165.7590  165.4320  184.6930 C.3    18  ILE18       0.0001
     17  N        163.1710  164.2900  189.5310 N.am   19  ILE19      -0.1977
     18  CA       162.0330  164.1040  190.4220 C.3    19  ILE19       0.1596
     19  C        161.7180  165.4180  191.1220 C.2    19  ILE19       0.2287
     20  O        162.6250  166.1520  191.5280 O.2    19  ILE19      -0.2864
     21  CB       162.3160  162.9880  191.4490 C.3    19  ILE19       0.0276
     22  CG1      162.3510  161.6360  190.7370 C.3    19  ILE19       0.0022
     23  CG2      161.2700  162.9960  192.5650 C.3    19  ILE19       0.0022
     24  CD1      163.0070  160.5460  191.5030 C.3    19  ILE19       0.0001
     25  N        160.1980  169.2660  191.8680 N.3    21  MET21      -0.1245
     26  CA       160.2380  170.5750  191.2200 C.3    21  MET21       0.1570
     27  C        159.0000  170.7980  190.3680 C.2    21  MET21       0.2261
     28  O        159.0700  171.3830  189.2840 O.2    21  MET21      -0.2867
     29  CB       161.5100  170.7320  190.3920 C.3    21  MET21       0.0387
     30  CG       162.7410  170.8110  191.2540 C.3    21  MET21       0.0595
     31  SD       164.2690  170.9760  190.3260 S.3    21  MET21      -0.1393
     32  CE       164.4680  169.2910  189.7700 C.3    21  MET21       0.0692
     33  N        174.7220  173.2130  196.8380 N.3    58  PRO58      -0.2102
     34  CA       175.1050  172.5460  195.5950 C.3    58  PRO58       0.1504
     35  C        174.9760  171.0390  195.7100 C.2    58  PRO58       0.2576
     36  O        174.6170  170.4810  196.7480 O.2    58  PRO58      -0.2718
     37  CB       176.5670  172.9510  195.3930 C.3    58  PRO58       0.0282
     38  CG       176.7640  174.1190  196.2490 C.3    58  PRO58       0.0208
     39  CD       175.8850  173.8950  197.4300 C.3    58  PRO58       0.0893
     40  N        175.3370  170.3850  194.6170 N.am   59  GLY59      -0.1943
     41  CA       174.9880  168.9980  194.4140 C.3    59  GLY59       0.2014
     42  C        173.5030  168.7470  194.4190 C.2    59  GLY59       0.2640
     43  O        173.0640  167.6360  194.7310 O.2    59  GLY59      -0.2714
     44  N        172.7190  169.7520  194.0540 N.am   60  THR60      -0.1936
     45  CA       171.2680  169.7170  194.1410 C.3    60  THR60       0.2028
     46  C        170.6640  169.8210  192.7510 C.2    60  THR60       0.2643
     47  O        169.7140  170.5650  192.5070 O.2    60  THR60      -0.2714
     48  CB       170.7660  170.8310  195.0450 C.3    60  THR60       0.1808
     49  OG1      171.1550  172.0940  194.4950 O.3    60  THR60      -0.2208
     50  CG2      171.3670  170.6760  196.4240 C.3    60  THR60       0.0379
     51  N        171.2440  169.0730  191.8260 N.am   61  GLY61      -0.1939
     52  CA       170.7290  168.9820  190.4870 C.3    61  GLY61       0.2014
     53  C        170.8680  170.2280  189.6540 C.2    61  GLY61       0.2639
     54  O        170.2650  170.2930  188.5820 O.2    61  GLY61      -0.2714
     55  N        171.6480  171.2180  190.0950 N.am   62  LYS62      -0.1963
     56  CA       171.8710  172.3810  189.2450 C.3    62  LYS62       0.1728
     57  C        172.7570  172.0070  188.0690 C.2    62  LYS62       0.2617
     58  O        172.5330  172.4520  186.9370 O.2    62  LYS62      -0.2715
     59  CB       172.5180  173.5180  190.0310 C.3    62  LYS62       0.0311
     60  CG       171.7910  173.9620  191.2820 C.3    62  LYS62       0.0038
     61  CD       172.5420  175.1330  191.9240 C.3    62  LYS62       0.0206
     62  CE       171.7800  175.7950  193.0720 C.3    62  LYS62       0.1093
     63  NZ       171.6740  174.9280  194.2790 N.3    62  LYS62      -0.1314
     64  N        173.7780  171.1950  188.3220 N.am   63  THR63      -0.1937
     65  CA       174.5630  170.6490  187.2280 C.3    63  THR63       0.2028
     66  C        173.7390  169.6280  186.4610 C.2    63  THR63       0.2642
     67  O        173.7810  169.5720  185.2230 O.2    63  THR63      -0.2714
     68  CB       175.8400  170.0090  187.7710 C.3    63  THR63       0.1808
     69  OG1      176.5190  170.9380  188.6270 O.3    63  THR63      -0.2208
     70  CG2      176.7570  169.6080  186.6350 C.3    63  THR63       0.0379
     71  N        172.9610  168.8320  187.1930 N.am   64  LEU64      -0.1977
     72  CA       172.1480  167.7990  186.5730 C.3    64  LEU64       0.1596
     73  C        171.0910  168.4230  185.6810 C.2    64  LEU64       0.2287
     74  O        170.8900  167.9930  184.5420 O.2    64  LEU64      -0.2864
     75  CB       171.5030  166.9330  187.6520 C.3    64  LEU64       0.0297
     76  CG       171.0220  165.5350  187.3240 C.3    64  LEU64       0.0022
     77  CD1      172.1660  164.6210  186.9050 C.3    64  LEU64       0.0001
     78  CD2      170.3030  164.9500  188.5420 C.3    64  LEU64       0.0001
     79  N        176.3420  179.3110  187.4100 N.3   115  ASP115     -0.1225
     80  CA       176.0790  179.1890  188.8330 C.3   115  ASP115      0.1805
     81  C        177.2000  179.8760  189.5970 C.2   115  ASP115      0.2597
     82  O        178.3040  180.0670  189.0810 O.2   115  ASP115     -0.2718
     83  CB       175.9650  177.7150  189.2460 C.3   115  ASP115      0.1424
     84  CG       175.4540  177.5330  190.6650 C.2   115  ASP115      0.3668
     85  OD1      175.2210  178.5450  191.3540 O.co2 115  ASP115     -0.2456
     86  OD2      175.2880  176.3710  191.0920 O.co2 115  ASP115     -0.2456
     87  N        176.8980  180.2470  190.8420 N.am  116  GLN116     -0.1979
     88  CA       177.8860  180.7760  191.7810 C.3   116  GLN116      0.1601
     89  C        178.5410  182.0420  191.2220 C.2   116  GLN116      0.2287
     90  O        179.7170  182.0700  190.8560 O.2   116  GLN116     -0.2864
     91  CB       178.9510  179.7280  192.1130 C.3   116  GLN116      0.0394
     92  CG       178.4400  178.4590  192.7700 C.3   116  GLN116      0.0908
     93  CD       177.7300  178.7070  194.0810 C.2   116  GLN116      0.2608
     94  OE1      176.5620  178.3690  194.2300 O.2   116  GLN116     -0.2717
     95  NE2      178.4190  179.3380  195.0230 N.am  116  GLN116     -0.0878
     96  N        163.7460  158.6500  194.0540 N.3   175  LEU175     -0.1245
     97  CA       165.1180  159.0370  193.7570 C.3   175  LEU175      0.1561
     98  C        166.0460  157.8450  193.8520 C.2   175  LEU175      0.2260
     99  O        166.9750  157.7020  193.0510 O.2   175  LEU175     -0.2867
    100  CB       165.5590  160.1400  194.7170 C.3   175  LEU175      0.0270
    101  CG       165.0170  161.5540  194.4550 C.3   175  LEU175      0.0019
    102  CD1      165.2080  162.4550  195.6650 C.3   175  LEU175      0.0001
    103  CD2      165.6820  162.1740  193.2310 C.3   175  LEU175      0.0001
    104  N        164.8830  155.3220  190.9350 N.3   178  LYS178     -0.1245
    105  CA       165.4410  155.8100  189.6840 C.3   178  LYS178      0.1561
    106  C        166.9560  155.7080  189.7010 C.2   178  LYS178      0.2260
    107  O        167.5840  155.4330  188.6730 O.2   178  LYS178     -0.2867
    108  CB       165.0040  157.2500  189.4550 C.3   178  LYS178      0.0271
    109  CG       165.1210  157.7160  188.0200 C.3   178  LYS178      0.0035
    110  CD       164.7130  159.1790  187.8880 C.3   178  LYS178      0.0206
    111  CE       163.2570  159.3770  188.2740 C.3   178  LYS178      0.1093
    112  NZ       162.3480  158.7060  187.2980 N.3   178  LYS178     -0.1314
    113  N        170.4610  164.4480  196.5800 N.3   203  GLY203     -0.1210
    114  CA       170.4820  163.4750  195.5000 C.3   203  GLY203      0.1956
    115  C        171.8500  162.8460  195.3270 C.2   203  GLY203      0.2611
    116  O        171.9790  161.6210  195.2250 O.2   203  GLY203     -0.2717
    117  N        172.8910  163.6840  195.2970 N.am  204  ALA204     -0.1979
    118  CA       174.2650  163.2040  195.1970 C.3   204  ALA204      0.1597
    119  C        174.5970  162.1940  196.2840 C.2   204  ALA204      0.2287
    120  O        175.4300  161.3040  196.0770 O.2   204  ALA204     -0.2864
    121  CB       175.2240  164.3870  195.2800 C.3   204  ALA204      0.0319
    122  N        173.5430  159.1720  194.8820 N.3   207  VAL207     -0.1245
    123  CA       174.4590  158.8230  193.8010 C.3   207  VAL207      0.1561
    124  C        175.6450  158.0520  194.3580 C.2   207  VAL207      0.2260
    125  O        175.8580  156.8720  194.0500 O.2   207  VAL207     -0.2867
    126  CB       174.9280  160.0890  193.0640 C.3   207  VAL207      0.0252
    127  CG1      175.9830  159.7280  192.0370 C.3   207  VAL207      0.0019
    128  CG2      173.7540  160.8270  192.4290 C.3   207  VAL207      0.0019
@<TRIPOS>BOND
     1     8     6   ar
     2     7     6   ar
     3     6     5    1
     4     5     2    1
     5     1     2    1
     6    74    73    2
     7     2     3    1
     8    16    14    1
     9    67    66    2
    10    73    72    1
    11     3     9   am
    12     3     4    2
    13    14    13    1
    14     9    10    1
    15    66    71   am
    16    66    65    1
    17    72    71    1
    18    72    75    1
    19    70    68    1
    20    77    76    1
    21    58    57    2
    22    13    10    1
    23    13    15    1
    24    65    68    1
    25    65    64    1
    26   112   111    1
    27    76    75    1
    28    76    78    1
    29    79    80    1
    30    10    11    1
    31    12    11    2
    32    68    69    1
    33   110   109    1
    34   110   111    1
    35   109   108    1
    36    57    64   am
    37    57    56    1
    38    11    17   am
    39    54    53    2
    40   107   106    2
    41    80    83    1
    42    80    81    1
    43    82    81    2
    44    56    59    1
    45    56    55    1
    46    83    84    1
    47    28    27    2
    48   108   105    1
    49    17    18    1
    50    81    87   am
    51    53    55   am
    52    53    52    1
    53   105   106    1
    54   105   104    1
    55    32    31    1
    56    59    60    1
    57    31    30    1
    58    27    26    1
    59    29    26    1
    60    29    30    1
    61    18    19    1
    62    18    21    1
    63    52    51    1
    64    84    86   ar
    65    84    85   ar
    66    22    21    1
    67    22    24    1
    68    87    88    1
    69    90    89    2
    70    19    20    2
    71    26    25    1
    72    89    88    1
    73    60    61    1
    74    21    23    1
    75    88    91    1
    76    51    46   am
    77    61    62    1
    78   127   126    1
    79    91    92    1
    80   128   126    1
    81    47    46    2
    82    46    45    1
    83    92    93    1
    84    99    98    2
    85   126   123    1
    86    62    63    1
    87   103   101    1
    88    97    98    1
    89    97    96    1
    90    97   100    1
    91   123   124    1
    92   123   122    1
    93   125   124    2
    94    44    45    1
    95    44    42   am
    96    93    94    2
    97    93    95   am
    98    45    48    1
    99    41    42    1
   100    41    40    1
   101    42    43    2
   102   101   100    1
   103   101   102    1
   104    49    48    1
   105    40    35   am
   106    48    50    1
   107   118   121    1
   108   118   117    1
   109   118   119    1
   110   116   115    2
   111   117   115   am
   112   115   114    1
   113    37    34    1
   114    37    38    1
   115   114   113    1
   116    34    35    1
   117    34    33    1
   118    35    36    2
   119   120   119    2
   120    38    39    1
   121    33    39    1
