@<TRIPOS>MOLECULE
tmp/5wccD00.pdb
 88 85 0 0 0
SMALL
GASTEIGER

@<TRIPOS>ATOM
      1  N        161.5740  -36.7070  118.6970 N.3   153  ALA153     -0.1245
      2  CA       162.3550  -35.9570  117.7210 C.3   153  ALA153      0.1562
      3  C        163.3740  -36.9360  117.1530 C.2   153  ALA153      0.2260
      4  O        164.2900  -37.3640  117.8630 O.2   153  ALA153     -0.2867
      5  CB       163.0290  -34.7440  118.3560 C.3   153  ALA153      0.0290
      6  N        164.5450  -39.6750  119.4890 N.3   156  SER156     -0.1203
      7  CA       164.7240  -39.2290  120.8640 C.3   156  SER156      0.2005
      8  C        163.4040  -38.7560  121.4480 C.2   156  SER156      0.2461
      9  O        162.7360  -37.9050  120.8430 O.2   156  SER156     -0.2732
     10  CB       165.7500  -38.1000  120.9340 C.3   156  SER156      0.2103
     11  OG       166.9690  -38.4850  120.3250 O.3   156  SER156     -0.2182
     12  N        162.9980  -39.2740  122.6050 N.am  157  PRO157     -0.2717
     13  CA       161.7530  -38.8090  123.2250 C.3   157  PRO157      0.1535
     14  C        161.8530  -37.3580  123.6720 C.2   157  PRO157      0.2598
     15  O        162.9160  -36.8700  124.0640 O.2   157  PRO157     -0.2715
     16  CB       161.5770  -39.7510  124.4230 C.3   157  PRO157      0.0310
     17  CG       162.9390  -40.2850  124.6980 C.3   157  PRO157      0.0237
     18  CD       163.6420  -40.3500  123.3780 C.3   157  PRO157      0.0939
     19  N        160.7190  -36.6650  123.5990 N.am  158  VAL158     -0.1964
     20  CA       160.6200  -35.2520  123.9420 C.3   158  VAL158      0.1727
     21  C        159.5820  -35.0850  125.0440 C.2   158  VAL158      0.2616
     22  O        158.4750  -35.6290  124.9490 O.2   158  VAL158     -0.2715
     23  CB       160.2540  -34.3950  122.7150 C.3   158  VAL158      0.0290
     24  CG1      160.0340  -32.9480  123.1210 C.3   158  VAL158      0.0023
     25  CG2      161.3460  -34.4880  121.6610 C.3   158  VAL158      0.0023
     26  N        159.9430  -34.3340  126.0840 N.am  159  LYS159     -0.1963
     27  CA       159.0400  -33.9890  127.1780 C.3   159  LYS159      0.1728
     28  C        158.6620  -32.5170  127.2040 C.2   159  LYS159      0.2616
     29  O        157.5250  -32.1830  127.5440 O.2   159  LYS159     -0.2715
     30  CB       159.6750  -34.3470  128.5290 C.3   159  LYS159      0.0311
     31  CG       159.9080  -35.8250  128.7970 C.3   159  LYS159      0.0038
     32  CD       158.6200  -36.5170  129.2180 C.3   159  LYS159      0.0206
     33  CE       158.9050  -37.7170  130.1120 C.3   159  LYS159      0.1093
     34  NZ       159.7970  -38.7160  129.4630 N.3   159  LYS159     -0.1314
     35  N        159.5880  -31.6280  126.8500 N.am  160  ALA160     -0.1963
     36  CA       159.3340  -30.1960  126.9080 C.3   160  ALA160      0.1728
     37  C        158.5150  -29.7320  125.7120 C.2   160  ALA160      0.2616
     38  O        158.6940  -30.2160  124.5900 O.2   160  ALA160     -0.2715
     39  CB       160.6520  -29.4240  126.9660 C.3   160  ALA160      0.0334
     40  N        157.6240  -28.7730  125.9550 N.am  161  GLY161     -0.1955
     41  CA       156.7780  -28.2420  124.9060 C.3   161  GLY161      0.1869
     42  C        155.5690  -29.0810  124.5660 C.2   161  GLY161      0.2309
     43  O        154.9130  -28.8090  123.5540 O.2   161  GLY161     -0.2863
     44  N        155.0680  -27.7310  120.8150 N.3   182  SER182     -0.1202
     45  CA       155.4430  -26.3870  120.4050 C.3   182  SER182      0.2020
     46  C        156.9560  -26.3220  120.2360 C.2   182  SER182      0.2618
     47  O        157.7060  -26.5950  121.1800 O.2   182  SER182     -0.2717
     48  CB       154.9620  -25.3600  121.4270 C.3   182  SER182      0.2103
     49  OG       153.5460  -25.2770  121.4220 O.3   182  SER182     -0.2182
     50  N        157.3970  -25.9580  119.0360 N.am  183  LEU183     -0.1979
     51  CA       158.8090  -25.8890  118.7030 C.3   183  LEU183      0.1596
     52  C        159.1340  -24.5070  118.1610 C.2   183  LEU183      0.2287
     53  O        158.2530  -23.7580  117.7310 O.2   183  LEU183     -0.2864
     54  CB       159.1950  -26.9380  117.6500 C.3   183  LEU183      0.0297
     55  CG       158.8150  -28.4000  117.8760 C.3   183  LEU183      0.0022
     56  CD1      159.0180  -29.1770  116.5880 C.3   183  LEU183      0.0001
     57  CD2      159.6350  -29.0020  119.0020 C.3   183  LEU183      0.0001
     58  N        164.0940  -25.4950  115.6750 N.3   187  GLN187     -0.1245
     59  CA       163.9870  -26.8620  116.1770 C.3   187  GLN187      0.1566
     60  C        163.2510  -27.7570  115.1900 C.2   187  GLN187      0.2260
     61  O        163.6040  -28.9300  115.0210 O.2   187  GLN187     -0.2867
     62  CB       163.2760  -26.8730  117.5310 C.3   187  GLN187      0.0367
     63  CG       164.1460  -26.4500  118.6990 C.3   187  GLN187      0.0905
     64  CD       163.3650  -26.3580  119.9940 C.2   187  GLN187      0.2608
     65  OE1      162.1900  -25.9910  120.0010 O.2   187  GLN187     -0.2717
     66  NE2      164.0140  -26.7050  121.0990 N.am  187  GLN187     -0.0878
     67  N        165.7580  -31.3380  112.6160 N.3   191  HIS191     -0.1241
     68  CA       165.6230  -32.7780  112.7860 C.3   191  HIS191      0.1621
     69  C        165.0070  -33.3860  111.5350 C.2   191  HIS191      0.2264
     70  O        164.2770  -32.7170  110.7980 O.2   191  HIS191     -0.2867
     71  CB       164.7650  -33.1280  114.0090 C.3   191  HIS191      0.0745
     72  CG       165.3980  -32.7610  115.3140 C.ar  191  HIS191      0.0817
     73  ND1      166.2410  -33.6110  115.9980 N.ar  191  HIS191     -0.2268
     74  CD2      165.3140  -31.6340  116.0600 C.ar  191  HIS191      0.1154
     75  CE1      166.6480  -33.0240  117.1090 C.ar  191  HIS191      0.1986
     76  NE2      166.1000  -31.8230  117.1700 N.ar  191  HIS191     -0.2212
     77  N        159.5900  -35.8330  113.1990 N.3   194  TYR194     -0.1241
     78  CA       158.9540  -35.8710  114.5050 C.3   194  TYR194      0.1605
     79  C        157.8270  -36.8940  114.4680 C.2   194  TYR194      0.2264
     80  O        157.2170  -37.1240  113.4210 O.2   194  TYR194     -0.2867
     81  CB       158.4030  -34.4960  114.9070 C.3   194  TYR194      0.0534
     82  CG       159.4610  -33.4970  115.3140 C.ar  194  TYR194     -0.0201
     83  CD1      160.1520  -32.7590  114.3590 C.ar  194  TYR194     -0.0009
     84  CD2      159.7630  -33.2850  116.6530 C.ar  194  TYR194     -0.0009
     85  CE1      161.1200  -31.8420  114.7280 C.ar  194  TYR194      0.0417
     86  CE2      160.7270  -32.3690  117.0310 C.ar  194  TYR194      0.0417
     87  CZ       161.4020  -31.6510  116.0640 C.ar  194  TYR194      0.1957
     88  OH       162.3630  -30.7390  116.4370 O.3   194  TYR194     -0.2866
@<TRIPOS>BOND
     1    70    69    2
     2    69    68    1
     3    67    68    1
     4    68    71    1
     5    77    78    1
     6    80    79    2
     7    71    72    1
     8    83    85   ar
     9    83    82   ar
    10    79    78    1
    11    78    81    1
    12    85    87   ar
    13    81    82    1
    14    61    60    2
    15    60    59    1
    16    72    73   ar
    17    72    74   ar
    18    82    84   ar
    19    58    59    1
    20    73    75   ar
    21    74    76   ar
    22    87    88    1
    23    87    86   ar
    24    59    62    1
    25    56    55    1
    26    84    86   ar
    27    75    76   ar
    28     3     2    1
    29     3     4    2
    30    62    63    1
    31    54    55    1
    32    54    51    1
    33     2     5    1
    34     2     1    1
    35    53    52    2
    36    55    57    1
    37    52    51    1
    38    63    64    1
    39    51    50    1
    40    50    46   am
    41     6     7    1
    42    64    65    2
    43    64    66   am
    44    46    45    1
    45    46    47    2
    46    11    10    1
    47    45    44    1
    48    45    48    1
    49     9     8    2
    50     7    10    1
    51     7     8    1
    52    49    48    1
    53     8    12   am
    54    25    23    1
    55    12    13    1
    56    12    18    1
    57    23    24    1
    58    23    20    1
    59    13    14    1
    60    13    16    1
    61    18    17    1
    62    43    42    2
    63    19    14   am
    64    19    20    1
    65    14    15    2
    66    20    21    1
    67    16    17    1
    68    42    41    1
    69    38    37    2
    70    41    40    1
    71    22    21    2
    72    21    26   am
    73    37    40   am
    74    37    36    1
    75    26    27    1
    76    35    36    1
    77    35    28   am
    78    36    39    1
    79    27    28    1
    80    27    30    1
    81    28    29    2
    82    30    31    1
    83    31    32    1
    84    32    33    1
    85    34    33    1
