@<TRIPOS>MOLECULE
tmp/5wccB00.pdb
 80 76 0 0 0
SMALL
GASTEIGER

@<TRIPOS>ATOM
      1  N        160.1890   21.0290  101.1000 N.3     7  PRO7       -0.2116
      2  CA       159.3100   19.8770  100.8440 C.3     7  PRO7        0.1372
      3  C        158.1710   20.1820   99.8840 C.2     7  PRO7        0.2244
      4  O        157.7300   19.2790   99.1620 O.2     7  PRO7       -0.2868
      5  CB       158.7920   19.5150  102.2440 C.3     7  PRO7        0.0268
      6  CG       158.9020   20.7870  103.0250 C.3     7  PRO7        0.0207
      7  CD       160.1410   21.4650  102.5060 C.3     7  PRO7        0.0892
      8  N        157.1910   15.3260   91.7160 N.3    80  ASP80      -0.1239
      9  CA       158.3490   15.5150   92.5760 C.3    80  ASP80       0.1674
     10  C        159.5410   15.9650   91.7430 C.2    80  ASP80       0.2266
     11  O        159.7480   15.4870   90.6250 O.2    80  ASP80      -0.2867
     12  CB       158.6910   14.2270   93.3260 C.3    80  ASP80       0.1410
     13  CG       157.6320   13.8460   94.3370 C.2    80  ASP80       0.3668
     14  OD1      156.9060   14.7510   94.8010 O.co2  80  ASP80      -0.2456
     15  OD2      157.5340   12.6470   94.6780 O.co2  80  ASP80      -0.2456
     16  N        163.7550   16.5980   91.9220 N.3    82  TYR82      -0.1241
     17  CA       165.0050   16.3320   92.6150 C.3    82  TYR82       0.1605
     18  C        166.1290   17.1010   91.9440 C.2    82  TYR82       0.2264
     19  O        166.1620   17.2220   90.7150 O.2    82  TYR82      -0.2867
     20  CB       165.3440   14.8410   92.6070 C.3    82  TYR82       0.0534
     21  CG       164.3620   13.9670   93.3480 C.ar   82  TYR82      -0.0201
     22  CD1      163.2310   13.4730   92.7150 C.ar   82  TYR82      -0.0009
     23  CD2      164.5700   13.6280   94.6790 C.ar   82  TYR82      -0.0009
     24  CE1      162.3340   12.6670   93.3830 C.ar   82  TYR82       0.0417
     25  CE2      163.6770   12.8250   95.3580 C.ar   82  TYR82       0.0417
     26  CZ       162.5610   12.3470   94.7030 C.ar   82  TYR82       0.1957
     27  OH       161.6710   11.5410   95.3700 O.3    82  TYR82      -0.2866
     28  N        166.5570   16.1660   98.7820 N.3    97  THR97      -0.1203
     29  CA       165.4880   15.4860   99.5050 C.3    97  THR97       0.1994
     30  C        164.1930   15.4340   98.7030 C.2    97  THR97       0.2618
     31  O        163.3480   14.5720   98.9670 O.2    97  THR97      -0.2717
     32  CB       165.2440   16.1630  100.8550 C.3    97  THR97       0.1784
     33  OG1      164.9390   17.5480  100.6540 O.3    97  THR97      -0.2211
     34  CG2      166.4780   16.0420  101.7400 C.3    97  THR97       0.0376
     35  N        164.0170   16.3310   97.7370 N.am   98  GLY98      -0.1942
     36  CA       162.8460   16.2940   96.8880 C.3    98  GLY98       0.2014
     37  C        161.8160   17.3520   97.2200 C.2    98  GLY98       0.2640
     38  O        161.5710   17.6480   98.3940 O.2    98  GLY98      -0.2714
     39  N        161.2090   17.9290   96.1870 N.am   99  THR99      -0.1936
     40  CA       160.1610   18.9310   96.3410 C.3    99  THR99       0.2028
     41  C        158.9630   18.5100   95.5080 C.2    99  THR99       0.2642
     42  O        159.0950   18.2860   94.3000 O.2    99  THR99      -0.2714
     43  CB       160.6360   20.3160   95.8960 C.3    99  THR99       0.1808
     44  OG1      161.7560   20.7230   96.6920 O.3    99  THR99      -0.2208
     45  CG2      159.5040   21.3300   96.0430 C.3    99  THR99       0.0379
     46  N        157.8030   18.4000   96.1450 N.am  100  LYS100     -0.1977
     47  CA       156.5630   18.1840   95.4170 C.3   100  LYS100      0.1596
     48  C        155.9970   19.5340   95.0040 C.2   100  LYS100      0.2287
     49  O        155.6770   20.3670   95.8580 O.2   100  LYS100     -0.2864
     50  CB       155.5330   17.4170   96.2440 C.3   100  LYS100      0.0298
     51  CG       154.2310   17.2160   95.4750 C.3   100  LYS100      0.0038
     52  CD       153.1500   16.5350   96.2920 C.3   100  LYS100      0.0206
     53  CE       151.9110   16.2850   95.4320 C.3   100  LYS100      0.1093
     54  NZ       150.9330   15.3640   96.0840 N.3   100  LYS100     -0.1314
     55  N        151.3870   17.4590  100.6980 N.3   141  ALA141     -0.1231
     56  CA       152.7800   17.3530  101.1150 C.3   141  ALA141      0.1694
     57  C        152.8610   17.6770  102.5970 C.2   141  ALA141      0.2592
     58  O        152.4110   18.7430  103.0250 O.2   141  ALA141     -0.2718
     59  CB       153.6800   18.2950  100.3060 C.3   141  ALA141      0.0304
     60  N        153.4190   16.7540  103.3790 N.am  142  VAL142     -0.1966
     61  CA       153.6300   16.9570  104.8060 C.3   142  VAL142      0.1727
     62  C        154.9940   16.3990  105.1830 C.2   142  VAL142      0.2616
     63  O        155.6020   15.6160  104.4490 O.2   142  VAL142     -0.2715
     64  CB       152.5400   16.2930  105.6810 C.3   142  VAL142      0.0290
     65  CG1      151.1920   16.9800  105.4970 C.3   142  VAL142      0.0023
     66  CG2      152.4450   14.8100  105.3740 C.3   142  VAL142      0.0023
     67  N        155.4700   16.8180  106.3480 N.am  143  THR143     -0.1951
     68  CA       156.6570   16.2600  106.9750 C.3   143  THR143      0.1897
     69  C        156.2750   15.7910  108.3690 C.2   143  THR143      0.2313
     70  O        155.5570   16.4920  109.0890 O.2   143  THR143     -0.2863
     71  CB       157.7900   17.2940  107.0590 C.3   143  THR143      0.1794
     72  OG1      158.2050   17.6590  105.7380 O.3   143  THR143     -0.2208
     73  CG2      158.9800   16.7330  107.8290 C.3   143  THR143      0.0378
     74  N        153.1270    8.1230  101.4680 N.3   161  THR161     -0.1218
     75  CA       152.9960    9.3660  100.7200 C.3   161  THR161      0.1862
     76  C        151.5240    9.7650  100.6270 C.2   161  THR161      0.2287
     77  O        150.6570    8.9020  100.4740 O.2   161  THR161     -0.2866
     78  CB       153.5840    9.2280   99.3150 C.3   161  THR161      0.1770
     79  OG1      152.6230    8.6190   98.4470 O.3   161  THR161     -0.2211
     80  CG2      154.8290    8.3700   99.3530 C.3   161  THR161      0.0375
@<TRIPOS>BOND
     1    11    10    2
     2    19    18    2
     3     8     9    1
     4    10     9    1
     5    16    17    1
     6    18    17    1
     7     9    12    1
     8    20    17    1
     9    20    21    1
    10    22    21   ar
    11    22    24   ar
    12    12    13    1
    13    21    23   ar
    14    24    26   ar
    15    42    41    2
    16    13    15   ar
    17    13    14   ar
    18    23    25   ar
    19    26    25   ar
    20    26    27    1
    21    48    47    1
    22    48    49    2
    23    47    46    1
    24    47    50    1
    25    53    54    1
    26    53    52    1
    27    51    50    1
    28    51    52    1
    29    41    46   am
    30    41    40    1
    31    43    45    1
    32    43    40    1
    33    43    44    1
    34    39    40    1
    35    39    37   am
    36    36    37    1
    37    36    35    1
    38    37    38    2
    39    35    30   am
    40    79    78    1
    41    30    31    2
    42    30    29    1
    43    28    29    1
    44     4     3    2
    45    78    80    1
    46    78    75    1
    47    29    32    1
    48     3     2    1
    49    59    56    1
    50    77    76    2
    51    76    75    1
    52    33    32    1
    53    55    56    1
    54    75    74    1
    55     2     1    1
    56     2     5    1
    57    32    34    1
    58     1     7    1
    59    56    57    1
    60     5     6    1
    61     7     6    1
    62    57    58    2
    63    57    60   am
    64    60    61    1
    65    63    62    2
    66    61    62    1
    67    61    64    1
    68    62    67   am
    69    66    64    1
    70    65    64    1
    71    72    71    1
    72    67    68    1
    73    68    71    1
    74    68    69    1
    75    71    73    1
    76    69    70    2
