@<TRIPOS>MOLECULE
tmp/5wccD01.pdb
 87 84 0 0 0
SMALL
GASTEIGER

@<TRIPOS>ATOM
      1  N        147.3620  -46.6100  133.1980 N.3     6  PRO6       -0.2116
      2  CA       146.5290  -45.4770  132.7690 C.3     6  PRO6        0.1372
      3  C        145.0480  -45.8060  132.6680 C.2     6  PRO6        0.2244
      4  O        144.2190  -44.9100  132.8710 O.2     6  PRO6       -0.2868
      5  CB       147.1260  -45.0990  131.4060 C.3     6  PRO6        0.0268
      6  CG       147.7870  -46.3470  130.9260 C.3     6  PRO6        0.0207
      7  CD       148.3270  -47.0110  132.1600 C.3     6  PRO6        0.0892
      8  N        138.6940  -40.9190  137.9150 N.3    85  ASP85      -0.1239
      9  CA       140.1210  -41.1310  138.0950 C.3    85  ASP85       0.1674
     10  C        140.3880  -41.5900  139.5220 C.2    85  ASP85       0.2266
     11  O        139.7300  -41.1420  140.4650 O.2    85  ASP85      -0.2867
     12  CB       140.9070  -39.8520  137.8040 C.3    85  ASP85       0.1410
     13  CG       140.8320  -39.4360  136.3480 C.2    85  ASP85       0.3668
     14  OD1      140.5930  -40.3070  135.4850 O.co2  85  ASP85      -0.2456
     15  OD2      141.0280  -38.2350  136.0650 O.co2  85  ASP85      -0.2456
     16  N        143.5550  -42.2390  142.3170 N.3    87  TYR87      -0.1241
     17  CA       144.9400  -41.9810  142.6820 C.3    87  TYR87       0.1605
     18  C        145.2880  -42.7470  143.9490 C.2    87  TYR87       0.2264
     19  O        144.4680  -42.8500  144.8670 O.2    87  TYR87      -0.2867
     20  CB       145.1970  -40.4860  142.9220 C.3    87  TYR87       0.0534
     21  CG       145.0160  -39.6020  141.7120 C.ar   87  TYR87      -0.0201
     22  CD1      146.0750  -39.3460  140.8470 C.ar   87  TYR87      -0.0009
     23  CD2      143.7920  -39.0080  141.4430 C.ar   87  TYR87      -0.0009
     24  CE1      145.9140  -38.5310  139.7420 C.ar   87  TYR87       0.0417
     25  CE2      143.6200  -38.1930  140.3410 C.ar   87  TYR87       0.0417
     26  CZ       144.6820  -37.9590  139.4930 C.ar   87  TYR87       0.1957
     27  OH       144.5100  -37.1420  138.4000 O.3    87  TYR87      -0.2866
     28  N        150.3740  -41.9030  139.4190 N.3   102  THR102     -0.1203
     29  CA       150.1220  -41.2250  138.1510 C.3   102  THR102      0.1994
     30  C        148.6380  -41.1380  137.8190 C.2   102  THR102      0.2618
     31  O        148.2390  -40.2580  137.0500 O.2   102  THR102     -0.2717
     32  CB       150.8650  -41.9300  137.0140 C.3   102  THR102      0.1784
     33  OG1      150.4560  -43.3010  136.9490 O.3   102  THR102     -0.2211
     34  CG2      152.3670  -41.8690  137.2490 C.3   102  THR102      0.0376
     35  N        147.8140  -42.0200  138.3770 N.am  103  GLY103     -0.1942
     36  CA       146.3850  -41.9540  138.1540 C.3   103  GLY103      0.2014
     37  C        145.8670  -43.0010  137.1910 C.2   103  GLY103      0.2640
     38  O        146.5110  -43.3030  136.1810 O.2   103  GLY103     -0.2714
     39  N        144.7000  -43.5620  137.4990 N.am  104  THR104     -0.1936
     40  CA       144.0440  -44.5550  136.6560 C.3   104  THR104      0.2028
     41  C        142.6060  -44.1220  136.4260 C.2   104  THR104      0.2642
     42  O        141.8670  -43.8960  137.3900 O.2   104  THR104     -0.2714
     43  CB       144.0720  -45.9430  137.3030 C.3   104  THR104      0.1808
     44  OG1      145.4310  -46.3560  137.4990 O.3   104  THR104     -0.2208
     45  CG2      143.3530  -46.9520  136.4190 C.3   104  THR104      0.0379
     46  N        142.2100  -43.9990  135.1620 N.am  105  LYS105     -0.1977
     47  CA       140.8110  -43.7690  134.8290 C.3   105  LYS105      0.1596
     48  C        140.1040  -45.1130  134.7220 C.2   105  LYS105      0.2287
     49  O        140.4560  -45.9410  133.8750 O.2   105  LYS105     -0.2864
     50  CB       140.6440  -42.9850  133.5290 C.3   105  LYS105      0.0298
     51  CG       139.1680  -42.7720  133.1800 C.3   105  LYS105      0.0038
     52  CD       138.9480  -42.0780  131.8470 C.3   105  LYS105      0.0206
     53  CE       137.4570  -41.8310  131.6110 C.3   105  LYS105      0.1093
     54  NZ       137.1870  -40.9010  130.4740 N.3   105  LYS105     -0.1314
     55  N        140.7590  -43.1390  127.4480 N.3   146  ALA146     -0.1231
     56  CA       142.0460  -42.9870  128.1170 C.3   146  ALA146      0.1694
     57  C        143.1470  -43.3160  127.1220 C.2   146  ALA146      0.2592
     58  O        143.1490  -44.4020  126.5370 O.2   146  ALA146     -0.2718
     59  CB       142.1430  -43.8890  129.3510 C.3   146  ALA146      0.0304
     60  N        144.0700  -42.3730  126.9190 N.am  147  VAL147     -0.1966
     61  CA       145.2280  -42.5730  126.0590 C.3   147  VAL147      0.1727
     62  C        146.4430  -41.9360  126.7190 C.2   147  VAL147      0.2616
     63  O        146.3270  -41.0930  127.6110 O.2   147  VAL147     -0.2715
     64  CB       145.0430  -41.9700  124.6450 C.3   147  VAL147      0.0290
     65  CG1      143.9710  -42.7160  123.8670 C.3   147  VAL147      0.0023
     66  CG2      144.7250  -40.4820  124.7420 C.3   147  VAL147      0.0023
     67  N        147.6200  -42.3510  126.2580 N.am  148  THR148     -0.1951
     68  CA       148.8840  -41.7200  126.6080 C.3   148  THR148      0.1897
     69  C        149.5930  -41.3520  125.3160 C.2   148  THR148      0.2313
     70  O        149.5590  -42.1140  124.3450 O.2   148  THR148     -0.2863
     71  CB       149.7730  -42.6270  127.4650 C.3   148  THR148      0.1794
     72  OG1      150.0920  -43.8150  126.7360 O.3   148  THR148     -0.2208
     73  CG2      149.0560  -43.0080  128.7520 C.3   148  THR148      0.0378
     74  N        142.5830  -33.7350  128.0320 N.3   166  THR166     -0.1204
     75  CA       141.9660  -34.9690  128.4960 C.3   166  THR166      0.1979
     76  C        140.8410  -35.3820  127.5470 C.2   166  THR166      0.2459
     77  O        140.1060  -34.5260  127.0470 O.2   166  THR166     -0.2732
     78  CB       141.4170  -34.8040  129.9130 C.3   166  THR166      0.1783
     79  OG1      140.1300  -34.1790  129.8600 O.3   166  THR166     -0.2211
     80  CG2      142.3530  -33.9460  130.7440 C.3   166  THR166      0.0376
     81  N        140.6810  -36.6790  127.2920 N.am  167  PRO167     -0.2728
     82  CA       139.6870  -37.1150  126.3040 C.3   167  PRO167      0.1401
     83  C        138.2790  -36.6810  126.6800 C.2   167  PRO167      0.2269
     84  O        137.8850  -36.7230  127.8480 O.2   167  PRO167     -0.2865
     85  CB       139.8260  -38.6420  126.3100 C.3   167  PRO167      0.0296
     86  CG       141.2240  -38.8910  126.7960 C.3   167  PRO167      0.0237
     87  CD       141.4970  -37.7980  127.7940 C.3   167  PRO167      0.0939
@<TRIPOS>BOND
     1    65    64    1
     2    70    69    2
     3    64    66    1
     4    64    61    1
     5    69    68    1
     6    61    62    1
     7    61    60    1
     8    67    68    1
     9    67    62   am
    10    82    85    1
    11    82    83    1
    12    82    81    1
    13    85    86    1
    14    58    57    2
    15    68    71    1
    16    83    84    2
    17    62    63    2
    18    72    71    1
    19    86    87    1
    20    60    57   am
    21    77    76    2
    22    57    56    1
    23    81    76   am
    24    81    87    1
    25    55    56    1
    26    71    73    1
    27    76    75    1
    28    74    75    1
    29    56    59    1
    30    75    78    1
    31    79    78    1
    32    78    80    1
    33    54    53    1
    34     6     5    1
    35     6     7    1
    36     5     2    1
    37    53    52    1
    38    52    51    1
    39     7     1    1
    40     3     2    1
    41     3     4    2
    42     2     1    1
    43    51    50    1
    44    50    47    1
    45    49    48    2
    46    48    47    1
    47    47    46    1
    48    46    41   am
    49    14    13   ar
    50    15    13   ar
    51    38    37    2
    52    13    12    1
    53    45    43    1
    54    41    40    1
    55    41    42    2
    56    40    43    1
    57    40    39    1
    58    33    32    1
    59    32    34    1
    60    32    29    1
    61    31    30    2
    62    37    39   am
    63    37    36    1
    64    43    44    1
    65    12     9    1
    66    30    29    1
    67    30    35   am
    68     8     9    1
    69     9    10    1
    70    29    28    1
    71    36    35    1
    72    27    26    1
    73    26    24   ar
    74    26    25   ar
    75    10    11    2
    76    24    22   ar
    77    25    23   ar
    78    22    21   ar
    79    23    21   ar
    80    21    20    1
    81    16    17    1
    82    17    20    1
    83    17    18    1
    84    18    19    2
