@<TRIPOS>MOLECULE
tmp/5wcfA01.pdb
 200 190 0 0 0
SMALL
GASTEIGER

@<TRIPOS>ATOM
      1  N         22.1120   51.9950    3.8810 N.3   107  TRP107     -0.1227
      2  CA        21.6790   51.2200    2.7100 C.3   107  TRP107      0.1737
      3  C         20.9600   49.9070    3.0240 C.2   107  TRP107      0.2595
      4  O         20.3320   49.3450    2.1370 O.2   107  TRP107     -0.2718
      5  CB        22.9080   50.8860    1.8270 C.3   107  TRP107      0.0564
      6  CG        24.0720   50.2270    2.5720 C.ar  107  TRP107      0.0003
      7  CD1       25.1550   50.8660    3.1180 C.ar  107  TRP107      0.0946
      8  CD2       24.2400   48.8410    2.8580 C.ar  107  TRP107      0.0152
      9  NE1       25.9960   49.9600    3.7170 N.ar  107  TRP107     -0.2442
     10  CE2       25.4580   48.7070    3.5770 C.ar  107  TRP107      0.0810
     11  CE3       23.4900   47.6930    2.5720 C.ar  107  TRP107      0.0012
     12  CZ2       25.9320   47.4760    4.0210 C.ar  107  TRP107      0.0191
     13  CZ3       23.9530   46.4700    3.0140 C.ar  107  TRP107      0.0001
     14  CH2       25.1770   46.3670    3.7250 C.ar  107  TRP107      0.0015
     15  N         21.0430   49.4660    4.2810 N.am  108  MET108     -0.1965
     16  CA        20.7180   48.1070    4.6860 C.3   108  MET108      0.1736
     17  C         19.2190   47.8820    4.7110 C.2   108  MET108      0.2617
     18  O         18.4460   48.8180    4.9490 O.2   108  MET108     -0.2715
     19  CB        21.2480   47.8060    6.0910 C.3   108  MET108      0.0427
     20  CG        22.7480   47.9230    6.2840 C.3   108  MET108      0.0599
     21  SD        23.3840   49.5950    6.4990 S.3   108  MET108     -0.1393
     22  CE        22.6780   50.0290    8.0890 C.3   108  MET108      0.0692
     23  N         18.8360   46.6260    4.4780 N.am  109  GLY109     -0.1940
     24  CA        17.4600   46.1800    4.6030 C.3   109  GLY109      0.2014
     25  C         17.1800   44.9500    3.7700 C.2   109  GLY109      0.2639
     26  O         18.0980   44.3050    3.2560 O.2   109  GLY109     -0.2714
     27  N         15.8980   44.6360    3.6390 N.am  110  TYR110     -0.1959
     28  CA        15.4510   43.4220    2.9770 C.3   110  TYR110      0.1771
     29  C         14.6560   43.7800    1.7300 C.2   110  TYR110      0.2620
     30  O         13.5300   44.2690    1.8220 O.2   110  TYR110     -0.2715
     31  CB        14.6090   42.5900    3.9430 C.3   110  TYR110      0.0574
     32  CG        15.3570   42.2740    5.2220 C.ar  110  TYR110     -0.0198
     33  CD1       16.5020   41.4970    5.1760 C.ar  110  TYR110     -0.0009
     34  CD2       14.9400   42.7790    6.4670 C.ar  110  TYR110     -0.0009
     35  CE1       17.2150   41.2020    6.3190 C.ar  110  TYR110      0.0417
     36  CE2       15.6520   42.4970    7.6300 C.ar  110  TYR110      0.0417
     37  CZ        16.7900   41.6910    7.5350 C.ar  110  TYR110      0.1957
     38  OH        17.5640   41.3670    8.6050 O.3   110  TYR110     -0.2866
     39  N         15.2500   43.5330    0.5670 N.am  111  GLY111     -0.1954
     40  CA        14.5550   43.7180   -0.7110 C.3   111  GLY111      0.1869
     41  C         15.4350   44.3370   -1.7700 C.2   111  GLY111      0.2309
     42  O         16.5950   44.6830   -1.5150 O.2   111  GLY111     -0.2863
     43  N         17.1530   47.8460   -1.3230 N.3   114  HIS114     -0.1226
     44  CA        18.3350   47.8920   -0.4660 C.3   114  HIS114      0.1752
     45  C         19.5700   47.3420   -1.1840 C.2   114  HIS114      0.2595
     46  O         20.6440   47.9420   -1.1060 O.2   114  HIS114     -0.2718
     47  CB        18.0240   47.1980    0.8580 C.3   114  HIS114      0.0759
     48  CG        16.9230   47.8730    1.6220 C.ar  114  HIS114      0.0818
     49  ND1       15.6270   47.3930    1.6660 N.ar  114  HIS114     -0.2268
     50  CD2       16.9190   49.0280    2.3260 C.ar  114  HIS114      0.1154
     51  CE1       14.8820   48.2050    2.3970 C.ar  114  HIS114      0.1986
     52  NE2       15.6410   49.2070    2.8100 N.ar  114  HIS114     -0.2212
     53  N         19.4090   46.2360   -1.9090 N.am  115  GLU115     -0.1979
     54  CA        20.4420   45.7520   -2.8400 C.3   115  GLU115      0.1602
     55  C         20.9290   46.8670   -3.7860 C.2   115  GLU115      0.2287
     56  O         22.1230   47.0430   -3.9810 O.2   115  GLU115     -0.2864
     57  CB        19.8960   44.5940   -3.6690 C.3   115  GLU115      0.0415
     58  CG        20.8340   44.1240   -4.7780 C.3   115  GLU115      0.1163
     59  CD        20.1920   43.1480   -5.7410 C.2   115  GLU115      0.3649
     60  OE1       18.9610   43.1740   -5.9670 O.co2 115  GLU115     -0.2457
     61  OE2       20.9470   42.3420   -6.2850 O.co2 115  GLU115     -0.2457
     62  N         23.0670   49.3550   -1.7170 N.3   118  LEU118     -0.1245
     63  CA        24.4680   48.9150   -1.5340 C.3   118  LEU118      0.1561
     64  C         25.2970   49.1070   -2.8010 C.2   118  LEU118      0.2260
     65  O         26.3870   49.6680   -2.7360 O.2   118  LEU118     -0.2867
     66  CB        24.5640   47.4700   -1.0520 C.3   118  LEU118      0.0270
     67  CG        25.9860   46.9670   -0.7350 C.3   118  LEU118      0.0019
     68  CD1       26.7480   47.9320    0.1580 C.3   118  LEU118      0.0001
     69  CD2       25.9440   45.5880   -0.0910 C.3   118  LEU118      0.0001
     70  N         29.3590   44.6200    7.2500 N.3   140  ALA140     -0.1231
     71  CA        28.1290   44.0070    7.7180 C.3   140  ALA140      0.1694
     72  C         28.3350   42.5160    7.8960 C.2   140  ALA140      0.2592
     73  O         29.2200   41.9230    7.2660 O.2   140  ALA140     -0.2718
     74  CB        27.0170   44.2480    6.7280 C.3   140  ALA140      0.0304
     75  N         27.5020   41.9240    8.7380 N.am  141  GLU141     -0.1966
     76  CA        27.4900   40.4920    8.9550 C.3   141  GLU141      0.1733
     77  C         26.0640   40.0150    8.9570 C.2   141  GLU141      0.2616
     78  O         25.1660   40.7190    9.4600 O.2   141  GLU141     -0.2715
     79  CB        28.1180   40.1720   10.3090 C.3   141  GLU141      0.0429
     80  CG        29.5610   40.5940   10.4490 C.3   141  GLU141      0.1163
     81  CD        30.0140   40.5830   11.8870 C.2   141  GLU141      0.3649
     82  OE1       29.9490   41.6560   12.5510 O.co2 141  GLU141     -0.2457
     83  OE2       30.3880   39.5010   12.3600 O.co2 141  GLU141     -0.2457
     84  N         25.8580   38.8030    8.4510 N.am  142  LEU142     -0.1977
     85  CA        24.5410   38.1750    8.4110 C.3   142  LEU142      0.1596
     86  C         24.4990   36.9330    9.2810 C.2   142  LEU142      0.2287
     87  O         25.4570   36.1240    9.2760 O.2   142  LEU142     -0.2864
     88  CB        24.1890   37.7780    6.9710 C.3   142  LEU142      0.0297
     89  CG        23.8680   38.9480    6.0370 C.3   142  LEU142      0.0022
     90  CD1       24.1380   38.6050    4.5870 C.3   142  LEU142      0.0001
     91  CD2       22.4090   39.3260    6.2250 C.3   142  LEU142      0.0001
     92  N          9.7030   35.9690    1.6550 N.3   187  ILE187     -0.1245
     93  CA        10.3570   36.3570    2.9000 C.3   187  ILE187      0.1561
     94  C          9.3790   37.2390    3.6610 C.2   187  ILE187      0.2260
     95  O          8.8150   38.1670    3.0890 O.2   187  ILE187     -0.2867
     96  CB        11.6520   37.1040    2.5940 C.3   187  ILE187      0.0252
     97  CG1       12.6420   36.1270    1.9600 C.3   187  ILE187      0.0019
     98  CG2       12.2460   37.7210    3.8560 C.3   187  ILE187      0.0019
     99  CD1       13.6770   36.8110    1.1200 C.3   187  ILE187      0.0001
    100  N         30.6070   40.9910    5.0680 N.3   207  LEU207     -0.1245
    101  CA        30.8060   41.8760    3.9190 C.3   207  LEU207      0.1561
    102  C         31.7170   42.9840    4.3910 C.2   207  LEU207      0.2260
    103  O         31.3290   43.7810    5.2410 O.2   207  LEU207     -0.2867
    104  CB        29.4780   42.4650    3.4530 C.3   207  LEU207      0.0270
    105  CG        28.3550   41.5190    3.0160 C.3   207  LEU207      0.0019
    106  CD1       27.2940   42.3120    2.2580 C.3   207  LEU207      0.0001
    107  CD2       28.8660   40.3790    2.1520 C.3   207  LEU207      0.0001
    108  N         29.0240   39.7980   -4.6820 N.3   218  LEU218     -0.1245
    109  CA        27.5790   39.8650   -4.4340 C.3   218  LEU218      0.1561
    110  C         26.7500   39.2580   -5.5590 C.2   218  LEU218      0.2260
    111  O         25.6990   38.6690   -5.3040 O.2   218  LEU218     -0.2867
    112  CB        27.1200   41.3170   -4.2570 C.3   218  LEU218      0.0270
    113  CG        27.5990   42.1370   -3.0610 C.3   218  LEU218      0.0019
    114  CD1       27.0220   43.5420   -3.1730 C.3   218  LEU218      0.0001
    115  CD2       27.2140   41.4910   -1.7440 C.3   218  LEU218      0.0001
    116  N         25.9400   35.7370   -1.7610 N.3   222  VAL222     -0.1245
    117  CA        26.5860   35.7120   -0.4500 C.3   222  VAL222      0.1561
    118  C         25.9150   34.6790    0.4430 C.2   222  VAL222      0.2260
    119  O         24.6840   34.5570    0.4760 O.2   222  VAL222     -0.2867
    120  CB        26.6310   37.1080    0.2280 C.3   222  VAL222      0.0252
    121  CG1       27.0980   38.1660   -0.7570 C.3   222  VAL222      0.0019
    122  CG2       25.3010   37.5080    0.8310 C.3   222  VAL222      0.0019
    123  N         16.6600   35.4720    9.6800 N.3   241  ILE241     -0.1245
    124  CA        17.8950   36.1040    9.2630 C.3   241  ILE241      0.1561
    125  C         17.8830   37.5260    9.7230 C.2   241  ILE241      0.2260
    126  O         16.8420   38.1760    9.7200 O.2   241  ILE241     -0.2867
    127  CB        18.0490   36.1770    7.7330 C.3   241  ILE241      0.0252
    128  CG1       17.8630   34.8150    7.1030 C.3   241  ILE241      0.0019
    129  CG2       19.3800   36.8090    7.3400 C.3   241  ILE241      0.0019
    130  CD1       18.8520   33.8110    7.5340 C.3   241  ILE241      0.0001
    131  N         20.9130   41.1120   10.3200 N.3   243  PHE243     -0.1241
    132  CA        22.2310   41.6470   10.0820 C.3   243  PHE243      0.1605
    133  C         22.6970   42.5290   11.2440 C.2   243  PHE243      0.2264
    134  O         21.9070   42.9320   12.1000 O.2   243  PHE243     -0.2867
    135  CB        22.2610   42.4450    8.7890 C.3   243  PHE243      0.0534
    136  CG        21.4120   43.7020    8.8050 C.ar  243  PHE243     -0.0203
    137  CD1       21.9480   44.9100    9.2320 C.ar  243  PHE243     -0.0042
    138  CD2       20.0990   43.6780    8.3650 C.ar  243  PHE243     -0.0042
    139  CE1       21.1850   46.0640    9.2510 C.ar  243  PHE243     -0.0003
    140  CE2       19.3280   44.8360    8.3570 C.ar  243  PHE243     -0.0003
    141  CZ        19.8700   46.0250    8.8110 C.ar  243  PHE243     -0.0000
    142  N         14.1500   39.0030    9.0550 N.3   269  ALA269     -0.1245
    143  CA        13.5660   38.3820    7.8530 C.3   269  ALA269      0.1562
    144  C         13.3290   36.9110    8.1220 C.2   269  ALA269      0.2260
    145  O         14.2600   36.1950    8.4850 O.2   269  ALA269     -0.2867
    146  CB        14.4890   38.5980    6.6550 C.3   269  ALA269      0.0290
    147  N         12.0990   33.0150    7.1450 N.3   271  LEU271     -0.1245
    148  CA        12.0130   31.9940    6.1320 C.3   271  LEU271      0.1561
    149  C         11.2500   30.8160    6.7070 C.2   271  LEU271      0.2260
    150  O         11.8070   29.9860    7.4410 O.2   271  LEU271     -0.2867
    151  CB        13.4210   31.5760    5.7000 C.3   271  LEU271      0.0270
    152  CG        14.4530   32.6440    5.3240 C.3   271  LEU271      0.0019
    153  CD1       15.7650   31.9570    4.9660 C.3   271  LEU271      0.0001
    154  CD2       14.0210   33.4960    4.1690 C.3   271  LEU271      0.0001
    155  N         22.2020   34.2570   -0.6300 N.3   291  LEU291     -0.1231
    156  CA        21.4200   35.4000   -1.0580 C.3   291  LEU291      0.1693
    157  C         22.0150   35.8360   -2.3850 C.2   291  LEU291      0.2592
    158  O         23.2170   36.0460   -2.4620 O.2   291  LEU291     -0.2718
    159  CB        21.5120   36.5720   -0.0670 C.3   291  LEU291      0.0284
    160  CG        21.3020   36.3100    1.4170 C.3   291  LEU291      0.0019
    161  CD1       21.3230   37.6140    2.2000 C.3   291  LEU291      0.0001
    162  CD2       20.0120   35.5840    1.6900 C.3   291  LEU291      0.0001
    163  N         21.1930   35.9550   -3.4230 N.am  292  LEU292     -0.1966
    164  CA        21.6930   36.4540   -4.7040 C.3   292  LEU292      0.1713
    165  C         20.6530   37.2390   -5.4940 C.2   292  LEU292      0.2458
    166  O         19.4600   37.0880   -5.2480 O.2   292  LEU292     -0.2730
    167  CB        22.3070   35.3360   -5.5510 C.3   292  LEU292      0.0310
    168  CG        21.8400   33.9000   -5.4120 C.3   292  LEU292      0.0022
    169  CD1       20.3720   33.8060   -5.7490 C.3   292  LEU292      0.0001
    170  CD2       22.6740   32.9940   -6.3070 C.3   292  LEU292      0.0001
    171  N         21.1160   38.1010   -6.4220 N.am  293  PRO293     -0.2727
    172  CA        20.2090   38.7400   -7.3970 C.3   293  PRO293      0.1402
    173  C         19.7020   37.7520   -8.4500 C.2   293  PRO293      0.2269
    174  O         18.8320   36.9320   -8.1540 O.2   293  PRO293     -0.2865
    175  CB        21.0640   39.8250   -8.0590 C.3   293  PRO293      0.0296
    176  CG        22.4050   39.8010   -7.4000 C.3   293  PRO293      0.0237
    177  CD        22.5040   38.5960   -6.5190 C.3   293  PRO293      0.0939
    178  N         15.6540   39.2490   -5.8980 N.3   297  LEU297     -0.1245
    179  CA        16.7130   38.7850   -4.9980 C.3   297  LEU297      0.1561
    180  C         16.3030   37.4410   -4.3660 C.2   297  LEU297      0.2260
    181  O         15.4740   37.3900   -3.4490 O.2   297  LEU297     -0.2867
    182  CB        17.0380   39.8290   -3.9220 C.3   297  LEU297      0.0270
    183  CG        18.4180   39.5860   -3.2690 C.3   297  LEU297      0.0019
    184  CD1       19.3130   40.8210   -3.3660 C.3   297  LEU297      0.0001
    185  CD2       18.3060   39.0720   -1.8320 C.3   297  LEU297      0.0001
    186  N         16.5580   33.9840   -2.2070 N.3   299  VAL299     -0.1245
    187  CA        17.1640   33.3390   -1.0670 C.3   299  VAL299      0.1561
    188  C         17.0910   31.8550   -1.2960 C.2   299  VAL299      0.2260
    189  O         15.9940   31.2910   -1.3490 O.2   299  VAL299     -0.2867
    190  CB        16.4680   33.7330    0.2400 C.3   299  VAL299      0.0252
    191  CG1       17.0050   32.9120    1.4060 C.3   299  VAL299      0.0019
    192  CG2       16.6720   35.2170    0.4720 C.3   299  VAL299      0.0019
    193  N         12.4120   37.8600   -3.3080 N.3   317  MET317     -0.1245
    194  CA        11.9440   39.2280   -3.1230 C.3   317  MET317      0.1570
    195  C         11.8730   39.8880   -4.5010 C.2   317  MET317      0.2261
    196  O         12.9080   40.1260   -5.1380 O.2   317  MET317     -0.2867
    197  CB        12.9070   40.0030   -2.2070 C.3   317  MET317      0.0387
    198  CG        12.5920   39.8700   -0.7190 C.3   317  MET317      0.0595
    199  SD        13.9780   40.2180    0.4010 S.3   317  MET317     -0.1393
    200  CE        15.3380   39.4540   -0.4680 C.3   317  MET317      0.0692
@<TRIPOS>BOND
     1   173   174    2
     2   173   172    1
     3   175   176    1
     4   175   172    1
     5   176   177    1
     6   172   171    1
     7   177   171    1
     8   171   165   am
     9   170   168    1
    10    61    59   ar
    11    60    59   ar
    12   178   179    1
    13   169   168    1
    14    59    58    1
    15   110   111    2
    16   110   109    1
    17   167   168    1
    18   167   164    1
    19   165   166    2
    20   165   164    1
    21   196   195    2
    22   179   180    1
    23   179   182    1
    24    58    57    1
    25   164   163    1
    26   108   109    1
    27   195   194    1
    28   109   112    1
    29   180   181    2
    30   112   113    1
    31    56    55    2
    32   182   183    1
    33    55    54    1
    34    57    54    1
    35   163   157   am
    36   184   183    1
    37   193   194    1
    38   183   185    1
    39   114   113    1
    40   194   197    1
    41   113   115    1
    42    54    53    1
    43    64    65    2
    44    64    63    1
    45   158   157    2
    46   157   156    1
    47   186   187    1
    48   197   198    1
    49    53    45   am
    50    41    42    2
    51    41    40    1
    52   116   117    1
    53    62    63    1
    54    63    66    1
    55   189   188    2
    56    43    44    1
    57   188   187    1
    58    45    46    2
    59    45    44    1
    60   187   190    1
    61   156   155    1
    62   156   159    1
    63    66    67    1
    64   121   120    1
    65    67    69    1
    66    67    68    1
    67   198   199    1
    68    40    39    1
    69   200   199    1
    70    44    47    1
    71   117   120    1
    72   117   118    1
    73   159   160    1
    74   120   122    1
    75   190   192    1
    76   190   191    1
    77   118   119    2
    78    39    29   am
    79    47    48    1
    80    99    97    1
    81   160   162    1
    82   160   161    1
    83    48    49   ar
    84    48    50   ar
    85    92    93    1
    86    49    51   ar
    87    29    30    2
    88    29    28    1
    89     5     6    1
    90     5     2    1
    91    97    96    1
    92     4     3    2
    93   107   105    1
    94   106   105    1
    95    50    52   ar
    96    51    52   ar
    97     6     8   ar
    98     6     7   ar
    99    11     8   ar
   100    11    13   ar
   101    96    93    1
   102    96    98    1
   103     2     3    1
   104     2     1    1
   105     8    10   ar
   106    93    94    1
   107    28    27    1
   108    28    31    1
   109    13    14   ar
   110   105   104    1
   111     3    15   am
   112    95    94    2
   113     7     9   ar
   114    26    25    2
   115   104   101    1
   116    10     9   ar
   117    10    12   ar
   118    27    25   am
   119    14    12   ar
   120    25    24    1
   121   101   102    1
   122   101   100    1
   123    31    32    1
   124   154   152    1
   125    15    16    1
   126   102   103    2
   127    23    24    1
   128    23    17   am
   129    90    89    1
   130    16    17    1
   131    16    19    1
   132    17    18    2
   133   153   152    1
   134    33    32   ar
   135    33    35   ar
   136    32    34   ar
   137   152   151    1
   138   151   148    1
   139    89    91    1
   140    89    88    1
   141    19    20    1
   142   148   149    1
   143   148   147    1
   144    20    21    1
   145    35    37   ar
   146    34    36   ar
   147    21    22    1
   148   146   143    1
   149   149   150    2
   150    74    71    1
   151    88    85    1
   152   128   130    1
   153   128   127    1
   154    70    71    1
   155    73    72    2
   156   129   127    1
   157    37    36   ar
   158    37    38    1
   159    71    72    1
   160   127   124    1
   161   143   144    1
   162   143   142    1
   163    72    75   am
   164   144   145    2
   165   140   138   ar
   166   140   141   ar
   167   138   136   ar
   168    85    84    1
   169    85    86    1
   170    84    77   am
   171    75    76    1
   172   135   136    1
   173   135   132    1
   174   136   137   ar
   175   141   139   ar
   176    76    77    1
   177    76    79    1
   178    77    78    2
   179   137   139   ar
   180   124   123    1
   181   124   125    1
   182    87    86    2
   183   126   125    2
   184   132   131    1
   185   132   133    1
   186    79    80    1
   187    80    81    1
   188   133   134    2
   189    81    83   ar
   190    81    82   ar
