@<TRIPOS>MOLECULE
tmp/5wcfA02.pdb
 97 97 0 0 0
SMALL
GASTEIGER

@<TRIPOS>ATOM
      1  N          7.8980   56.7300    5.9720 N.3     7  VAL7       -0.1245
      2  CA         9.2000   56.0720    5.8560 C.3     7  VAL7        0.1561
      3  C         10.2620   56.8660    6.6310 C.2     7  VAL7        0.2260
      4  O         10.9860   56.2910    7.4430 O.2     7  VAL7       -0.2867
      5  CB         9.5870   55.8570    4.3670 C.3     7  VAL7        0.0252
      6  CG1       11.0880   55.6580    4.1720 C.3     7  VAL7        0.0019
      7  CG2        8.8230   54.6610    3.8020 C.3     7  VAL7        0.0019
      8  N          9.4760   56.7950   10.3900 N.3    10  GLU10      -0.1231
      9  CA         9.8640   55.4950   10.9250 C.3    10  GLU10       0.1699
     10  C         11.3710   55.4170   11.2450 C.2    10  GLU10       0.2592
     11  O         11.7540   54.9500   12.3200 O.2    10  GLU10      -0.2718
     12  CB         9.4760   54.3840    9.9190 C.3    10  GLU10       0.0402
     13  CG         9.8730   52.9750   10.3240 C.3    10  GLU10       0.1161
     14  CD         9.4810   51.9040    9.3010 C.2    10  GLU10       0.3649
     15  OE1        9.8810   51.9950    8.1220 O.co2  10  GLU10      -0.2457
     16  OE2        8.8090   50.9410    9.6970 O.co2  10  GLU10      -0.2457
     17  N         12.2120   55.8580   10.3170 N.am   11  MET11      -0.1979
     18  CA        13.6770   55.8340   10.4810 C.3    11  MET11       0.1605
     19  C         14.1450   56.6820   11.6470 C.2    11  MET11       0.2287
     20  O         14.9390   56.2540   12.4770 O.2    11  MET11      -0.2864
     21  CB        14.3640   56.3880    9.2380 C.3    11  MET11       0.0413
     22  CG        14.4180   55.4470    8.0590 C.3    11  MET11       0.0598
     23  SD        15.4680   56.1710    6.7890 S.3    11  MET11      -0.1393
     24  CE        14.2720   57.0450    5.7970 C.3    11  MET11       0.0692
     25  N         23.1090   54.6750    4.7040 N.3   106  GLU106     -0.1231
     26  CA        22.2140   53.8200    5.4390 C.3   106  GLU106      0.1699
     27  C         21.4390   53.0200    4.3960 C.2   106  GLU106      0.2592
     28  O         20.2900   53.3110    4.0830 O.2   106  GLU106     -0.2718
     29  CB        21.3430   54.6920    6.3300 C.3   106  GLU106      0.0402
     30  CG        20.6830   53.9700    7.4780 C.3   106  GLU106      0.1161
     31  CD        19.3850   53.3480    7.0440 C.2   106  GLU106      0.3649
     32  OE1       18.3260   53.7720    7.5520 O.co2 106  GLU106     -0.2457
     33  OE2       19.4320   52.4550    6.1650 O.co2 106  GLU106     -0.2457
     34  N         22.1120   51.9950    3.8810 N.am  107  TRP107     -0.1962
     35  CA        21.6790   51.2200    2.7100 C.3   107  TRP107      0.1771
     36  C         20.9600   49.9070    3.0240 C.2   107  TRP107      0.2619
     37  O         20.3320   49.3450    2.1370 O.2   107  TRP107     -0.2715
     38  CB        22.9080   50.8860    1.8270 C.3   107  TRP107      0.0590
     39  CG        24.0720   50.2270    2.5720 C.ar  107  TRP107      0.0006
     40  CD1       25.1550   50.8660    3.1180 C.ar  107  TRP107      0.0946
     41  CD2       24.2400   48.8410    2.8580 C.ar  107  TRP107      0.0152
     42  NE1       25.9960   49.9600    3.7170 N.ar  107  TRP107     -0.2442
     43  CE2       25.4580   48.7070    3.5770 C.ar  107  TRP107      0.0810
     44  CE3       23.4900   47.6930    2.5720 C.ar  107  TRP107      0.0012
     45  CZ2       25.9320   47.4760    4.0210 C.ar  107  TRP107      0.0191
     46  CZ3       23.9530   46.4700    3.0140 C.ar  107  TRP107      0.0001
     47  CH2       25.1770   46.3670    3.7250 C.ar  107  TRP107      0.0015
     48  N         21.0430   49.4660    4.2810 N.am  108  MET108     -0.1977
     49  CA        20.7180   48.1070    4.6860 C.3   108  MET108      0.1605
     50  C         19.2190   47.8820    4.7110 C.2   108  MET108      0.2287
     51  O         18.4460   48.8180    4.9490 O.2   108  MET108     -0.2864
     52  CB        21.2480   47.8060    6.0910 C.3   108  MET108      0.0413
     53  CG        22.7480   47.9230    6.2840 C.3   108  MET108      0.0598
     54  SD        23.3840   49.5950    6.4990 S.3   108  MET108     -0.1393
     55  CE        22.6780   50.0290    8.0890 C.3   108  MET108      0.0692
     56  N         17.1530   47.8460   -1.3230 N.3   114  HIS114     -0.1241
     57  CA        18.3350   47.8920   -0.4660 C.3   114  HIS114      0.1621
     58  C         19.5700   47.3420   -1.1840 C.2   114  HIS114      0.2264
     59  O         20.6440   47.9420   -1.1060 O.2   114  HIS114     -0.2867
     60  CB        18.0240   47.1980    0.8580 C.3   114  HIS114      0.0745
     61  CG        16.9230   47.8730    1.6220 C.ar  114  HIS114      0.0817
     62  ND1       15.6270   47.3930    1.6660 N.ar  114  HIS114     -0.2268
     63  CD2       16.9190   49.0280    2.3260 C.ar  114  HIS114      0.1154
     64  CE1       14.8820   48.2050    2.3970 C.ar  114  HIS114      0.1986
     65  NE2       15.6410   49.2070    2.8100 N.ar  114  HIS114     -0.2212
     66  N         20.6750   50.0410   -3.2560 N.3   117  MET117     -0.1245
     67  CA        21.3550   51.0160   -2.4030 C.3   117  MET117      0.1570
     68  C         22.8020   50.6180   -2.0760 C.2   117  MET117      0.2261
     69  O         23.6890   51.4580   -2.2020 O.2   117  MET117     -0.2867
     70  CB        20.5480   51.2930   -1.1220 C.3   117  MET117      0.0387
     71  CG        20.8860   52.6110   -0.4320 C.3   117  MET117      0.0595
     72  SD        20.8470   54.0720   -1.4880 S.3   117  MET117     -0.1393
     73  CE        21.5170   55.2750   -0.3550 C.3   117  MET117      0.0692
     74  N         13.3320   49.1420   13.3730 N.3   265  HIS265     -0.1226
     75  CA        12.3260   49.1310   12.3080 C.3   265  HIS265      0.1752
     76  C         12.6160   48.0370   11.2490 C.2   265  HIS265      0.2596
     77  O         11.7320   47.6540   10.5010 O.2   265  HIS265     -0.2718
     78  CB        12.2240   50.5090   11.6500 C.3   265  HIS265      0.0759
     79  CG        13.3090   50.7890   10.6590 C.ar  265  HIS265      0.0818
     80  ND1       14.5590   51.2490   11.0210 N.ar  265  HIS265     -0.2268
     81  CD2       13.3310   50.6610    9.3120 C.ar  265  HIS265      0.1154
     82  CE1       15.3040   51.3860    9.9370 C.ar  265  HIS265      0.1986
     83  NE2       14.5830   51.0380    8.8910 N.ar  265  HIS265     -0.2212
     84  N         13.8650   47.5720   11.1810 N.am  266  TRP266     -0.1976
     85  CA        14.2430   46.4710   10.3020 C.3   266  TRP266      0.1640
     86  C         13.6880   45.1190   10.6870 C.2   266  TRP266      0.2290
     87  O         13.5780   44.2370    9.8320 O.2   266  TRP266     -0.2864
     88  CB        15.7560   46.3470   10.2320 C.3   266  TRP266      0.0576
     89  CG        16.4100   47.3280    9.3730 C.ar  266  TRP266      0.0006
     90  CD1       16.3160   47.4110    8.0280 C.ar  266  TRP266      0.0946
     91  CD2       17.2800   48.3770    9.7830 C.ar  266  TRP266      0.0152
     92  NE1       17.0770   48.4370    7.5670 N.ar  266  TRP266     -0.2442
     93  CE2       17.6870   49.0490    8.6200 C.ar  266  TRP266      0.0810
     94  CE3       17.7560   48.8140   11.0190 C.ar  266  TRP266      0.0012
     95  CZ2       18.5520   50.1330    8.6450 C.ar  266  TRP266      0.0191
     96  CZ3       18.6300   49.8960   11.0460 C.ar  266  TRP266      0.0001
     97  CH2       19.0140   50.5430    9.8580 C.ar  266  TRP266      0.0015
@<TRIPOS>BOND
     1    66    67    1
     2    67    68    1
     3    67    70    1
     4    69    68    2
     5    72    71    1
     6    72    73    1
     7    56    57    1
     8    58    59    2
     9    58    57    1
    10    70    71    1
    11    57    60    1
    12    60    61    1
    13    61    62   ar
    14    61    63   ar
    15    62    64   ar
    16    38    39    1
    17    38    35    1
    18    37    36    2
    19    63    65   ar
    20    64    65   ar
    21    44    41   ar
    22    44    46   ar
    23    39    41   ar
    24    39    40   ar
    25    35    36    1
    26    35    34    1
    27    41    43   ar
    28    46    47   ar
    29    36    48   am
    30    40    42   ar
    31    43    42   ar
    32    43    45   ar
    33    47    45   ar
    34     7     5    1
    35    34    27   am
    36    28    27    2
    37     6     5    1
    38    48    49    1
    39     5     2    1
    40    27    26    1
    41    49    50    1
    42    49    52    1
    43    25    26    1
    44    50    51    2
    45    26    29    1
    46    24    23    1
    47     2     1    1
    48     2     3    1
    49    52    53    1
    50    33    31   ar
    51    53    54    1
    52    29    30    1
    53    54    55    1
    54     3     4    2
    55    23    22    1
    56    31    30    1
    57    31    32   ar
    58    92    90   ar
    59    92    93   ar
    60    90    89   ar
    61    22    21    1
    62    15    14   ar
    63    93    95   ar
    64    93    91   ar
    65    95    97   ar
    66    83    81   ar
    67    83    82   ar
    68    21    18    1
    69    14    16   ar
    70    14    13    1
    71    81    79   ar
    72    89    91   ar
    73    89    88    1
    74    91    94   ar
    75    87    86    2
    76    97    96   ar
    77    12    13    1
    78    12     9    1
    79    82    80   ar
    80    88    85    1
    81    85    86    1
    82    85    84    1
    83    17    18    1
    84    17    10   am
    85     8     9    1
    86    18    19    1
    87    77    76    2
    88    79    80   ar
    89    79    78    1
    90     9    10    1
    91    94    96   ar
    92    84    76   am
    93    10    11    2
    94    76    75    1
    95    19    20    2
    96    78    75    1
    97    75    74    1
