@<TRIPOS>MOLECULE
tmp/5wcgA00.pdb
 184 181 0 0 0
SMALL
GASTEIGER

@<TRIPOS>ATOM
      1  N         -2.2360   18.6340   38.5140 N.3    14  GLY14      -0.1210
      2  CA        -2.7570   19.4290   37.4280 C.3    14  GLY14       0.1956
      3  C         -2.1860   19.1110   36.0490 C.2    14  GLY14       0.2612
      4  O         -2.6940   19.6450   35.0580 O.2    14  GLY14      -0.2717
      5  N         -1.1730   18.2500   35.9700 N.am   15  LYS15      -0.1965
      6  CA        -0.4260   18.0050   34.7230 C.3    15  LYS15       0.1728
      7  C         -0.3820   16.5400   34.3050 C.2    15  LYS15       0.2617
      8  O         -0.5560   16.2440   33.1430 O.2    15  LYS15      -0.2715
      9  CB         0.9970   18.5270   34.8400 C.3    15  LYS15       0.0311
     10  CG         1.0720   20.0300   35.0320 C.3    15  LYS15       0.0038
     11  CD         2.5000   20.5350   35.1080 C.3    15  LYS15       0.0206
     12  CE         2.5920   22.0130   35.4490 C.3    15  LYS15       0.1093
     13  NZ         1.9390   22.3480   36.7520 N.3    15  LYS15      -0.1314
     14  N         -0.1290   15.6310   35.2380 N.am   16  GLY16      -0.1940
     15  CA        -0.0140   14.2090   34.9090 C.3    16  GLY16       0.2014
     16  C          1.3820   13.7560   35.2060 C.2    16  GLY16       0.2638
     17  O          2.1370   14.4380   35.9210 O.2    16  GLY16      -0.2714
     18  N          1.7430   12.5990   34.6510 N.am   17  ARG17      -0.1977
     19  CA         3.0620   12.0190   34.8740 C.3    17  ARG17       0.1597
     20  C          4.2020   12.9920   34.5400 C.2    17  ARG17       0.2287
     21  O          4.1310   13.7360   33.5640 O.2    17  ARG17      -0.2864
     22  CB         3.2350   10.7490   34.0400 C.3    17  ARG17       0.0334
     23  CG         3.3010   11.0160   32.5340 C.3    17  ARG17       0.0492
     24  CD         2.8920    9.7810   31.7580 C.3    17  ARG17       0.2205
     25  NE         3.0620   10.0040   30.3330 N.pl3  17  ARG17      -0.0865
     26  CZ         2.7980    9.1170   29.3880 C.cat  17  ARG17       0.5346
     27  NH1        2.9910    9.4510   28.1130 N.pl3  17  ARG17       0.1354
     28  NH2        2.3710    7.9000   29.7010 N.pl3  17  ARG17       0.1354
     29  N          1.6540    9.1920   24.6760 N.3   133  GLU133     -0.1245
     30  CA         0.4100    9.8520   24.3000 C.3   133  GLU133      0.1567
     31  C          0.2850    9.8620   22.7700 C.2   133  GLU133      0.2260
     32  O          1.2700   10.1020   22.0650 O.2   133  GLU133     -0.2867
     33  CB         0.3870   11.3020   24.7980 C.3   133  GLU133      0.0388
     34  CG         0.3440   11.4670   26.3060 C.3   133  GLU133      0.1160
     35  CD        -1.0060   11.0780   26.9070 C.2   133  GLU133      0.3649
     36  OE1       -1.0220   10.5420   28.0420 O.co2 133  GLU133     -0.2457
     37  OE2       -2.0470   11.2900   26.2460 O.co2 133  GLU133     -0.2457
     38  N         -2.9770   11.3060   21.6090 N.3   135  HIS135     -0.1241
     39  CA        -4.0450   12.3050   21.3950 C.3   135  HIS135      0.1621
     40  C         -5.0300   11.9750   20.2600 C.2   135  HIS135      0.2264
     41  O         -5.6550   12.8780   19.6560 O.2   135  HIS135     -0.2867
     42  CB        -3.4270   13.6850   21.1630 C.3   135  HIS135      0.0745
     43  CG        -2.6790   14.1870   22.3490 C.ar  135  HIS135      0.0817
     44  ND1       -1.3090   14.3940   22.3480 N.ar  135  HIS135     -0.2268
     45  CD2       -3.1050   14.4700   23.5970 C.ar  135  HIS135      0.1154
     46  CE1       -0.9320   14.8020   23.5450 C.ar  135  HIS135      0.1986
     47  NE2       -2.0040   14.8690   24.3180 N.ar  135  HIS135     -0.2212
     48  N          3.5950   13.3410   17.5720 N.3   179  CYS179     -0.1221
     49  CA         3.6780   14.2420   18.7150 C.3   179  CYS179      0.1808
     50  C          4.8240   13.9700   19.6960 C.2   179  CYS179      0.2601
     51  O          5.1710   14.8590   20.4690 O.2   179  CYS179     -0.2717
     52  CB         2.3150   14.3310   19.4260 C.3   179  CYS179      0.0970
     53  SG         1.8100   12.8340   20.2410 S.3   179  CYS179     -0.0800
     54  N          5.4480   12.7950   19.6460 N.am  180  ASN180     -0.1960
     55  CA         6.5840   12.4530   20.5340 C.3   180  ASN180      0.1819
     56  C          7.9750   12.5060   19.9040 C.2   180  ASN180      0.2622
     57  O          8.9750   12.5200   20.6450 O.2   180  ASN180     -0.2715
     58  CB         6.4090   11.0590   21.1570 C.3   180  ASN180      0.1195
     59  CG         5.2800   11.0110   22.1580 C.2   180  ASN180      0.2630
     60  OD1        5.4880   11.3040   23.3300 O.2   180  ASN180     -0.2716
     61  ND2        4.0680   10.6550   21.6920 N.am  180  ASN180     -0.0877
     62  N          8.0540   12.5130   18.5820 N.am  181  GLY181     -0.1940
     63  CA         9.3350   12.4910   17.8870 C.3   181  GLY181      0.2014
     64  C         10.1110   13.7780   18.0980 C.2   181  GLY181      0.2639
     65  O          9.5250   14.8600   18.1450 O.2   181  GLY181     -0.2714
     66  N         11.4090   13.6350   18.3030 N.am  182  PHE182     -0.1959
     67  CA        12.3270   14.7580   18.4430 C.3   182  PHE182      0.1771
     68  C         13.0860   14.9410   17.1560 C.2   182  PHE182      0.2620
     69  O         13.1850   14.0060   16.3330 O.2   182  PHE182     -0.2715
     70  CB        13.3490   14.4700   19.5610 C.3   182  PHE182      0.0574
     71  CG        12.7630   14.5400   20.9220 C.ar  182  PHE182     -0.0200
     72  CD1       12.1640   13.4300   21.4820 C.ar  182  PHE182     -0.0042
     73  CD2       12.7710   15.7300   21.6310 C.ar  182  PHE182     -0.0042
     74  CE1       11.6000   13.4870   22.7400 C.ar  182  PHE182     -0.0003
     75  CE2       12.2080   15.8040   22.9050 C.ar  182  PHE182     -0.0003
     76  CZ        11.6340   14.6760   23.4600 C.ar  182  PHE182     -0.0000
     77  N         13.6000   16.1530   16.9890 N.am  183  THR183     -0.1951
     78  CA        14.5450   16.4560   15.9530 C.3   183  THR183      0.1897
     79  C         15.9070   16.5070   16.5990 C.2   183  THR183      0.2313
     80  O         16.0350   16.9830   17.7250 O.2   183  THR183     -0.2863
     81  CB        14.2860   17.8280   15.3380 C.3   183  THR183      0.1794
     82  OG1       12.9720   17.8780   14.7720 O.3   183  THR183     -0.2208
     83  CG2       15.3100   18.0790   14.2840 C.3   183  THR183      0.0378
     84  N         10.7340   12.3200   26.8560 N.3   201  ALA201     -0.1245
     85  CA         9.3270   12.5920   26.6540 C.3   201  ALA201      0.1562
     86  C          8.4890   12.5680   27.9450 C.2   201  ALA201      0.2260
     87  O          7.3000   12.8800   27.9060 O.2   201  ALA201     -0.2867
     88  CB         8.7550   11.6130   25.6330 C.3   201  ALA201      0.0290
     89  N          9.2300   14.4290   30.6790 N.3   203  MET203     -0.1230
     90  CA         9.2400   15.7920   31.2240 C.3   203  MET203      0.1702
     91  C          8.0560   16.6500   30.7680 C.2   203  MET203      0.2592
     92  O          7.7120   16.6810   29.5800 O.2   203  MET203     -0.2718
     93  CB        10.5450   16.4850   30.8860 C.3   203  MET203      0.0401
     94  CG        11.7220   15.8070   31.5770 C.3   203  MET203      0.0596
     95  SD        13.2730   16.6460   31.2400 S.3   203  MET203     -0.1393
     96  CE        13.5120   16.3480   29.5040 C.3   203  MET203      0.0692
     97  N          7.4410   17.3160   31.7470 N.am  204  ASN204     -0.1960
     98  CA         6.4440   18.3320   31.5040 C.3   204  ASN204      0.1819
     99  C          7.0490   19.6440   30.9770 C.2   204  ASN204      0.2621
    100  O          8.2730   19.8210   30.9580 O.2   204  ASN204     -0.2715
    101  CB         5.5660   18.5290   32.7530 C.3   204  ASN204      0.1195
    102  CG         4.5840   17.3600   32.9480 C.2   204  ASN204      0.2630
    103  OD1        3.9720   16.8920   31.9720 O.2   204  ASN204     -0.2716
    104  ND2        4.4400   16.8800   34.1770 N.am  204  ASN204     -0.0877
    105  N          6.1640   20.5250   30.5260 N.am  205  HIS205     -0.1973
    106  CA         6.5270   21.7900   29.8790 C.3   205  HIS205      0.1656
    107  C          6.4380   22.9810   30.8170 C.2   205  HIS205      0.2291
    108  O          5.4710   23.1260   31.5750 O.2   205  HIS205     -0.2864
    109  CB         5.5960   22.0670   28.6940 C.3   205  HIS205      0.0771
    110  CG         5.6640   23.4720   28.1970 C.ar  205  HIS205      0.0820
    111  ND1        6.5900   23.8840   27.2620 N.ar  205  HIS205     -0.2267
    112  CD2        4.9900   24.5840   28.5800 C.ar  205  HIS205      0.1154
    113  CE1        6.4620   25.1860   27.0700 C.ar  205  HIS205      0.1986
    114  NE2        5.5030   25.6380   27.8670 N.ar  205  HIS205     -0.2212
    115  N         11.1270   20.9810   30.8100 N.3   236  THR236     -0.1203
    116  CA        11.7260   21.3390   29.5170 C.3   236  THR236      0.1994
    117  C         10.7270   22.2630   28.8420 C.2   236  THR236      0.2619
    118  O          9.6560   22.4980   29.3880 O.2   236  THR236     -0.2717
    119  CB        11.9600   20.0550   28.6880 C.3   236  THR236      0.1784
    120  OG1       12.7260   20.3370   27.5270 O.3   236  THR236     -0.2211
    121  CG2       10.6250   19.3770   28.2490 C.3   236  THR236      0.0376
    122  N         11.0690   22.8310   27.6910 N.am  237  SER237     -0.1937
    123  CA        10.0790   23.5250   26.8740 C.3   237  SER237      0.2055
    124  C          9.7570   22.6760   25.6520 C.2   237  SER237      0.2643
    125  O         10.6460   22.1240   25.0360 O.2   237  SER237     -0.2714
    126  CB        10.5970   24.8910   26.4140 C.3   237  SER237      0.2130
    127  OG         9.6720   25.4790   25.5160 O.3   237  SER237     -0.2179
    128  N          8.4830   22.5860   25.3160 N.am  238  TYR238     -0.1973
    129  CA         8.0170   21.8970   24.1200 C.3   238  TYR238      0.1639
    130  C          8.0200   22.7940   22.8750 C.2   238  TYR238      0.2290
    131  O          7.9050   22.2820   21.7670 O.2   238  TYR238     -0.2864
    132  CB         6.5790   21.4130   24.3120 C.3   238  TYR238      0.0560
    133  CG         6.3160   20.3970   25.4240 C.ar  238  TYR238     -0.0198
    134  CD1        7.3400   19.8410   26.1890 C.ar  238  TYR238     -0.0009
    135  CD2        5.0080   19.9390   25.6660 C.ar  238  TYR238     -0.0009
    136  CE1        7.0620   18.8940   27.1630 C.ar  238  TYR238      0.0417
    137  CE2        4.7390   18.9700   26.6330 C.ar  238  TYR238      0.0417
    138  CZ         5.7620   18.4660   27.3830 C.ar  238  TYR238      0.1957
    139  OH         5.4990   17.5170   28.3470 O.3   238  TYR238     -0.2866
    140  N         -0.6040   19.5300   21.4600 N.3   256  TYR256     -0.1241
    141  CA        -0.7070   18.7250   22.6770 C.3   256  TYR256      0.1605
    142  C         -1.9860   18.8820   23.4790 C.2   256  TYR256      0.2264
    143  O         -2.1420   18.1830   24.4700 O.2   256  TYR256     -0.2867
    144  CB         0.4930   18.9930   23.6130 C.3   256  TYR256      0.0534
    145  CG         1.8140   19.0020   22.8800 C.ar  256  TYR256     -0.0201
    146  CD1        2.3430   17.8400   22.3490 C.ar  256  TYR256     -0.0009
    147  CD2        2.5130   20.1880   22.6790 C.ar  256  TYR256     -0.0009
    148  CE1        3.5310   17.8710   21.6110 C.ar  256  TYR256      0.0417
    149  CE2        3.7020   20.2190   21.9420 C.ar  256  TYR256      0.0417
    150  CZ         4.2090   19.0520   21.4200 C.ar  256  TYR256      0.1957
    151  OH         5.3820   19.0920   20.6940 O.3   256  TYR256     -0.2866
    152  N         -3.2520   21.2100   25.4290 N.3   258  PHE258     -0.1227
    153  CA        -3.2580   21.8370   26.7500 C.3   258  PHE258      0.1736
    154  C         -2.7210   23.2330   26.6130 C.2   258  PHE258      0.2596
    155  O         -2.1350   23.5770   25.5770 O.2   258  PHE258     -0.2718
    156  CB        -2.4620   21.0460   27.7990 C.3   258  PHE258      0.0547
    157  CG        -0.9450   21.1480   27.6680 C.ar  258  PHE258     -0.0202
    158  CD1       -0.2350   20.3050   26.8070 C.ar  258  PHE258     -0.0042
    159  CD2       -0.2210   22.0810   28.4270 C.ar  258  PHE258     -0.0042
    160  CE1        1.1720   20.3870   26.7120 C.ar  258  PHE258     -0.0003
    161  CE2        1.1710   22.1920   28.3020 C.ar  258  PHE258     -0.0003
    162  CZ         1.8650   21.3390   27.4590 C.ar  258  PHE258     -0.0000
    163  N         -2.9510   24.0260   27.6600 N.am  259  THR259     -0.1939
    164  CA        -2.3840   25.3570   27.7660 C.3   259  THR259      0.2028
    165  C         -1.5980   25.4960   29.0650 C.2   259  THR259      0.2642
    166  O         -1.9040   24.8630   30.0840 O.2   259  THR259     -0.2714
    167  CB        -3.4490   26.4600   27.6530 C.3   259  THR259      0.1808
    168  OG1       -4.4560   26.2470   28.6180 O.3   259  THR259     -0.2208
    169  CG2       -4.1050   26.4710   26.2750 C.3   259  THR259      0.0379
    170  N         -0.5760   26.3370   28.9980 N.am  260  CYS260     -0.1953
    171  CA         0.3880   26.4860   30.0370 C.3   260  CYS260      0.1843
    172  C         -0.0190   27.5950   31.0300 C.2   260  CYS260      0.2625
    173  O         -0.5460   28.6450   30.6360 O.2   260  CYS260     -0.2714
    174  CB         1.7480   26.8430   29.4060 C.3   260  CYS260      0.0997
    175  SG         3.0850   26.8700   30.5910 S.3   260  CYS260     -0.0797
    176  N          0.3070   27.3590   32.2990 N.am  261  GLU261     -0.1977
    177  CA         0.0350   28.2940   33.3880 C.3   261  GLU261      0.1602
    178  C          1.3130   28.6830   34.1140 C.2   261  GLU261      0.2287
    179  O          1.2520   29.0600   35.2610 O.2   261  GLU261     -0.2864
    180  CB        -0.9580   27.6640   34.3800 C.3   261  GLU261      0.0415
    181  CG        -2.4120   27.9970   34.1180 C.3   261  GLU261      0.1163
    182  CD        -3.2290   27.7940   35.3880 C.2   261  GLU261      0.3649
    183  OE1       -3.2440   26.6480   35.8900 O.co2 261  GLU261     -0.2457
    184  OE2       -3.7940   28.7770   35.9220 O.co2 261  GLU261     -0.2457
@<TRIPOS>BOND
     1    83    81    1
     2    82    81    1
     3    81    78    1
     4    78    79    1
     5    78    77    1
     6    69    68    2
     7    79    80    2
     8    77    68   am
     9    68    67    1
    10    48    49    1
    11    63    64    1
    12    63    62    1
    13    64    65    2
    14    64    66   am
    15    66    67    1
    16    67    70    1
    17    62    56   am
    18    49    52    1
    19    49    50    1
    20    52    53    1
    21    70    71    1
    22    54    50   am
    23    54    55    1
    24    41    40    2
    25    50    51    2
    26    56    55    1
    27    56    57    2
    28    40    39    1
    29    55    58    1
    30   151   150    1
    31    71    72   ar
    32    71    73   ar
    33    58    59    1
    34    42    39    1
    35    42    43    1
    36    39    38    1
    37   150   148   ar
    38   150   149   ar
    39   140   141    1
    40    72    74   ar
    41   148   146   ar
    42    73    75   ar
    43    61    59   am
    44   131   130    2
    45   149   147   ar
    46    32    31    2
    47    59    60    2
    48    44    43   ar
    49    44    46   ar
    50    43    45   ar
    51   146   145   ar
    52   141   142    1
    53   141   144    1
    54   147   145   ar
    55    74    76   ar
    56    31    30    1
    57   130   129    1
    58   145   144    1
    59    75    76   ar
    60   142   143    2
    61    46    47   ar
    62    45    47   ar
    63   129   132    1
    64   129   128    1
    65    30    29    1
    66    30    33    1
    67   132   133    1
    68    33    34    1
    69   125   124    2
    70   128   124   am
    71   133   135   ar
    72   133   134   ar
    73   152   153    1
    74   127   126    1
    75   155   154    2
    76    88    85    1
    77   124   123    1
    78   135   137   ar
    79   134   136   ar
    80    37    35   ar
    81   169   167    1
    82    34    35    1
    83   126   123    1
    84   154   153    1
    85   154   163   am
    86   137   138   ar
    87    85    84    1
    88    85    86    1
    89   160   158   ar
    90   160   162   ar
    91   153   156    1
    92   158   157   ar
    93   123   122    1
    94    35    36   ar
    95   113   111   ar
    96   113   114   ar
    97   136   138   ar
    98   111   110   ar
    99   138   139    1
   100   162   161   ar
   101   120   119    1
   102   167   164    1
   103   167   168    1
   104   163   164    1
   105   157   156    1
   106   157   159   ar
   107   122   117   am
   108   164   165    1
   109   114   112   ar
   110    87    86    2
   111    27    26    1
   112   110   112   ar
   113   110   109    1
   114   121   119    1
   115   161   159   ar
   116   119   116    1
   117   109   106    1
   118   117   118    2
   119   117   116    1
   120   170   165   am
   121   170   171    1
   122   165   166    2
   123    26    28    1
   124    26    25    2
   125   174   171    1
   126   174   175    1
   127    96    95    1
   128   116   115    1
   129    92    91    2
   130   106   105    1
   131   106   107    1
   132   171   172    1
   133    25    24    1
   134   105    99   am
   135   173   172    2
   136    89    90    1
   137    91    90    1
   138    91    97   am
   139   107   108    2
   140    93    90    1
   141    93    94    1
   142   100    99    2
   143    99    98    1
   144   172   176   am
   145    95    94    1
   146    98    97    1
   147    98   101    1
   148    24    23    1
   149   103   102    2
   150   176   177    1
   151    23    22    1
   152   101   102    1
   153   102   104   am
   154     8     7    2
   155   177   178    1
   156   177   180    1
   157    21    20    2
   158    22    19    1
   159   178   179    2
   160   181   180    1
   161   181   182    1
   162     7     6    1
   163     7    14   am
   164    20    19    1
   165    18    19    1
   166    18    16   am
   167     6     9    1
   168     6     5    1
   169     9    10    1
   170    15    16    1
   171    15    14    1
   172    10    11    1
   173     4     3    2
   174    11    12    1
   175    16    17    2
   176   182   183   ar
   177   182   184   ar
   178    12    13    1
   179     5     3   am
   180     3     2    1
   181     2     1    1
