@<TRIPOS>MOLECULE
tmp/5wcgA01.pdb
 77 73 0 0 0
SMALL
GASTEIGER

@<TRIPOS>ATOM
      1  N         10.1950   11.5490    6.4590 N.3   102  GLU102     -0.1231
      2  CA        11.0150   11.1780    7.6110 C.3   102  GLU102      0.1699
      3  C         10.1740   10.5170    8.7480 C.2   102  GLU102      0.2592
      4  O         10.6360    9.6010    9.4160 O.2   102  GLU102     -0.2718
      5  CB        11.8010   12.4010    8.0960 C.3   102  GLU102      0.0402
      6  CG        12.9490   12.1010    9.0400 C.3   102  GLU102      0.1161
      7  CD        14.0460   13.1770    9.0300 C.2   102  GLU102      0.3649
      8  OE1       14.5190   13.5410    7.9270 O.co2 102  GLU102     -0.2457
      9  OE2       14.4790   13.6170   10.1210 O.co2 102  GLU102     -0.2457
     10  N          8.9250   10.9440    8.9210 N.am  103  THR103     -0.1953
     11  CA         8.0150   10.2930    9.8690 C.3   103  THR103      0.1897
     12  C          7.8400    8.8060    9.5300 C.2   103  THR103      0.2313
     13  O          7.9090    7.9400   10.4110 O.2   103  THR103     -0.2863
     14  CB         6.6630   11.0100    9.8720 C.3   103  THR103      0.1794
     15  OG1        6.8690   12.3290   10.3700 O.3   103  THR103     -0.2208
     16  CG2        5.6530   10.3390   10.7820 C.3   103  THR103      0.0378
     17  N         11.1280    6.9240   10.2550 N.3   106  LEU106     -0.1245
     18  CA        11.3110    6.6710   11.6880 C.3   106  LEU106      0.1561
     19  C         10.3610    5.5930   12.2080 C.2   106  LEU106      0.2260
     20  O         10.7590    4.7480   13.0350 O.2   106  LEU106     -0.2867
     21  CB        11.0860    7.9500   12.4900 C.3   106  LEU106      0.0270
     22  CG        11.3920    7.9390   13.9760 C.3   106  LEU106      0.0019
     23  CD1       12.8050    7.4560   14.3080 C.3   106  LEU106      0.0001
     24  CD2       11.1610    9.3500   14.5160 C.3   106  LEU106      0.0001
     25  N          4.0420    8.9340   17.0660 N.3   177  VAL177     -0.1231
     26  CA         5.2640    9.4700   16.4500 C.3   177  VAL177      0.1692
     27  C          5.1220   10.9730   16.1210 C.2   177  VAL177      0.2592
     28  O          6.0640   11.7540   16.3960 O.2   177  VAL177     -0.2718
     29  CB         5.7050    8.6410   15.2440 C.3   177  VAL177      0.0266
     30  CG1        6.8920    9.2990   14.5190 C.3   177  VAL177      0.0020
     31  CG2        6.0890    7.2500   15.6990 C.3   177  VAL177      0.0020
     32  N          3.9590   11.3910   15.5840 N.am  178  ASN178     -0.1974
     33  CA         3.7430   12.7970   15.1790 C.3   178  ASN178      0.1688
     34  C          3.9990   13.7370   16.3590 C.2   178  ASN178      0.2292
     35  O          4.5430   14.8280   16.1710 O.2   178  ASN178     -0.2864
     36  CB         2.3120   13.0900   14.6540 C.3   178  ASN178      0.1181
     37  CG         1.9480   12.3340   13.3780 C.2   178  ASN178      0.2629
     38  OD1        2.8210   11.9380   12.5910 O.2   178  ASN178     -0.2716
     39  ND2        0.6100   12.1320   13.1560 N.am  178  ASN178     -0.0877
     40  N          8.0540   12.5130   18.5820 N.3   181  GLY181     -0.1210
     41  CA         9.3350   12.4910   17.8870 C.3   181  GLY181      0.1956
     42  C         10.1110   13.7780   18.0980 C.2   181  GLY181      0.2612
     43  O          9.5250   14.8600   18.1450 O.2   181  GLY181     -0.2717
     44  N         11.4090   13.6350   18.3030 N.am  182  PHE182     -0.1962
     45  CA        12.3270   14.7580   18.4430 C.3   182  PHE182      0.1771
     46  C         13.0860   14.9410   17.1560 C.2   182  PHE182      0.2620
     47  O         13.1850   14.0060   16.3330 O.2   182  PHE182     -0.2715
     48  CB        13.3490   14.4700   19.5610 C.3   182  PHE182      0.0574
     49  CG        12.7630   14.5400   20.9220 C.ar  182  PHE182     -0.0200
     50  CD1       12.1640   13.4300   21.4820 C.ar  182  PHE182     -0.0042
     51  CD2       12.7710   15.7300   21.6310 C.ar  182  PHE182     -0.0042
     52  CE1       11.6000   13.4870   22.7400 C.ar  182  PHE182     -0.0003
     53  CE2       12.2080   15.8040   22.9050 C.ar  182  PHE182     -0.0003
     54  CZ        11.6340   14.6760   23.4600 C.ar  182  PHE182     -0.0000
     55  N         13.6000   16.1530   16.9890 N.am  183  THR183     -0.1951
     56  CA        14.5450   16.4560   15.9530 C.3   183  THR183      0.1897
     57  C         15.9070   16.5070   16.5990 C.2   183  THR183      0.2313
     58  O         16.0350   16.9830   17.7250 O.2   183  THR183     -0.2863
     59  CB        14.2860   17.8280   15.3380 C.3   183  THR183      0.1794
     60  OG1       12.9720   17.8780   14.7720 O.3   183  THR183     -0.2208
     61  CG2       15.3100   18.0790   14.2840 C.3   183  THR183      0.0378
     62  N         18.8480   20.8850   10.7480 N.3   191  HIS191     -0.1241
     63  CA        18.1830   19.5930   10.9810 C.3   191  HIS191      0.1621
     64  C         19.0900   18.4280   10.5930 C.2   191  HIS191      0.2264
     65  O         19.5180   18.3610    9.4510 O.2   191  HIS191     -0.2867
     66  CB        16.8920   19.5330   10.1680 C.3   191  HIS191      0.0745
     67  CG        16.1500   18.2380   10.3030 C.ar  191  HIS191      0.0817
     68  ND1       15.2960   17.9820   11.3430 N.ar  191  HIS191     -0.2268
     69  CD2       16.1360   17.1280    9.5300 C.ar  191  HIS191      0.1154
     70  CE1       14.7740   16.7730   11.2040 C.ar  191  HIS191      0.1986
     71  NE2       15.2690   16.2330   10.1080 N.ar  191  HIS191     -0.2212
     72  N         15.8090   12.6080   12.9360 N.3   194  SER194     -0.1217
     73  CA        14.7030   12.4390   13.8610 C.3   194  SER194      0.1889
     74  C         14.9420   11.2470   14.7570 C.2   194  SER194      0.2288
     75  O         15.6130   10.2880   14.3630 O.2   194  SER194     -0.2866
     76  CB        13.4390   12.2230   13.0740 C.3   194  SER194      0.2089
     77  OG        13.1610   13.3390   12.2560 O.3   194  SER194     -0.2183
@<TRIPOS>BOND
     1     1     2    1
     2     2     5    1
     3     2     3    1
     4     8     7   ar
     5     5     6    1
     6     3    10   am
     7     3     4    2
     8    10    11    1
     9     7     6    1
    10     7     9   ar
    11    65    64    2
    12    69    71   ar
    13    69    67   ar
    14    12    11    1
    15    12    13    2
    16    11    14    1
    17    14    15    1
    18    14    16    1
    19    71    70   ar
    20    66    67    1
    21    66    63    1
    22    17    18    1
    23    67    68   ar
    24    64    63    1
    25    62    63    1
    26    70    68   ar
    27    18    19    1
    28    18    21    1
    29    19    20    2
    30    77    76    1
    31    21    22    1
    32    38    37    2
    33    72    73    1
    34    76    73    1
    35    39    37   am
    36    37    36    1
    37    73    74    1
    38    22    23    1
    39    22    24    1
    40    61    59    1
    41    75    74    2
    42    30    29    1
    43    36    33    1
    44    60    59    1
    45    33    32    1
    46    33    34    1
    47    29    31    1
    48    29    26    1
    49    59    56    1
    50    32    27   am
    51    56    57    1
    52    56    55    1
    53    27    28    2
    54    27    26    1
    55    35    34    2
    56    47    46    2
    57    26    25    1
    58    57    58    2
    59    55    46   am
    60    46    45    1
    61    41    42    1
    62    41    40    1
    63    42    43    2
    64    42    44   am
    65    44    45    1
    66    45    48    1
    67    48    49    1
    68    49    50   ar
    69    49    51   ar
    70    50    52   ar
    71    51    53   ar
    72    52    54   ar
    73    53    54   ar
