@<TRIPOS>MOLECULE
tmp/5wcjA00.pdb
 163 158 0 0 0
SMALL
GASTEIGER

@<TRIPOS>ATOM
      1  N          3.3750   11.3760  -19.0060 N.3     4  HIS4       -0.1226
      2  CA         2.0570   11.9110  -19.3630 C.3     4  HIS4        0.1752
      3  C          0.9500   11.1480  -18.6410 C.2     4  HIS4        0.2596
      4  O         -0.0580   11.7470  -18.2710 O.2     4  HIS4       -0.2718
      5  CB         1.8470   12.0910  -20.8690 C.3     4  HIS4        0.0759
      6  CG         1.3780   10.8710  -21.6020 C.ar    4  HIS4        0.0818
      7  ND1        2.2470    9.9880  -22.2050 N.ar    4  HIS4       -0.2268
      8  CD2        0.1310   10.4410  -21.9070 C.ar    4  HIS4        0.1154
      9  CE1        1.5530    9.0350  -22.8050 C.ar    4  HIS4        0.1986
     10  NE2        0.2660    9.2880  -22.6440 N.ar    4  HIS4       -0.2212
     11  N          1.1620    9.8630  -18.3650 N.am    5  HIS5       -0.1975
     12  CA         0.1840    9.1220  -17.5390 C.3     5  HIS5        0.1656
     13  C          0.0740    9.6290  -16.1200 C.2     5  HIS5        0.2291
     14  O         -1.0400    9.7960  -15.6100 O.2     5  HIS5       -0.2864
     15  CB         0.4390    7.6170  -17.5850 C.3     5  HIS5        0.0771
     16  CG         0.0410    6.9940  -18.8810 C.ar    5  HIS5        0.0820
     17  ND1        0.5090    5.7640  -19.2860 N.ar    5  HIS5       -0.2267
     18  CD2       -0.7820    7.4320  -19.8700 C.ar    5  HIS5        0.1154
     19  CE1       -0.0150    5.4650  -20.4640 C.ar    5  HIS5        0.1986
     20  NE2       -0.7940    6.4640  -20.8470 N.ar    5  HIS5       -0.2212
     21  N        -10.3470    6.0260  -23.2460 N.3    31  VAL31      -0.1231
     22  CA       -10.2610    5.7110  -24.6650 C.3    31  VAL31       0.1692
     23  C         -8.8090    5.6720  -25.0330 C.2    31  VAL31       0.2593
     24  O         -8.0930    6.6780  -24.8550 O.2    31  VAL31      -0.2718
     25  CB       -10.9730    6.7580  -25.5340 C.3    31  VAL31       0.0266
     26  CG1      -10.9410    6.3190  -26.9840 C.3    31  VAL31       0.0020
     27  CG2      -12.3900    6.9650  -25.0170 C.3    31  VAL31       0.0020
     28  N         -8.3920    4.5130  -25.5450 N.am   32  GLY32      -0.1942
     29  CA        -7.0340    4.2520  -25.9340 C.3    32  GLY32       0.2014
     30  C         -6.3580    3.4180  -24.8590 C.2    32  GLY32       0.2639
     31  O         -6.1490    3.9070  -23.7590 O.2    32  GLY32      -0.2714
     32  N         -6.0400    2.1580  -25.1700 N.am   33  LEU33      -0.1963
     33  CA        -5.4270    1.2290  -24.1650 C.3    33  LEU33       0.1728
     34  C         -3.9240    1.3550  -24.0530 C.2    33  LEU33       0.2616
     35  O         -3.3750    1.2470  -22.9410 O.2    33  LEU33      -0.2715
     36  CB        -5.7760   -0.2230  -24.4880 C.3    33  LEU33       0.0311
     37  CG        -5.3770   -1.2960  -23.4720 C.3    33  LEU33       0.0022
     38  CD1       -6.1790   -1.1270  -22.1940 C.3    33  LEU33       0.0001
     39  CD2       -5.6010   -2.6800  -24.0870 C.3    33  LEU33       0.0001
     40  N         -3.2510    1.5380  -25.1880 N.am   34  GLY34      -0.1955
     41  CA        -1.7990    1.3810  -25.2920 C.3    34  GLY34       0.1869
     42  C         -1.3960    0.0260  -24.7250 C.2    34  GLY34       0.2309
     43  O         -2.0740   -0.9750  -24.9630 O.2    34  GLY34      -0.2863
     44  N        -11.9580    1.6560  -23.9240 N.3    54  VAL54      -0.1231
     45  CA       -12.3210    1.4600  -25.3230 C.3    54  VAL54       0.1692
     46  C        -11.0560    1.4910  -26.1750 C.2    54  VAL54       0.2592
     47  O        -10.2520    2.3930  -26.0570 O.2    54  VAL54      -0.2718
     48  CB       -13.3270    2.5280  -25.7730 C.3    54  VAL54       0.0266
     49  CG1      -13.7530    2.2830  -27.2110 C.3    54  VAL54       0.0020
     50  CG2      -14.5120    2.5400  -24.8300 C.3    54  VAL54       0.0020
     51  N        -10.8510    0.4740  -26.9990 N.am   55  GLU55      -0.1966
     52  CA        -9.6340    0.3220  -27.7590 C.3    55  GLU55       0.1733
     53  C        -10.0020   -0.1410  -29.1730 C.2    55  GLU55       0.2616
     54  O        -10.7410   -1.1050  -29.3230 O.2    55  GLU55      -0.2715
     55  CB        -8.7170   -0.7170  -27.0810 C.3    55  GLU55       0.0429
     56  CG        -7.5150   -1.1810  -27.8880 C.3    55  GLU55       0.1163
     57  CD        -6.6660   -0.0420  -28.4140 C.2    55  GLU55       0.3649
     58  OE1       -6.3350    0.8920  -27.6220 O.co2  55  GLU55      -0.2457
     59  OE2       -6.2890   -0.0680  -29.6190 O.co2  55  GLU55      -0.2457
     60  N         -9.4710    0.5340  -30.1780 N.am   56  ILE56      -0.1963
     61  CA        -9.8690    0.2390  -31.5840 C.3    56  ILE56       0.1727
     62  C         -9.2110   -1.0320  -32.1460 C.2    56  ILE56       0.2616
     63  O         -9.8090   -1.7000  -32.9890 O.2    56  ILE56      -0.2715
     64  CB        -9.5860    1.4380  -32.5050 C.3    56  ILE56       0.0290
     65  CG1      -10.4100    1.3470  -33.7930 C.3    56  ILE56       0.0022
     66  CG2       -8.1190    1.6140  -32.8090 C.3    56  ILE56       0.0023
     67  CD1      -10.2600    2.6110  -34.6350 C.3    56  ILE56       0.0001
     68  N         -8.0190   -1.3770  -31.6440 N.am   57  ASP57      -0.1971
     69  CA        -7.1480   -2.4100  -32.2260 C.3    57  ASP57       0.1709
     70  C         -7.1250   -3.6310  -31.3070 C.2    57  ASP57       0.2293
     71  O         -6.5250   -3.5620  -30.2170 O.2    57  ASP57      -0.2864
     72  CB        -5.7500   -1.8350  -32.4140 C.3    57  ASP57       0.1436
     73  CG        -4.7650   -2.8020  -33.0940 C.2    57  ASP57       0.3671
     74  OD1       -5.1080   -3.9710  -33.3710 O.co2  57  ASP57      -0.2456
     75  OD2       -3.6100   -2.3710  -33.3180 O.co2  57  ASP57      -0.2456
     76  N         -3.7960   -4.7240  -29.6750 N.3    60  MET60      -0.1245
     77  CA        -3.2910   -4.0200  -28.5090 C.3    60  MET60       0.1570
     78  C         -3.7850   -4.6770  -27.2260 C.2    60  MET60       0.2261
     79  O         -3.0230   -4.8220  -26.2730 O.2    60  MET60      -0.2867
     80  CB        -3.6800   -2.5280  -28.5550 C.3    60  MET60       0.0387
     81  CG        -3.0420   -1.7750  -29.7270 C.3    60  MET60       0.0595
     82  SD        -1.2460   -1.6730  -29.6500 S.3    60  MET60      -0.1393
     83  CE        -1.0320   -0.6090  -28.2460 C.3    60  MET60       0.0692
     84  N        -13.6200   -1.1950  -30.1150 N.3    81  ALA81      -0.1231
     85  CA       -14.4440   -0.2480  -30.8600 C.3    81  ALA81       0.1694
     86  C        -13.6550    1.0280  -31.1000 C.2    81  ALA81       0.2592
     87  O        -12.6740    1.3420  -30.3810 O.2    81  ALA81      -0.2718
     88  CB       -15.7280    0.0600  -30.0980 C.3    81  ALA81       0.0304
     89  N        -14.0640    1.7670  -32.1250 N.am   82  ASP82      -0.1960
     90  CA       -13.6170    3.1410  -32.3060 C.3    82  ASP82       0.1840
     91  C        -14.2670    3.9240  -31.1760 C.2    82  ASP82       0.2623
     92  O        -15.4730    3.8380  -30.9870 O.2    82  ASP82      -0.2715
     93  CB       -14.1200    3.6380  -33.6700 C.3    82  ASP82       0.1450
     94  CG       -13.6090    5.0110  -34.0500 C.2    82  ASP82       0.3671
     95  OD1      -13.2210    5.8630  -33.1850 O.co2  82  ASP82      -0.2456
     96  OD2      -13.6350    5.2640  -35.2800 O.co2  82  ASP82      -0.2456
     97  N        -13.4870    4.6720  -30.3970 N.am   83  GLY83      -0.1940
     98  CA       -14.0640    5.4980  -29.3140 C.3    83  GLY83       0.2014
     99  C        -15.1610    6.4820  -29.7830 C.2    83  GLY83       0.2638
    100  O        -16.0640    6.7940  -29.0330 O.2    83  GLY83      -0.2714
    101  N        -15.0490    6.9790  -31.0060 N.am   84  LEU84      -0.1977
    102  CA       -16.0720    7.8850  -31.5770 C.3    84  LEU84       0.1596
    103  C        -17.4350    7.2000  -31.6670 C.2    84  LEU84       0.2287
    104  O        -18.4350    7.6990  -31.1130 O.2    84  LEU84      -0.2864
    105  CB       -15.6270    8.3970  -32.9270 C.3    84  LEU84       0.0297
    106  CG       -14.4140    9.3040  -32.9250 C.3    84  LEU84       0.0022
    107  CD1      -13.8380    9.3260  -34.3060 C.3    84  LEU84       0.0001
    108  CD2      -14.7000   10.6970  -32.3700 C.3    84  LEU84       0.0001
    109  N         -6.6630    9.0590  -24.2890 N.3   106  ASP106     -0.1225
    110  CA        -5.2520    8.7470  -24.4850 C.3   106  ASP106      0.1805
    111  C         -5.1470    8.0780  -25.8370 C.2   106  ASP106      0.2598
    112  O         -4.6560    6.9530  -25.9650 O.2   106  ASP106     -0.2718
    113  CB        -4.7820    7.8130  -23.3470 C.3   106  ASP106      0.1424
    114  CG        -3.2750    7.6750  -23.2360 C.2   106  ASP106      0.3668
    115  OD1       -2.5460    8.5550  -23.7240 O.co2 106  ASP106     -0.2456
    116  OD2       -2.8220    6.6470  -22.6230 O.co2 106  ASP106     -0.2456
    117  N         -5.6850    8.7500  -26.8450 N.am  107  VAL107     -0.1966
    118  CA        -5.8640    8.1460  -28.1590 C.3   107  VAL107      0.1727
    119  C         -4.8670    8.7430  -29.1480 C.2   107  VAL107      0.2616
    120  O         -4.6840    9.9580  -29.1910 O.2   107  VAL107     -0.2715
    121  CB        -7.3360    8.1820  -28.6080 C.3   107  VAL107      0.0290
    122  CG1       -7.9720    9.5300  -28.4090 C.3   107  VAL107      0.0023
    123  CG2       -7.4930    7.7170  -30.0450 C.3   107  VAL107      0.0023
    124  N         -4.1830    7.8770  -29.8880 N.am  108  ASP108     -0.1957
    125  CA        -3.1820    8.3100  -30.8650 C.3   108  ASP108      0.1840
    126  C         -3.2310    7.3450  -32.0370 C.2   108  ASP108      0.2622
    127  O         -3.0000    6.1580  -31.8450 O.2   108  ASP108     -0.2715
    128  CB        -1.7940    8.3310  -30.2280 C.3   108  ASP108      0.1450
    129  CG        -0.7280    8.9770  -31.1240 C.2   108  ASP108      0.3671
    130  OD1       -1.0190    9.3750  -32.2760 O.co2 108  ASP108     -0.2456
    131  OD2        0.4240    9.0730  -30.6590 O.co2 108  ASP108     -0.2456
    132  N         -3.5720    7.8370  -33.2280 N.am  109  SER109     -0.1950
    133  CA        -3.6540    6.9720  -34.4250 C.3   109  SER109      0.1924
    134  C         -2.3260    6.8590  -35.1850 C.2   109  SER109      0.2314
    135  O         -1.3260    7.4820  -34.8150 O.2   109  SER109     -0.2863
    136  CB        -4.7310    7.4780  -35.3610 C.3   109  SER109      0.2116
    137  OG        -4.4090    8.7820  -35.7790 O.3   109  SER109     -0.2180
    138  N         -7.0100   12.0360  -32.7880 N.3   119  PRO119     -0.2116
    139  CA        -7.5980   12.4020  -34.0810 C.3   119  PRO119      0.1372
    140  C         -8.5950   13.5680  -33.9290 C.2   119  PRO119      0.2244
    141  O         -9.3110   13.6500  -32.9240 O.2   119  PRO119     -0.2868
    142  CB        -8.2960   11.1010  -34.5170 C.3   119  PRO119      0.0268
    143  CG        -7.5550   10.0220  -33.7910 C.3   119  PRO119      0.0207
    144  CD        -7.2180   10.6180  -32.4660 C.3   119  PRO119      0.0892
    145  N        -12.2870   13.7200  -32.3400 N.3   122  PHE122     -0.1241
    146  CA       -12.5140   13.5680  -30.9000 C.3   122  PHE122      0.1605
    147  C        -12.6610   14.9130  -30.2040 C.2   122  PHE122      0.2264
    148  O        -13.1440   14.9580  -29.0810 O.2   122  PHE122     -0.2867
    149  CB       -11.3580   12.7960  -30.2180 C.3   122  PHE122      0.0534
    150  CG       -11.4120   11.3160  -30.4110 C.ar  122  PHE122     -0.0203
    151  CD1      -10.8080   10.7210  -31.4930 C.ar  122  PHE122     -0.0042
    152  CD2      -12.0990   10.5200  -29.5030 C.ar  122  PHE122     -0.0042
    153  CE1      -10.8440    9.3380  -31.6610 C.ar  122  PHE122     -0.0003
    154  CE2      -12.1570    9.1420  -29.6520 C.ar  122  PHE122     -0.0003
    155  CZ       -11.5190    8.5370  -30.7330 C.ar  122  PHE122     -0.0000
    156  N         -5.0210   13.8960  -23.5170 N.3   144  ASN144     -0.1240
    157  CA        -3.6200   13.9280  -23.9010 C.3   144  ASN144      0.1653
    158  C         -3.6080   14.5400  -25.2990 C.2   144  ASN144      0.2266
    159  O         -4.1700   13.9470  -26.2210 O.2   144  ASN144     -0.2867
    160  CB        -3.0520   12.5190  -23.9070 C.3   144  ASN144      0.1155
    161  CG        -1.6140   12.4430  -24.4110 C.2   144  ASN144      0.2627
    162  OD1       -0.8780   13.4110  -24.3580 O.2   144  ASN144     -0.2716
    163  ND2       -1.2110   11.2530  -24.8920 N.am  144  ASN144     -0.0877
@<TRIPOS>BOND
     1   137   136    1
     2   136   133    1
     3    96    94   ar
     4   134   135    2
     5   134   133    1
     6    67    65    1
     7   142   139    1
     8   142   143    1
     9   133   132    1
    10   107   106    1
    11   139   140    1
    12   139   138    1
    13    94    93    1
    14    94    95   ar
    15   140   141    2
    16    65    64    1
    17   143   144    1
    18    93    90    1
    19    74    73   ar
    20    75    73   ar
    21   132   126   am
    22    73    72    1
    23    63    62    2
    24   105   106    1
    25   105   102    1
    26   106   108    1
    27    66    64    1
    28   138   144    1
    29    64    61    1
    30    72    69    1
    31   145   146    1
    32    90    89    1
    33    90    91    1
    34   130   129   ar
    35    69    68    1
    36    69    70    1
    37    62    68   am
    38    62    61    1
    39    89    86   am
    40   126   127    2
    41   126   125    1
    42   103   102    1
    43   103   104    2
    44   153   151   ar
    45   153   155   ar
    46    61    60    1
    47   102   101    1
    48   151   150   ar
    49    70    71    2
    50    91    92    2
    51    91    97   am
    52   129   131   ar
    53   129   128    1
    54    86    85    1
    55    86    87    2
    56   101    99   am
    57   146   149    1
    58   146   147    1
    59   125   128    1
    60   125   124    1
    61    85    84    1
    62    85    88    1
    63   155   154   ar
    64   150   149    1
    65   150   152   ar
    66    97    98    1
    67   147   148    2
    68    60    53   am
    69   123   121    1
    70   124   119   am
    71    99    98    1
    72    99   100    2
    73    81    82    1
    74    81    80    1
    75    76    77    1
    76   154   152   ar
    77    82    83    1
    78    59    57   ar
    79    54    53    2
    80   120   119    2
    81    53    52    1
    82   119   118    1
    83   121   122    1
    84   121   118    1
    85    80    77    1
    86    77    78    1
    87    57    56    1
    88    57    58   ar
    89   118   117    1
    90    56    55    1
    91    52    55    1
    92    52    51    1
    93    78    79    2
    94    49    48    1
    95    51    46   am
    96    26    25    1
    97   117   111   am
    98   159   158    2
    99    46    47    2
   100    46    45    1
   101   112   111    2
   102    29    28    1
   103    29    30    1
   104   111   110    1
   105    48    45    1
   106    48    50    1
   107    28    23   am
   108    25    27    1
   109    25    22    1
   110    45    44    1
   111   158   157    1
   112    41    40    1
   113    41    42    1
   114    40    34   am
   115    32    30   am
   116    32    33    1
   117    23    24    2
   118    23    22    1
   119    43    42    2
   120   163   161   am
   121    30    31    2
   122    22    21    1
   123    36    33    1
   124    36    37    1
   125   110   109    1
   126   110   113    1
   127   161   162    2
   128   161   160    1
   129    33    34    1
   130    39    37    1
   131    34    35    2
   132   160   157    1
   133   157   156    1
   134   115   114   ar
   135    37    38    1
   136   113   114    1
   137   114   116   ar
   138     9    10   ar
   139     9     7   ar
   140    10     8   ar
   141     7     6   ar
   142     8     6   ar
   143     6     5    1
   144     5     2    1
   145    20    19   ar
   146    20    18   ar
   147    19    17   ar
   148    18    16   ar
   149     2     1    1
   150     2     3    1
   151    17    16   ar
   152    16    15    1
   153     3    11   am
   154     3     4    2
   155    11    12    1
   156    15    12    1
   157    12    13    1
   158    13    14    2
