@<TRIPOS>MOLECULE
tmp/5wclA00.pdb
 138 128 0 0 0
SMALL
GASTEIGER

@<TRIPOS>ATOM
      1  N         -9.3630    2.2340   -1.2730 N.3    27  PHE27      -0.1241
      2  CA        -8.3960    3.3120   -1.2740 C.3    27  PHE27       0.1605
      3  C         -8.7490    4.2920   -2.3780 C.2    27  PHE27       0.2264
      4  O         -8.4270    5.4760   -2.3220 O.2    27  PHE27      -0.2867
      5  CB        -7.0130    2.7440   -1.5400 C.3    27  PHE27       0.0534
      6  CG        -6.0700    2.8450   -0.4020 C.ar   27  PHE27      -0.0203
      7  CD1       -5.2400    3.9420   -0.2650 C.ar   27  PHE27      -0.0042
      8  CD2       -6.0110    1.8400    0.5200 C.ar   27  PHE27      -0.0042
      9  CE1       -4.3650    4.0220    0.7900 C.ar   27  PHE27      -0.0003
     10  CE2       -5.1410    1.9140    1.5740 C.ar   27  PHE27      -0.0003
     11  CZ        -4.3190    3.0030    1.7100 C.ar   27  PHE27      -0.0000
     12  N         -4.6310    4.5330   -7.0860 N.3    36  ILE36      -0.1245
     13  CA        -4.3820    5.3350   -5.8980 C.3    36  ILE36       0.1561
     14  C         -3.4630    6.4810   -6.2550 C.2    36  ILE36       0.2260
     15  O         -2.2880    6.2750   -6.5420 O.2    36  ILE36      -0.2867
     16  CB        -3.7100    4.4850   -4.7800 C.3    36  ILE36       0.0252
     17  CG1       -4.7110    3.5330   -4.1480 C.3    36  ILE36       0.0019
     18  CG2       -3.0790    5.3580   -3.6970 C.3    36  ILE36       0.0019
     19  CD1       -4.0630    2.4410   -3.3320 C.3    36  ILE36       0.0001
     20  N         -4.4550    7.8920   -1.6440 N.3    41  LEU41      -0.1245
     21  CA        -3.6380    7.2930   -0.5980 C.3    41  LEU41       0.1561
     22  C         -3.8110    8.0600    0.7230 C.2    41  LEU41       0.2260
     23  O         -4.0220    7.4640    1.7830 O.2    41  LEU41      -0.2867
     24  CB        -2.1740    7.3130   -1.0630 C.3    41  LEU41       0.0270
     25  CG        -1.1120    6.7760   -0.1140 C.3    41  LEU41       0.0019
     26  CD1       -1.4040    5.3370    0.2810 C.3    41  LEU41       0.0001
     27  CD2        0.2490    6.9050   -0.7920 C.3    41  LEU41       0.0001
     28  N          5.4970    6.9800   -1.3470 N.3    60  MET60      -0.1230
     29  CA         4.8970    5.6840   -1.0670 C.3    60  MET60       0.1702
     30  C          4.4340    5.0450   -2.3760 C.2    60  MET60       0.2592
     31  O          4.6530    3.8650   -2.6280 O.2    60  MET60      -0.2718
     32  CB         3.7170    5.8120   -0.1110 C.3    60  MET60       0.0401
     33  CG         3.9100    6.8110    1.0230 C.3    60  MET60       0.0596
     34  SD         3.1860    6.2540    2.5740 S.3    60  MET60      -0.1393
     35  CE         1.4690    6.1120    2.0990 C.3    60  MET60       0.0692
     36  N          3.7950    5.8580   -3.2050 N.am   61  ILE61      -0.1980
     37  CA         3.3280    5.4390   -4.5220 C.3    61  ILE61       0.1595
     38  C          4.4970    5.1650   -5.4720 C.2    61  ILE61       0.2287
     39  O          4.5000    4.1800   -6.2060 O.2    61  ILE61      -0.2864
     40  CB         2.4160    6.5250   -5.1040 C.3    61  ILE61       0.0276
     41  CG1        1.1420    6.5670   -4.2670 C.3    61  ILE61       0.0022
     42  CG2        2.1060    6.2870   -6.5810 C.3    61  ILE61       0.0022
     43  CD1        0.0310    7.3180   -4.9240 C.3    61  ILE61       0.0001
     44  N          7.3830    3.9820   -5.2030 N.3    63  GLU63      -0.1231
     45  CA         8.0070    2.6670   -5.0990 C.3    63  GLU63       0.1699
     46  C          7.5390    1.7440   -6.2120 C.2    63  GLU63       0.2592
     47  O          8.3360    1.2040   -6.9790 O.2    63  GLU63      -0.2718
     48  CB         7.6720    2.0550   -3.7610 C.3    63  GLU63       0.0402
     49  CG         8.1790    0.6340   -3.5870 C.3    63  GLU63       0.1161
     50  CD         9.6780    0.5030   -3.7680 C.2    63  GLU63       0.3649
     51  OE1       10.1210    0.0610   -4.8530 O.co2  63  GLU63      -0.2457
     52  OE2       10.4190    0.8350   -2.8230 O.co2  63  GLU63      -0.2457
     53  N          6.2370    1.5820   -6.2980 N.am   64  VAL64      -0.1980
     54  CA         5.6490    0.6660   -7.2530 C.3    64  VAL64       0.1595
     55  C          5.1870    1.3730   -8.5030 C.2    64  VAL64       0.2287
     56  O          4.7790    0.7250   -9.4640 O.2    64  VAL64      -0.2864
     57  CB         4.4750   -0.0890   -6.6480 C.3    64  VAL64       0.0276
     58  CG1        4.9970   -1.1450   -5.7100 C.3    64  VAL64       0.0022
     59  CG2        3.5490    0.8680   -5.9210 C.3    64  VAL64       0.0022
     60  N         -0.8340    4.2820   -7.8710 N.3    72  VAL72      -0.1245
     61  CA        -0.7440    2.8690   -7.6420 C.3    72  VAL72       0.1561
     62  C         -1.9960    2.1520   -8.1210 C.2    72  VAL72       0.2260
     63  O         -3.1080    2.5470   -7.7910 O.2    72  VAL72      -0.2867
     64  CB        -0.5450    2.6160   -6.1520 C.3    72  VAL72       0.0252
     65  CG1       -0.8280    1.1720   -5.7990 C.3    72  VAL72       0.0019
     66  CG2        0.8650    3.0320   -5.7790 C.3    72  VAL72       0.0019
     67  N         -0.2340   -1.7240   -5.4260 N.3    77  PHE77      -0.1241
     68  CA        -0.7880   -1.7490   -4.0580 C.3    77  PHE77       0.1605
     69  C         -0.4450   -3.0520   -3.3450 C.2    77  PHE77       0.2264
     70  O          0.0360   -3.0620   -2.2180 O.2    77  PHE77      -0.2867
     71  CB        -2.3200   -1.6010   -4.0910 C.3    77  PHE77       0.0534
     72  CG        -2.9450   -1.4860   -2.7170 C.ar   77  PHE77      -0.0203
     73  CD1       -2.8450   -0.3030   -2.0040 C.ar   77  PHE77      -0.0042
     74  CD2       -3.6130   -2.5580   -2.1250 C.ar   77  PHE77      -0.0042
     75  CE1       -3.3840   -0.1810   -0.7400 C.ar   77  PHE77      -0.0003
     76  CE2       -4.1600   -2.4340   -0.8540 C.ar   77  PHE77      -0.0003
     77  CZ        -4.0420   -1.2470   -0.1640 C.ar   77  PHE77      -0.0000
     78  N          3.0200   -3.7590   -2.1040 N.3    80  MET80      -0.1245
     79  CA         3.2450   -2.9950   -0.8920 C.3    80  MET80       0.1570
     80  C          2.5270   -3.6730    0.2580 C.2    80  MET80       0.2261
     81  O          3.0050   -3.6720    1.3780 O.2    80  MET80      -0.2867
     82  CB         2.7680   -1.5420   -1.0200 C.3    80  MET80       0.0387
     83  CG         2.6500   -0.8250    0.3270 C.3    80  MET80       0.0595
     84  SD         4.1890   -0.8420    1.2810 S.3    80  MET80      -0.1393
     85  CE         3.6490   -0.1610    2.8520 C.3    80  MET80       0.0692
     86  N          4.6240   -6.4050    1.2360 N.3    83  ARG83      -0.1245
     87  CA         5.7790   -5.6800    1.7440 C.3    83  ARG83       0.1563
     88  C          5.5060   -5.1560    3.1550 C.2    83  ARG83       0.2260
     89  O          6.3460   -5.2670    4.0430 O.2    83  ARG83      -0.2867
     90  CB         6.1020   -4.5210    0.8080 C.3    83  ARG83       0.0307
     91  CG         7.2730   -3.6630    1.2350 C.3    83  ARG83       0.0489
     92  CD         7.3450   -2.4040    0.3890 C.3    83  ARG83       0.2205
     93  NE         8.0890   -1.3300    1.0470 N.pl3  83  ARG83      -0.0865
     94  CZ         8.8470   -0.4460    0.4040 C.cat  83  ARG83       0.5346
     95  NH1        9.1670   -0.6410   -0.8700 N.pl3  83  ARG83       0.1354
     96  NH2        9.3350    0.6000    1.0600 N.pl3  83  ARG83       0.1354
     97  N         12.0340    4.9370    2.2760 N.3    97  THR97      -0.1203
     98  CA        11.0470    5.4740    1.3630 C.3    97  THR97       0.1994
     99  C         10.1680    6.4900    2.0740 C.2    97  THR97       0.2617
    100  O          8.9540    6.5160    1.8760 O.2    97  THR97      -0.2717
    101  CB        10.1710    4.3650    0.7610 C.3    97  THR97       0.1784
    102  OG1       10.0490    3.2810    1.6940 O.3    97  THR97      -0.2211
    103  CG2       10.7480    3.8570   -0.5520 C.3    97  THR97       0.0376
    104  N         10.8060    7.2950    2.9300 N.am   98  LEU98      -0.1979
    105  CA        10.1200    8.2800    3.7660 C.3    98  LEU98       0.1596
    106  C          9.4570    7.6370    4.9680 C.2    98  LEU98       0.2287
    107  O          8.3130    7.1890    4.8970 O.2    98  LEU98      -0.2864
    108  CB         9.0620    9.0670    2.9870 C.3    98  LEU98       0.0297
    109  CG         9.4770   10.4530    2.5160 C.3    98  LEU98       0.0022
    110  CD1       10.5090   10.3560    1.4400 C.3    98  LEU98       0.0001
    111  CD2        8.2940   11.2090    1.9870 C.3    98  LEU98       0.0001
    112  N          3.8590    5.9030    8.0730 N.3   102  ARG102     -0.1231
    113  CA         3.9590    4.5090    7.6670 C.3   102  ARG102      0.1694
    114  C          2.6330    3.8020    7.8930 C.2   102  ARG102      0.2591
    115  O          2.2210    3.5810    9.0320 O.2   102  ARG102     -0.2718
    116  CB         5.0780    3.7950    8.4310 C.3   102  ARG102      0.0321
    117  CG         5.8560    2.7630    7.6080 C.3   102  ARG102      0.0489
    118  CD         4.9560    1.7110    6.9660 C.3   102  ARG102      0.2205
    119  NE         5.7110    0.5140    6.5770 N.pl3 102  ARG102     -0.0865
    120  CZ         5.2680   -0.7350    6.7350 C.cat 102  ARG102      0.5346
    121  NH1        4.0550   -0.9610    7.2240 N.pl3 102  ARG102      0.1354
    122  NH2        6.0400   -1.7590    6.3930 N.pl3 102  ARG102      0.1354
    123  N          1.9660    3.4690    6.8040 N.am  103  ILE103     -0.1980
    124  CA         0.7210    2.7320    6.8730 C.3   103  ILE103      0.1595
    125  C          0.9850    1.2710    7.2640 C.2   103  ILE103      0.2287
    126  O          1.8470    0.6070    6.6880 O.2   103  ILE103     -0.2864
    127  CB        -0.0500    2.8320    5.5280 C.3   103  ILE103      0.0276
    128  CG1       -1.2730    3.7640    5.6930 C.3   103  ILE103      0.0022
    129  CG2       -0.4380    1.4550    4.9960 C.3   103  ILE103      0.0022
    130  CD1       -2.1290    3.9070    4.4630 C.3   103  ILE103      0.0001
    131  N         -4.3150   -0.2210    7.9960 N.3   108  MET108     -0.1245
    132  CA        -4.7950    0.4580    6.8050 C.3   108  MET108      0.1570
    133  C         -5.9200   -0.3320    6.1860 C.2   108  MET108      0.2261
    134  O         -6.9960    0.1970    5.9140 O.2   108  MET108     -0.2867
    135  CB        -3.6970    0.6250    5.7650 C.3   108  MET108      0.0387
    136  CG        -4.2540    0.9110    4.3790 C.3   108  MET108      0.0595
    137  SD        -4.2400   -0.5450    3.3100 S.3   108  MET108     -0.1393
    138  CE        -2.5330   -0.5540    2.7730 C.3   108  MET108      0.0692
@<TRIPOS>BOND
     1    56    55    2
     2    55    54    1
     3    62    63    2
     4    62    61    1
     5    60    61    1
     6    61    64    1
     7    54    57    1
     8    54    53    1
     9    12    13    1
    10    47    46    2
    11    57    59    1
    12    57    58    1
    13    42    40    1
    14    15    14    2
    15    53    46   am
    16    14    13    1
    17    46    45    1
    18    39    38    2
    19    64    65    1
    20    64    66    1
    21    13    16    1
    22    38    37    1
    23    67    68    1
    24    44    45    1
    25    40    37    1
    26    40    41    1
    27    45    48    1
    28    43    41    1
    29    51    50   ar
    30    16    17    1
    31    16    18    1
    32    37    36    1
    33    17    19    1
    34    71    68    1
    35    71    72    1
    36    68    69    1
    37    50    49    1
    38    50    52   ar
    39    48    49    1
    40    69    70    2
    41    36    30   am
    42    72    74   ar
    43    72    73   ar
    44    31    30    2
    45     3     4    2
    46     3     2    1
    47    30    29    1
    48    74    76   ar
    49    78    79    1
    50    73    75   ar
    51    20    21    1
    52     5     2    1
    53     5     6    1
    54    28    29    1
    55     2     1    1
    56    29    32    1
    57    24    21    1
    58    24    25    1
    59    82    79    1
    60    82    83    1
    61    79    80    1
    62    95    94    1
    63    76    77   ar
    64    27    25    1
    65    75    77   ar
    66    21    22    1
    67   103   101    1
    68     6     7   ar
    69     6     8   ar
    70     7     9   ar
    71    25    26    1
    72    32    33    1
    73    80    81    2
    74    83    84    1
    75    92    93    1
    76    92    91    1
    77    94    93    2
    78    94    96    1
    79     8    10   ar
    80    22    23    2
    81   101    98    1
    82   101   102    1
    83     9    11   ar
    84    90    91    1
    85    90    87    1
    86    33    34    1
    87    86    87    1
    88    84    85    1
    89    98    99    1
    90    98    97    1
    91   110   109    1
    92    10    11   ar
    93    87    88    1
    94   100    99    2
    95   111   109    1
    96    99   104   am
    97    35    34    1
    98   109   108    1
    99   138   137    1
   100   104   105    1
   101   108   105    1
   102    88    89    2
   103   137   136    1
   104   105   106    1
   105   136   135    1
   106   130   128    1
   107   107   106    2
   108   129   127    1
   109   127   128    1
   110   127   124    1
   111   135   132    1
   112   134   133    2
   113   133   132    1
   114   122   120    1
   115   119   120    2
   116   119   118    1
   117   126   125    2
   118   120   121    1
   119   123   124    1
   120   123   114   am
   121   132   131    1
   122   124   125    1
   123   118   117    1
   124   117   116    1
   125   113   114    1
   126   113   112    1
   127   113   116    1
   128   114   115    2
