@<TRIPOS>MOLECULE
tmp/5wcmA00.pdb
 142 139 0 0 0
SMALL
GASTEIGER

@<TRIPOS>ATOM
      1  N         39.0250   25.9660   44.7620 N.3     3  TRP3       -0.1241
      2  CA        39.6250   27.1760   45.3080 C.3     3  TRP3        0.1605
      3  C         40.2100   28.0970   44.2690 C.2     3  TRP3        0.2264
      4  O         40.1780   29.2970   44.4790 O.2     3  TRP3       -0.2867
      5  CB        40.6890   26.8390   46.3560 C.3     3  TRP3        0.0550
      6  CG        40.1430   26.3770   47.6440 C.ar    3  TRP3        0.0003
      7  CD1       38.8590   26.0020   47.9100 C.ar    3  TRP3        0.0946
      8  CD2       40.8680   26.2010   48.8540 C.ar    3  TRP3        0.0152
      9  NE1       38.7280   25.6360   49.2220 N.ar    3  TRP3       -0.2442
     10  CE2       39.9500   25.7440   49.8260 C.ar    3  TRP3        0.0810
     11  CE3       42.2050   26.3960   49.2170 C.ar    3  TRP3        0.0012
     12  CZ2       40.3240   25.4750   51.1410 C.ar    3  TRP3        0.0191
     13  CZ3       42.5810   26.1240   50.5330 C.ar    3  TRP3        0.0001
     14  CH2       41.6400   25.6670   51.4740 C.ar    3  TRP3        0.0015
     15  N         44.1370   32.3350   47.4030 N.3    42  MET42      -0.1245
     16  CA        45.4350   31.6660   47.4700 C.3    42  MET42       0.1570
     17  C         46.5110   32.5290   46.8510 C.2    42  MET42       0.2261
     18  O         46.2300   33.3490   45.9770 O.2    42  MET42      -0.2867
     19  CB        45.4130   30.3180   46.7560 C.3    42  MET42       0.0387
     20  CG        44.5860   29.2520   47.4580 C.3    42  MET42       0.0595
     21  SD        45.3100   28.6300   48.9720 S.3    42  MET42      -0.1393
     22  CE        46.5460   27.5020   48.3390 C.3    42  MET42       0.0692
     23  N         40.3610   36.1850   58.6230 N.3    70  HIS70      -0.1241
     24  CA        41.3230   35.3910   59.4040 C.3    70  HIS70       0.1621
     25  C         42.5400   35.0280   58.5970 C.2    70  HIS70       0.2264
     26  O         42.4970   34.9410   57.3680 O.2    70  HIS70      -0.2867
     27  CB        40.6820   34.1280   59.9990 C.3    70  HIS70       0.0745
     28  CG        40.4430   33.0160   59.0140 C.ar   70  HIS70       0.0817
     29  ND1       39.2420   32.8350   58.3590 N.ar   70  HIS70      -0.2268
     30  CD2       41.2430   31.9950   58.6140 C.ar   70  HIS70       0.1154
     31  CE1       39.3210   31.7500   57.6010 C.ar   70  HIS70       0.1986
     32  NE2       40.5280   31.2170   57.7350 N.ar   70  HIS70      -0.2212
     33  N         44.7090   32.7640   57.3500 N.3    72  HIS72      -0.1226
     34  CA        45.1490   31.5470   56.6500 C.3    72  HIS72       0.1752
     35  C         45.4440   31.8750   55.2120 C.2    72  HIS72       0.2596
     36  O         44.8270   32.7950   54.6660 O.2    72  HIS72      -0.2718
     37  CB        44.1190   30.4200   56.7380 C.3    72  HIS72       0.0759
     38  CG        43.9400   29.8510   58.1130 C.ar   72  HIS72       0.0818
     39  ND1       42.7850   29.1940   58.4990 N.ar   72  HIS72      -0.2268
     40  CD2       44.7570   29.8550   59.1940 C.ar   72  HIS72       0.1154
     41  CE1       42.9170   28.8100   59.7560 C.ar   72  HIS72       0.1986
     42  NE2       44.0950   29.2040   60.2030 N.ar   72  HIS72      -0.2212
     43  N         46.3740   31.1270   54.6120 N.am   73  LEU73      -0.1966
     44  CA        46.8980   31.4220   53.2760 C.3    73  LEU73       0.1728
     45  C         45.8500   31.5420   52.1750 C.2    73  LEU73       0.2616
     46  O         46.0680   32.2430   51.2010 O.2    73  LEU73      -0.2715
     47  CB        47.9820   30.4270   52.8480 C.3    73  LEU73       0.0311
     48  CG        47.5490   29.1070   52.2400 C.3    73  LEU73       0.0022
     49  CD1       48.7020   28.4300   51.4990 C.3    73  LEU73       0.0001
     50  CD2       46.9960   28.1880   53.3120 C.3    73  LEU73       0.0001
     51  N         44.7380   30.8250   52.3180 N.am   74  ASP74      -0.1957
     52  CA        43.6860   30.8680   51.3130 C.3    74  ASP74       0.1840
     53  C         42.8840   32.1790   51.3380 C.2    74  ASP74       0.2622
     54  O         42.0750   32.4140   50.4430 O.2    74  ASP74      -0.2715
     55  CB        42.7870   29.6370   51.3870 C.3    74  ASP74       0.1450
     56  CG        42.1300   29.4340   52.7520 C.2    74  ASP74       0.3671
     57  OD1       42.7430   29.7340   53.8150 O.co2  74  ASP74      -0.2456
     58  OD2       40.9590   28.9550   52.7570 O.co2  74  ASP74      -0.2456
     59  N         43.0930   32.9960   52.3770 N.am   75  HIS75      -0.1973
     60  CA        42.4890   34.3410   52.4780 C.3    75  HIS75       0.1656
     61  C         43.4910   35.4710   52.4690 C.2    75  HIS75       0.2291
     62  O         43.1190   36.6130   52.2260 O.2    75  HIS75      -0.2864
     63  CB        41.6080   34.4160   53.7330 C.3    75  HIS75       0.0771
     64  CG        40.6940   33.2510   53.8410 C.ar   75  HIS75       0.0820
     65  ND1       39.6630   33.0400   52.9630 N.ar   75  HIS75      -0.2267
     66  CD2       40.7740   32.1300   54.6030 C.ar   75  HIS75       0.1154
     67  CE1       39.1160   31.8600   53.2090 C.ar   75  HIS75       0.1986
     68  NE2       39.7680   31.2780   54.2050 N.ar   75  HIS75      -0.2212
     69  N         51.3000   29.2020   59.4750 N.3   105  TYR105     -0.1241
     70  CA        50.1220   28.5700   60.0700 C.3   105  TYR105      0.1605
     71  C         50.3880   28.3370   61.5590 C.2   105  TYR105      0.2264
     72  O         51.3880   27.7020   61.9140 O.2   105  TYR105     -0.2867
     73  CB        49.7770   27.2450   59.3670 C.3   105  TYR105      0.0534
     74  CG        48.3700   26.8060   59.6990 C.ar  105  TYR105     -0.0201
     75  CD1       48.0760   26.1280   60.9000 C.ar  105  TYR105     -0.0009
     76  CD2       47.3170   27.1310   58.8530 C.ar  105  TYR105     -0.0009
     77  CE1       46.7760   25.8170   61.2290 C.ar  105  TYR105      0.0417
     78  CE2       46.0150   26.7810   59.1700 C.ar  105  TYR105      0.0417
     79  CZ        45.7470   26.1370   60.3680 C.ar  105  TYR105      0.1957
     80  OH        44.4560   25.8070   60.7020 O.3   105  TYR105     -0.2866
     81  N         53.7840   24.4980   52.9140 N.3   113  ASP113     -0.1225
     82  CA        52.6140   24.4790   52.0540 C.3   113  ASP113      0.1805
     83  C         51.4650   25.3450   52.6070 C.2   113  ASP113      0.2597
     84  O         50.5400   25.6410   51.8790 O.2   113  ASP113     -0.2718
     85  CB        52.1940   23.0570   51.7070 C.3   113  ASP113      0.1424
     86  CG        53.1130   22.4280   50.6700 C.2   113  ASP113      0.3668
     87  OD1       53.1270   22.8780   49.5040 O.co2 113  ASP113     -0.2456
     88  OD2       53.8630   21.5080   51.0310 O.co2 113  ASP113     -0.2456
     89  N         51.5630   25.7640   53.8610 N.am  114  LEU114     -0.1979
     90  CA        50.5720   26.6640   54.4810 C.3   114  LEU114      0.1596
     91  C         51.1110   28.0720   54.6730 C.2   114  LEU114      0.2287
     92  O         50.4240   28.9440   55.2080 O.2   114  LEU114     -0.2864
     93  CB        50.0630   26.0960   55.8080 C.3   114  LEU114      0.0297
     94  CG        49.4280   24.7040   55.7100 C.3   114  LEU114      0.0022
     95  CD1       49.1410   24.1540   57.0990 C.3   114  LEU114      0.0001
     96  CD2       48.1640   24.6880   54.8540 C.3   114  LEU114      0.0001
     97  N         38.7130   29.6230   64.9400 N.3   146  HIS146     -0.1241
     98  CA        39.2800   29.1720   63.6720 C.3   146  HIS146      0.1621
     99  C         40.6900   29.7400   63.4750 C.2   146  HIS146      0.2264
    100  O         41.5540   29.0540   62.9260 O.2   146  HIS146     -0.2867
    101  CB        38.3320   29.5100   62.5320 C.3   146  HIS146      0.0745
    102  CG        38.8030   29.0270   61.2040 C.ar  146  HIS146      0.0817
    103  ND1       38.5540   27.7580   60.7340 N.ar  146  HIS146     -0.2268
    104  CD2       39.5510   29.6400   60.2590 C.ar  146  HIS146      0.1154
    105  CE1       39.1270   27.6150   59.5530 C.ar  146  HIS146      0.1986
    106  NE2       39.7280   28.7500   59.2300 N.ar  146  HIS146     -0.2212
    107  N         34.6750   32.6080   59.8600 N.3   171  SER171     -0.1217
    108  CA        34.8160   31.1320   59.7850 C.3   171  SER171      0.1889
    109  C         34.8070   30.5530   61.1950 C.2   171  SER171      0.2288
    110  O         35.4310   31.0850   62.0890 O.2   171  SER171     -0.2866
    111  CB        36.0640   30.6160   59.0370 C.3   171  SER171      0.2089
    112  OG        35.9530   30.8010   57.6290 O.3   171  SER171     -0.2183
    113  N         34.8740   26.7660   61.3660 N.3   173  THR173     -0.1218
    114  CA        35.1640   25.3560   61.1410 C.3   173  THR173      0.1862
    115  C         36.3990   24.9380   61.9500 C.2   173  THR173      0.2287
    116  O         37.2550   25.7600   62.2640 O.2   173  THR173     -0.2866
    117  CB        35.4360   25.0770   59.6680 C.3   173  THR173      0.1770
    118  OG1       36.5070   25.9420   59.2510 O.3   173  THR173     -0.2211
    119  CG2       34.1760   25.3090   58.8320 C.3   173  THR173      0.0375
    120  N         38.5020   22.4290   60.7270 N.3   175  ALA175     -0.1231
    121  CA        39.4260   22.3570   59.5980 C.3   175  ALA175      0.1694
    122  C         40.7440   21.7200   60.0400 C.2   175  ALA175      0.2591
    123  O         40.7080   20.5940   60.5810 O.2   175  ALA175     -0.2718
    124  CB        39.5840   23.7380   58.9740 C.3   175  ALA175      0.0304
    125  N         41.8820   22.3800   59.8310 N.am  176  LEU176     -0.1980
    126  CA        43.1970   21.8070   60.1940 C.3   176  LEU176      0.1596
    127  C         43.6040   21.9740   61.6560 C.2   176  LEU176      0.2287
    128  O         44.6800   21.5100   62.0660 O.2   176  LEU176     -0.2864
    129  CB        44.3100   22.3920   59.3240 C.3   176  LEU176      0.0297
    130  CG        44.1140   22.2790   57.8290 C.3   176  LEU176      0.0022
    131  CD1       45.2740   22.9550   57.1250 C.3   176  LEU176      0.0001
    132  CD2       44.0180   20.8230   57.4060 C.3   176  LEU176      0.0001
    133  N         34.4260   31.6930   52.6360 N.3   211  HIS211     -0.1241
    134  CA        34.1860   30.6290   51.6720 C.3   211  HIS211      0.1621
    135  C         32.7140   30.6790   51.3090 C.2   211  HIS211      0.2264
    136  O         31.8690   30.8850   52.1880 O.2   211  HIS211     -0.2867
    137  CB        34.5390   29.2510   52.2540 C.3   211  HIS211      0.0745
    138  CG        36.0120   29.0470   52.4850 C.ar  211  HIS211      0.0817
    139  ND1       36.8990   28.7410   51.4730 N.ar  211  HIS211     -0.2268
    140  CD2       36.7530   29.1310   53.6190 C.ar  211  HIS211      0.1154
    141  CE1       38.1190   28.6310   51.9800 C.ar  211  HIS211      0.1986
    142  NE2       38.0600   28.8530   53.2870 N.ar  211  HIS211     -0.2212
@<TRIPOS>BOND
     1     3     4    2
     2     3     2    1
     3     1     2    1
     4     2     5    1
     5    18    17    2
     6     5     6    1
     7    19    20    1
     8    19    16    1
     9    17    16    1
    10    15    16    1
    11    20    21    1
    12     6     7   ar
    13     6     8   ar
    14     7     9   ar
    15    22    21    1
    16     8    11   ar
    17     8    10   ar
    18    11    13   ar
    19     9    10   ar
    20    87    86   ar
    21    10    12   ar
    22    54    53    2
    23    13    14   ar
    24    86    88   ar
    25    86    85    1
    26    12    14   ar
    27    46    45    2
    28   135   134    1
    29   135   136    2
    30    52    53    1
    31    52    55    1
    32    52    51    1
    33    53    59   am
    34    55    56    1
    35   139   141   ar
    36   139   138   ar
    37    49    48    1
    38   134   137    1
    39   134   133    1
    40    85    82    1
    41    84    83    2
    42   141   142   ar
    43    82    83    1
    44    82    81    1
    45    45    51   am
    46    45    44    1
    47    62    61    2
    48    48    47    1
    49    48    50    1
    50   137   138    1
    51    59    60    1
    52    61    60    1
    53    60    63    1
    54   138   140   ar
    55    83    89   am
    56    56    58   ar
    57    56    57   ar
    58    47    44    1
    59    65    67   ar
    60    65    64   ar
    61    67    68   ar
    62    44    43    1
    63   142   140   ar
    64    63    64    1
    65    64    66   ar
    66    89    90    1
    67    68    66   ar
    68    90    91    1
    69    90    93    1
    70    43    35   am
    71    36    35    2
    72    91    92    2
    73    96    94    1
    74    35    34    1
    75    94    93    1
    76    94    95    1
    77    34    37    1
    78    34    33    1
    79    37    38    1
    80   131   130    1
    81    26    25    2
    82   132   130    1
    83    31    32   ar
    84    31    29   ar
    85   112   111    1
    86    32    30   ar
    87   130   129    1
    88    38    39   ar
    89    38    40   ar
    90    29    28   ar
    91    39    41   ar
    92    25    24    1
    93    30    28   ar
    94    23    24    1
    95   119   117    1
    96    76    78   ar
    97    76    74   ar
    98   124   121    1
    99    28    27    1
   100   111   108    1
   101    78    79   ar
   102    40    42   ar
   103   106   105   ar
   104   106   104   ar
   105   118   117    1
   106   129   126    1
   107    73    74    1
   108    73    70    1
   109    24    27    1
   110    69    70    1
   111   105   103   ar
   112   121   122    1
   113   121   120    1
   114   117   114    1
   115    74    75   ar
   116    41    42   ar
   117   108   107    1
   118   108   109    1
   119   125   122   am
   120   125   126    1
   121   122   123    2
   122    70    71    1
   123   126   127    1
   124   104   102   ar
   125    79    80    1
   126    79    77   ar
   127   103   102   ar
   128    75    77   ar
   129   114   113    1
   130   114   115    1
   131   109   110    2
   132   102   101    1
   133    71    72    2
   134   127   128    2
   135   115   116    2
   136   101    98    1
   137   100    99    2
   138    99    98    1
   139    98    97    1
