@<TRIPOS>MOLECULE
tmp/5wcsA00.pdb
 155 148 0 0 0
SMALL
GASTEIGER

@<TRIPOS>ATOM
      1  N         70.9890   71.7010    8.0700 N.3    20  ALA20      -0.1231
      2  CA        71.0800   73.0790    7.6000 C.3    20  ALA20       0.1694
      3  C         72.0490   73.8920    8.4490 C.2    20  ALA20       0.2591
      4  O         72.7810   74.7390    7.9240 O.2    20  ALA20      -0.2718
      5  CB        69.6940   73.7240    7.5940 C.3    20  ALA20       0.0304
      6  N         72.0740   73.6480    9.7620 N.am   21  MET21      -0.1979
      7  CA        72.9980   74.3730   10.6270 C.3    21  MET21       0.1605
      8  C         74.4370   73.9370   10.3900 C.2    21  MET21       0.2287
      9  O         75.3410   74.7780   10.3130 O.2    21  MET21      -0.2864
     10  CB        72.6180   74.1710   12.0920 C.3    21  MET21       0.0413
     11  CG        71.2800   74.7740   12.4640 C.3    21  MET21       0.0598
     12  SD        71.0480   74.8820   14.2450 S.3    21  MET21      -0.1393
     13  CE        72.3460   76.0340   14.6890 C.3    21  MET21       0.0692
     14  N         76.4380   75.4210    7.6270 N.3    24  TYR24      -0.1241
     15  CA        76.9340   76.7770    7.8230 C.3    24  TYR24       0.1605
     16  C         77.9300   76.8680    8.9710 C.2    24  TYR24       0.2264
     17  O         78.2860   77.9780    9.3820 O.2    24  TYR24      -0.2867
     18  CB        75.7670   77.7400    8.0580 C.3    24  TYR24       0.0534
     19  CG        74.9930   78.0570    6.8010 C.ar   24  TYR24      -0.0201
     20  CD1       75.3180   79.1620    6.0250 C.ar   24  TYR24      -0.0009
     21  CD2       73.9450   77.2470    6.3840 C.ar   24  TYR24      -0.0009
     22  CE1       74.6170   79.4550    4.8720 C.ar   24  TYR24       0.0417
     23  CE2       73.2390   77.5300    5.2320 C.ar   24  TYR24       0.0417
     24  CZ        73.5790   78.6360    4.4800 C.ar   24  TYR24       0.1957
     25  OH        72.8800   78.9250    3.3310 O.3    24  TYR24      -0.2866
     26  N         77.4730   75.9150   12.1200 N.3    26  GLU26      -0.1245
     27  CA        76.8280   76.1840   13.3950 C.3    26  GLU26       0.1567
     28  C         76.4940   74.8770   14.1010 C.2    26  GLU26       0.2260
     29  O         76.0290   73.9220   13.4740 O.2    26  GLU26      -0.2867
     30  CB        75.5560   77.0090   13.1990 C.3    26  GLU26       0.0388
     31  CG        75.7290   78.1960   12.2660 C.3    26  GLU26       0.1160
     32  CD        76.0940   79.4690   13.0060 C.2    26  GLU26       0.3649
     33  OE1       75.1710   80.1990   13.4270 O.co2  26  GLU26      -0.2457
     34  OE2       77.3050   79.7360   13.1690 O.co2  26  GLU26      -0.2457
     35  N         68.3580   79.4740   17.0460 N.3    34  LYS34      -0.1245
     36  CA        68.2480   79.3120   15.6010 C.3    34  LYS34       0.1561
     37  C         67.8840   77.8790   15.2370 C.2    34  LYS34       0.2260
     38  O         67.2120   77.6490   14.2250 O.2    34  LYS34      -0.2867
     39  CB        69.5480   79.7290   14.9200 C.3    34  LYS34       0.0271
     40  CG        69.4030   79.9530   13.4220 C.3    34  LYS34       0.0035
     41  CD        70.7180   80.3540   12.7650 C.3    34  LYS34       0.0206
     42  CE        71.7280   80.8870   13.7740 C.3    34  LYS34       0.1093
     43  NZ        72.7480   81.7650   13.1340 N.3    34  LYS34      -0.1314
     44  N         64.6040   77.2430   12.8180 N.3    38  ILE38      -0.1245
     45  CA        64.5870   76.4590   11.5890 C.3    38  ILE38       0.1561
     46  C         63.5170   75.3780   11.6620 C.2    38  ILE38       0.2260
     47  O         62.7680   75.1630   10.7010 O.2    38  ILE38      -0.2867
     48  CB        65.9810   75.8680   11.3140 C.3    38  ILE38       0.0252
     49  CG1       66.9860   76.9930   11.0630 C.3    38  ILE38       0.0019
     50  CG2       65.9350   74.9160   10.1260 C.3    38  ILE38       0.0019
     51  CD1       68.4210   76.5270   11.0010 C.3    38  ILE38       0.0001
     52  N         60.0840   77.0550   11.2150 N.3    41  HIS41      -0.1241
     53  CA        59.8460   77.4320    9.8270 C.3    41  HIS41       0.1621
     54  C         59.5620   76.2100    8.9620 C.2    41  HIS41       0.2264
     55  O         58.7150   76.2610    8.0620 O.2    41  HIS41      -0.2867
     56  CB        61.0460   78.1970    9.2800 C.3    41  HIS41       0.0745
     57  CG        60.9920   78.4170    7.8030 C.ar   41  HIS41       0.0817
     58  ND1       61.8290   77.7650    6.9240 N.ar   41  HIS41      -0.2268
     59  CD2       60.2060   79.2210    7.0490 C.ar   41  HIS41       0.1154
     60  CE1       61.5570   78.1530    5.6910 C.ar   41  HIS41       0.1986
     61  NE2       60.5780   79.0390    5.7400 N.ar   41  HIS41      -0.2212
     62  N         61.0420   73.8370    0.2820 N.3    61  GLU61      -0.1245
     63  CA        61.8420   73.8310    1.4950 C.3    61  GLU61       0.1567
     64  C         62.0010   72.4040    2.0130 C.2    61  GLU61       0.2260
     65  O         61.1340   71.5480    1.8170 O.2    61  GLU61      -0.2867
     66  CB        61.1920   74.7230    2.5570 C.3    61  GLU61       0.0388
     67  CG        62.0110   74.9080    3.8220 C.3    61  GLU61       0.1160
     68  CD        63.3710   75.5220    3.5530 C.2    61  GLU61       0.3649
     69  OE1       63.4280   76.7200    3.2110 O.co2  61  GLU61      -0.2457
     70  OE2       64.3830   74.8020    3.6820 O.co2  61  GLU61      -0.2457
     71  N         66.3120   83.1910   -5.9290 N.3    86  PHE86      -0.1227
     72  CA        66.5180   82.4360   -4.7050 C.3    86  PHE86       0.1736
     73  C         65.4350   81.3760   -4.5700 C.2    86  PHE86       0.2595
     74  O         64.3450   81.4970   -5.1340 O.2    86  PHE86      -0.2718
     75  CB        66.5120   83.3550   -3.4790 C.3    86  PHE86       0.0547
     76  CG        67.5100   84.4690   -3.5600 C.ar   86  PHE86      -0.0202
     77  CD1       67.0940   85.7770   -3.7480 C.ar   86  PHE86      -0.0042
     78  CD2       68.8660   84.2090   -3.4550 C.ar   86  PHE86      -0.0042
     79  CE1       68.0130   86.8040   -3.8270 C.ar   86  PHE86      -0.0003
     80  CE2       69.7900   85.2310   -3.5330 C.ar   86  PHE86      -0.0003
     81  CZ        69.3630   86.5310   -3.7190 C.ar   86  PHE86      -0.0000
     82  N         65.7500   80.3320   -3.8190 N.am   87  LEU87      -0.1966
     83  CA        64.8210   79.2230   -3.6390 C.3    87  LEU87       0.1713
     84  C         63.6190   79.6670   -2.8190 C.2    87  LEU87       0.2458
     85  O         63.7910   80.1070   -1.6750 O.2    87  LEU87      -0.2730
     86  CB        65.5140   78.0520   -2.9520 C.3    87  LEU87       0.0310
     87  CG        66.3730   77.1300   -3.8160 C.3    87  LEU87       0.0022
     88  CD1       67.0360   76.0730   -2.9460 C.3    87  LEU87       0.0001
     89  CD2       65.5420   76.4870   -4.9130 C.3    87  LEU87       0.0001
     90  N         62.4010   79.5790   -3.3470 N.am   88  PRO88      -0.2716
     91  CA        61.2220   79.8500   -2.5170 C.3    88  PRO88       0.1536
     92  C         60.8850   78.6510   -1.6470 C.2    88  PRO88       0.2598
     93  O         61.6480   77.6840   -1.5940 O.2    88  PRO88      -0.2715
     94  CB        60.1280   80.1350   -3.5490 C.3    88  PRO88       0.0310
     95  CG        60.5250   79.3060   -4.7200 C.3    88  PRO88       0.0237
     96  CD        62.0370   79.2650   -4.7390 C.3    88  PRO88       0.0939
     97  N         59.7450   78.6940   -0.9670 N.am   89  ASP89      -0.1972
     98  CA        59.3580   77.6320   -0.0470 C.3    89  ASP89       0.1709
     99  C         58.3040   76.7020   -0.6290 C.2    89  ASP89       0.2293
    100  O         58.3350   75.4960   -0.3700 O.2    89  ASP89      -0.2864
    101  CB        58.8410   78.2440    1.2570 C.3    89  ASP89       0.1436
    102  CG        59.9550   78.5470    2.2360 C.2    89  ASP89       0.3671
    103  OD1       59.6980   79.2700    3.2200 O.co2  89  ASP89      -0.2456
    104  OD2       61.0880   78.0640    2.0190 O.co2  89  ASP89      -0.2456
    105  N         56.8580   82.3200   -0.6240 N.3   100  GLU100     -0.1231
    106  CA        57.8800   82.4380    0.4070 C.3   100  GLU100      0.1699
    107  C         57.1830   82.5660    1.7530 C.2   100  GLU100      0.2592
    108  O         56.3300   83.4420    1.9330 O.2   100  GLU100     -0.2718
    109  CB        58.7910   83.6380    0.1480 C.3   100  GLU100      0.0402
    110  CG        59.7520   83.9670    1.2880 C.3   100  GLU100      0.1161
    111  CD        60.7400   82.8480    1.5720 C.2   100  GLU100      0.3649
    112  OE1       60.5640   82.1360    2.5830 O.co2 100  GLU100     -0.2457
    113  OE2       61.6900   82.6760    0.7800 O.co2 100  GLU100     -0.2457
    114  N         57.5420   81.6940    2.6910 N.am  101  ILE101     -0.1966
    115  CA        56.9190   81.6340    4.0070 C.3   101  ILE101      0.1727
    116  C         57.9190   82.1330    5.0400 C.2   101  ILE101      0.2616
    117  O         59.0850   81.7230    5.0370 O.2   101  ILE101     -0.2715
    118  CB        56.4480   80.2080    4.3380 C.3   101  ILE101      0.0290
    119  CG1       55.2750   79.8190    3.4370 C.3   101  ILE101      0.0022
    120  CG2       56.0560   80.0970    5.8060 C.3   101  ILE101      0.0023
    121  CD1       54.7800   78.4150    3.6650 C.3   101  ILE101      0.0001
    122  N         57.4670   83.0130    5.9120 N.am  102  GLY102     -0.1955
    123  CA        58.3060   83.5210    6.9840 C.3   102  GLY102      0.1869
    124  C         57.6300   83.3440    8.3270 C.2   102  GLY102      0.2309
    125  O         56.4100   83.4670    8.4400 O.2   102  GLY102     -0.2863
    126  N         58.9300   92.0930    9.1510 N.3   111  TYR111     -0.1241
    127  CA        59.4440   90.9260    8.4470 C.3   111  TYR111      0.1605
    128  C         58.9690   90.8870    7.0000 C.2   111  TYR111      0.2264
    129  O         59.6910   90.3880    6.1290 O.2   111  TYR111     -0.2867
    130  CB        59.0330   89.6550    9.1890 C.3   111  TYR111      0.0534
    131  CG        59.9920   88.4940    9.0270 C.ar  111  TYR111     -0.0201
    132  CD1       61.2740   88.5400    9.5480 C.ar  111  TYR111     -0.0009
    133  CD2       59.6030   87.3430    8.3670 C.ar  111  TYR111     -0.0009
    134  CE1       62.1450   87.4720    9.4020 C.ar  111  TYR111      0.0417
    135  CE2       60.4590   86.2690    8.2150 C.ar  111  TYR111      0.0417
    136  CZ        61.7320   86.3360    8.7340 C.ar  111  TYR111      0.1957
    137  OH        62.5920   85.2750    8.5880 O.3   111  TYR111     -0.2866
    138  N         61.5890   91.0050    3.9110 N.3   115  LYS115     -0.1245
    139  CA        61.5920   89.9090    2.9510 C.3   115  LYS115      0.1561
    140  C         61.1080   90.3220    1.5690 C.2   115  LYS115      0.2260
    141  O         61.4380   89.6480    0.5870 O.2   115  LYS115     -0.2867
    142  CB        60.7300   88.7530    3.4640 C.3   115  LYS115      0.0271
    143  CG        61.5090   87.4800    3.7290 C.3   115  LYS115      0.0035
    144  CD        60.6510   86.4410    4.4270 C.3   115  LYS115      0.0206
    145  CE        61.4790   85.2350    4.8320 C.3   115  LYS115      0.1093
    146  NZ        62.6380   85.6240    5.6840 N.3   115  LYS115     -0.1314
    147  N         64.0820   92.1730   -0.0850 N.3   118  LYS118     -0.1245
    148  CA        65.1810   91.2340   -0.2690 C.3   118  LYS118      0.1561
    149  C         64.9040   90.2450   -1.3940 C.2   118  LYS118      0.2260
    150  O         65.8290   89.8460   -2.1090 O.2   118  LYS118     -0.2867
    151  CB        65.4560   90.4760    1.0320 C.3   118  LYS118      0.0271
    152  CG        66.6890   89.5780    1.0180 C.3   118  LYS118      0.0035
    153  CD        67.0580   89.0850    2.4270 C.3   118  LYS118      0.0206
    154  CE        65.9920   88.1980    3.0180 C.3   118  LYS118      0.1093
    155  NZ        65.9470   86.8980    2.3010 N.3   118  LYS118     -0.1314
@<TRIPOS>BOND
     1    71    72    1
     2    74    73    2
     3    89    87    1
     4    96    95    1
     5    96    90    1
     6    95    94    1
     7    72    73    1
     8    72    75    1
     9    73    82   am
    10    79    77   ar
    11    79    81   ar
    12    82    83    1
    13    87    86    1
    14    87    88    1
    15    77    76   ar
    16    81    80   ar
    17    83    86    1
    18    83    84    1
    19    76    75    1
    20    76    78   ar
    21    94    91    1
    22    80    78   ar
    23    90    84   am
    24    90    91    1
    25    84    85    2
    26    91    92    1
    27   150   149    2
    28    92    93    2
    29    92    97   am
    30   149   148    1
    31    97    98    1
    32    99   100    2
    33    99    98    1
    34   105   106    1
    35   148   147    1
    36   148   151    1
    37    98   101    1
    38   109   106    1
    39   109   110    1
    40    62    63    1
    41   106   107    1
    42   141   140    2
    43   113   111   ar
    44   152   151    1
    45   152   153    1
    46   101   102    1
    47   110   111    1
    48    63    64    1
    49    63    66    1
    50   140   139    1
    51   111   112   ar
    52   107   108    2
    53   107   114   am
    54    65    64    2
    55   104   102   ar
    56   102   103   ar
    57   155   154    1
    58   153   154    1
    59    66    67    1
    60   114   115    1
    61   139   142    1
    62   139   138    1
    63    69    68   ar
    64    25    24    1
    65   119   121    1
    66   119   118    1
    67   142   143    1
    68    68    70   ar
    69    68    67    1
    70   143   144    1
    71   115   118    1
    72   115   116    1
    73   118   120    1
    74   144   145    1
    75    24    22   ar
    76    24    23   ar
    77   145   146    1
    78    22    20   ar
    79   117   116    2
    80   116   122   am
    81    23    21   ar
    82    60    61   ar
    83    60    58   ar
    84    61    59   ar
    85   122   123    1
    86    20    19   ar
    87   129   128    2
    88    21    19   ar
    89    19    18    1
    90    58    57   ar
    91   123   124    1
    92   128   127    1
    93    59    57   ar
    94     5     2    1
    95     2     1    1
    96     2     3    1
    97    14    15    1
    98    57    56    1
    99    15    18    1
   100    15    16    1
   101     4     3    2
   102    55    54    2
   103   135   133   ar
   104   135   136   ar
   105   124   125    2
   106   133   131   ar
   107   127   126    1
   108   127   130    1
   109     3     6   am
   110   137   136    1
   111   136   134   ar
   112    54    53    1
   113    16    17    2
   114   131   130    1
   115   131   132   ar
   116    56    53    1
   117   134   132   ar
   118     6     7    1
   119    53    52    1
   120    50    48    1
   121     9     8    2
   122     8     7    1
   123     7    10    1
   124    47    46    2
   125    51    49    1
   126    49    48    1
   127    48    45    1
   128    45    46    1
   129    45    44    1
   130    10    11    1
   131    26    27    1
   132    31    32    1
   133    31    30    1
   134    11    12    1
   135    41    40    1
   136    41    42    1
   137    32    34   ar
   138    32    33   ar
   139    43    42    1
   140    30    27    1
   141    27    28    1
   142    40    39    1
   143    29    28    2
   144    38    37    2
   145    12    13    1
   146    39    36    1
   147    37    36    1
   148    36    35    1
