@<TRIPOS>MOLECULE
tmp/5wctA00.pdb
 139 131 0 0 0
SMALL
GASTEIGER

@<TRIPOS>ATOM
      1  N         33.6970    6.9560    8.1360 N.3    20  ALA20      -0.1231
      2  CA        33.7910    8.3280    7.6370 C.3    20  ALA20       0.1694
      3  C         34.7490    9.1650    8.4780 C.2    20  ALA20       0.2591
      4  O         35.5000    9.9890    7.9410 O.2    20  ALA20      -0.2718
      5  CB        32.4110    8.9750    7.6170 C.3    20  ALA20       0.0304
      6  N         34.7310    8.9780    9.7990 N.am   21  MET21      -0.1979
      7  CA        35.6390    9.7350   10.6530 C.3    21  MET21       0.1605
      8  C         37.0760    9.2820   10.4370 C.2    21  MET21       0.2287
      9  O         37.9910   10.1000   10.2790 O.2    21  MET21      -0.2864
     10  CB        35.2320    9.5670   12.1120 C.3    21  MET21       0.0413
     11  CG        34.1830   10.5650   12.5400 C.3    21  MET21       0.0598
     12  SD        33.7240   10.4010   14.2620 S.3    21  MET21      -0.1393
     13  CE        33.1240    8.7540   14.1740 C.3    21  MET21       0.0692
     14  N         38.8480   10.6660    7.6150 N.3    24  TYR24      -0.1241
     15  CA        39.3220   12.0240    7.8250 C.3    24  TYR24       0.1605
     16  C         40.2820   12.1010    9.0040 C.2    24  TYR24       0.2264
     17  O         40.5350   13.1850    9.5210 O.2    24  TYR24      -0.2867
     18  CB        38.1290   12.9690    8.0280 C.3    24  TYR24       0.0534
     19  CG        37.3980   13.3070    6.7310 C.ar   24  TYR24      -0.0201
     20  CD1       36.4960   12.4130    6.1600 C.ar   24  TYR24      -0.0009
     21  CD2       37.6360   14.5080    6.0640 C.ar   24  TYR24      -0.0009
     22  CE1       35.8480   12.7090    4.9630 C.ar   24  TYR24       0.0417
     23  CE2       36.9930   14.8120    4.8730 C.ar   24  TYR24       0.0417
     24  CZ        36.1060   13.9160    4.3270 C.ar   24  TYR24       0.1957
     25  OH        35.4740   14.2240    3.1430 O.3    24  TYR24      -0.2866
     26  N         40.0480   11.3420   12.1110 N.3    26  GLU26      -0.1245
     27  CA        39.4950   11.5900   13.4300 C.3    26  GLU26       0.1567
     28  C         39.1420   10.2800   14.1160 C.2    26  GLU26       0.2260
     29  O         38.7700    9.2890   13.4650 O.2    26  GLU26      -0.2867
     30  CB        38.2650   12.4930   13.3480 C.3    26  GLU26       0.0388
     31  CG        38.5800   13.9220   12.8880 C.3    26  GLU26       0.1160
     32  CD        38.2810   14.9800   13.9390 C.2    26  GLU26       0.3649
     33  OE1       37.6960   16.0360   13.6000 O.co2  26  GLU26      -0.2457
     34  OE2       38.6480   14.7510   15.1110 O.co2  26  GLU26      -0.2457
     35  N         31.0480   14.6380   17.2960 N.3    34  LYS34      -0.1245
     36  CA        30.9890   14.4780   15.8410 C.3    34  LYS34       0.1561
     37  C         30.4780   13.0850   15.4640 C.2    34  LYS34       0.2260
     38  O         29.6790   12.9360   14.5280 O.2    34  LYS34      -0.2867
     39  CB        32.3810   14.7420   15.2370 C.3    34  LYS34       0.0271
     40  CG        32.4450   14.8240   13.6970 C.3    34  LYS34       0.0035
     41  CD        31.5690   15.9580   13.1300 C.3    34  LYS34       0.0206
     42  CE        31.6010   15.9850   11.5930 C.3    34  LYS34       0.1093
     43  NZ        31.5000   17.3550   10.9970 N.3    34  LYS34      -0.1314
     44  N         27.2840   12.4720   13.0500 N.3    38  ILE38      -0.1245
     45  CA        27.3110   11.7420   11.7920 C.3    38  ILE38       0.1561
     46  C         26.2320   10.6720   11.7860 C.2    38  ILE38       0.2260
     47  O         25.5060   10.5000   10.7970 O.2    38  ILE38      -0.2867
     48  CB        28.7170   11.1520   11.5700 C.3    38  ILE38       0.0252
     49  CG1       29.7420   12.2750   11.4520 C.3    38  ILE38       0.0019
     50  CG2       28.7510   10.2840   10.3280 C.3    38  ILE38       0.0019
     51  CD1       31.1770   11.7620   11.2870 C.3    38  ILE38       0.0001
     52  N         22.6200   12.3480   11.3210 N.3    41  HIS41      -0.1241
     53  CA        22.4260   12.7620    9.9370 C.3    41  HIS41       0.1621
     54  C         22.2300   11.5590    9.0340 C.2    41  HIS41       0.2264
     55  O         21.4190   11.5960    8.0990 O.2    41  HIS41      -0.2867
     56  CB        23.6250   13.5860    9.4690 C.3    41  HIS41       0.0745
     57  CG        23.6400   13.8670    7.9940 C.ar   41  HIS41       0.0817
     58  ND1       24.1690   12.9840    7.0720 N.ar   41  HIS41      -0.2268
     59  CD2       23.2090   14.9390    7.2810 C.ar   41  HIS41       0.1154
     60  CE1       24.0670   13.5030    5.8570 C.ar   41  HIS41       0.1986
     61  NE2       23.4810   14.6870    5.9560 N.ar   41  HIS41      -0.2212
     62  N         23.8480    9.2750    0.1810 N.3    61  GLU61      -0.1245
     63  CA        24.6640    9.2570    1.3760 C.3    61  GLU61       0.1567
     64  C         24.7810    7.8310    1.8760 C.2    61  GLU61       0.2260
     65  O         23.8530    7.0200    1.7380 O.2    61  GLU61      -0.2867
     66  CB        24.0360   10.1560    2.4530 C.3    61  GLU61       0.0388
     67  CG        24.8380   10.2560    3.7340 C.3    61  GLU61       0.1160
     68  CD        26.1680   10.9400    3.5180 C.2    61  GLU61       0.3649
     69  OE1       26.1940   12.1990    3.5160 O.co2  61  GLU61      -0.2457
     70  OE2       27.1750   10.2200    3.3370 O.co2  61  GLU61      -0.2457
     71  N         28.8630   18.6610   -5.7160 N.3    86  PHE86      -0.1227
     72  CA        29.1390   17.8680   -4.5280 C.3    86  PHE86       0.1736
     73  C         28.1400   16.7220   -4.4640 C.2    86  PHE86       0.2595
     74  O         27.0120   16.8460   -4.9500 O.2    86  PHE86      -0.2718
     75  CB        29.0220   18.6990   -3.2390 C.3    86  PHE86       0.0547
     76  CG        29.9420   19.8900   -3.1710 C.ar   86  PHE86      -0.0202
     77  CD1       30.8500   20.0150   -2.1300 C.ar   86  PHE86      -0.0042
     78  CD2       29.8710   20.9070   -4.1150 C.ar   86  PHE86      -0.0042
     79  CE1       31.6860   21.1220   -2.0500 C.ar   86  PHE86      -0.0003
     80  CE2       30.7060   22.0020   -4.0470 C.ar   86  PHE86      -0.0003
     81  CZ        31.6110   22.1140   -3.0120 C.ar   86  PHE86      -0.0000
     82  N         28.5460   15.6160   -3.8470 N.am   87  LEU87      -0.1980
     83  CA        27.6040   14.5390   -3.5540 C.3    87  LEU87       0.1596
     84  C         26.4250   15.0440   -2.7090 C.2    87  LEU87       0.2287
     85  O         26.6310   15.5010   -1.5750 O.2    87  LEU87      -0.2864
     86  CB        28.3200   13.4110   -2.8320 C.3    87  LEU87       0.0297
     87  CG        29.1820   12.5100   -3.7150 C.3    87  LEU87       0.0022
     88  CD1       29.7780   11.4170   -2.8560 C.3    87  LEU87       0.0001
     89  CD2       28.3720   11.9310   -4.8710 C.3    87  LEU87       0.0001
     90  N         22.4440   14.1630   -0.8830 N.3    89  ASP89      -0.1239
     91  CA        22.0590   13.0500   -0.0080 C.3    89  ASP89       0.1674
     92  C         21.0370   12.0950   -0.6250 C.2    89  ASP89       0.2266
     93  O         21.1440   10.8750   -0.4380 O.2    89  ASP89      -0.2867
     94  CB        21.5230   13.5800    1.3210 C.3    89  ASP89       0.1410
     95  CG        22.6120   14.2310    2.1890 C.2    89  ASP89       0.3668
     96  OD1       23.6740   13.6330    2.4390 O.co2  89  ASP89      -0.2456
     97  OD2       22.4070   15.3780    2.6180 O.co2  89  ASP89      -0.2456
     98  N         19.6160   17.8190   -0.6350 N.3   100  GLU100     -0.1231
     99  CA        20.6020   17.8550    0.4380 C.3   100  GLU100      0.1699
    100  C         19.8670   17.8940    1.7690 C.2   100  GLU100      0.2592
    101  O         18.8520   18.5800    1.9000 O.2   100  GLU100     -0.2718
    102  CB        21.5490   19.0610    0.3180 C.3   100  GLU100      0.0402
    103  CG        22.4210   19.3260    1.5750 C.3   100  GLU100      0.1161
    104  CD        23.4230   18.1890    1.8990 C.2   100  GLU100      0.3649
    105  OE1       23.8260   18.0700    3.0800 O.co2 100  GLU100     -0.2457
    106  OE2       23.8180   17.4260    0.9870 O.co2 100  GLU100     -0.2457
    107  N         20.3630   17.1340    2.7460 N.am  101  ILE101     -0.1966
    108  CA        19.7520   17.0460    4.0660 C.3   101  ILE101      0.1727
    109  C         20.7460   17.5430    5.1090 C.2   101  ILE101      0.2616
    110  O         21.9170   17.1300    5.1150 O.2   101  ILE101     -0.2715
    111  CB        19.2910   15.6100    4.3730 C.3   101  ILE101      0.0290
    112  CG1       18.4210   15.0960    3.2210 C.3   101  ILE101      0.0022
    113  CG2       18.5440   15.5630    5.6970 C.3   101  ILE101      0.0023
    114  CD1       17.4530   14.0200    3.6050 C.3   101  ILE101      0.0001
    115  N         20.2930   18.4540    5.9610 N.am  102  GLY102     -0.1955
    116  CA        21.1060   18.9740    7.0530 C.3   102  GLY102      0.1869
    117  C         20.4410   18.6700    8.3810 C.2   102  GLY102      0.2309
    118  O         19.2150   18.7180    8.4840 O.2   102  GLY102     -0.2863
    119  N         21.7620   27.5290    9.3880 N.3   111  TYR111     -0.1241
    120  CA        22.3100   26.3790    8.6750 C.3   111  TYR111      0.1605
    121  C         21.7760   26.3140    7.2510 C.2   111  TYR111      0.2264
    122  O         22.4830   25.8620    6.3410 O.2   111  TYR111     -0.2867
    123  CB        22.0030   25.0820    9.4410 C.3   111  TYR111      0.0534
    124  CG        22.9400   23.9020    9.1690 C.ar  111  TYR111     -0.0201
    125  CD1       24.2640   23.9080    9.6150 C.ar  111  TYR111     -0.0009
    126  CD2       22.4840   22.7520    8.5230 C.ar  111  TYR111     -0.0009
    127  CE1       25.1170   22.8060    9.3900 C.ar  111  TYR111      0.0417
    128  CE2       23.3310   21.6440    8.2990 C.ar  111  TYR111      0.0417
    129  CZ        24.6420   21.6800    8.7260 C.ar  111  TYR111      0.1957
    130  OH        25.4710   20.5920    8.4960 O.3   111  TYR111     -0.2866
    131  N         24.5760   26.3050    4.0920 N.3   115  LYS115     -0.1245
    132  CA        24.6340   25.2970    3.0430 C.3   115  LYS115      0.1561
    133  C         23.9260   25.7370    1.7690 C.2   115  LYS115      0.2260
    134  O         23.9130   24.9920    0.7840 O.2   115  LYS115     -0.2867
    135  CB        24.0780   23.9570    3.5500 C.3   115  LYS115      0.0271
    136  CG        25.0420   23.2130    4.5290 C.3   115  LYS115      0.0035
    137  CD        24.5930   21.8230    4.9470 C.3   115  LYS115      0.0206
    138  CE        25.7560   21.0530    5.5150 C.3   115  LYS115      0.1093
    139  NZ        26.9900   21.0170    4.6840 N.3   115  LYS115     -0.1314
@<TRIPOS>BOND
     1    71    72    1
     2    74    73    2
     3    89    87    1
     4    72    73    1
     5    72    75    1
     6    73    82   am
     7    78    80   ar
     8    78    76   ar
     9    80    81   ar
    10    82    83    1
    11    87    88    1
    12    87    86    1
    13    83    86    1
    14    83    84    1
    15    75    76    1
    16    76    77   ar
    17    81    79   ar
    18    84    85    2
    19    77    79   ar
    20    90    91    1
    21    98    99    1
    22    92    93    2
    23    92    91    1
    24    91    94    1
    25    62    63    1
    26   102    99    1
    27   102   103    1
    28    99   100    1
    29   134   133    2
    30   106   104   ar
    31    94    95    1
    32    63    64    1
    33    63    66    1
    34   103   104    1
    35    65    64    2
    36   133   132    1
    37   100   101    2
    38   100   107   am
    39   104   105   ar
    40    95    96   ar
    41    95    97   ar
    42    66    67    1
    43   107   108    1
    44   132   135    1
    45   132   131    1
    46    25    24    1
    47   112   114    1
    48   112   111    1
    49    70    68   ar
    50    69    68   ar
    51    68    67    1
    52   135   136    1
    53   108   111    1
    54   108   109    1
    55    24    23   ar
    56    24    22   ar
    57   111   113    1
    58   136   137    1
    59   139   138    1
    60    23    21   ar
    61   137   138    1
    62    22    20   ar
    63   109   110    2
    64   109   115   am
    65    60    61   ar
    66    60    58   ar
    67    61    59   ar
    68   115   116    1
    69    21    19   ar
    70    20    19   ar
    71   122   121    2
    72    19    18    1
    73   116   117    1
    74    58    57   ar
    75   121   120    1
    76    59    57   ar
    77    14    15    1
    78     5     2    1
    79     2     1    1
    80     2     3    1
    81    15    18    1
    82    15    16    1
    83     4     3    2
    84    57    56    1
    85    55    54    2
    86   128   126   ar
    87   128   129   ar
    88   117   118    2
    89     3     6   am
    90   130   129    1
    91   126   124   ar
    92   120   119    1
    93   120   123    1
    94   129   127   ar
    95    16    17    2
    96    54    53    1
    97   124   123    1
    98   124   125   ar
    99   127   125   ar
   100    56    53    1
   101     6     7    1
   102    53    52    1
   103     9     8    2
   104    50    48    1
   105     8     7    1
   106     7    10    1
   107    47    46    2
   108    43    42    1
   109    51    49    1
   110    49    48    1
   111    48    45    1
   112    42    41    1
   113    46    45    1
   114    45    44    1
   115    26    27    1
   116    10    11    1
   117    11    12    1
   118    31    30    1
   119    31    32    1
   120    41    40    1
   121    30    27    1
   122    27    28    1
   123    29    28    2
   124    33    32   ar
   125    40    39    1
   126    32    34   ar
   127    13    12    1
   128    38    37    2
   129    39    36    1
   130    37    36    1
   131    36    35    1
