@<TRIPOS>MOLECULE
tmp/5wcwA01.pdb
 77 75 0 0 0
SMALL
GASTEIGER

@<TRIPOS>ATOM
      1  N        -31.3360   22.4170   -3.4020 N.3     4  THR4       -0.1203
      2  CA       -30.8340   21.1040   -3.8100 C.3     4  THR4        0.1994
      3  C        -31.2980   20.8090   -5.2310 C.2     4  THR4        0.2618
      4  O        -32.0830   21.5570   -5.8260 O.2     4  THR4       -0.2717
      5  CB       -31.3700   19.9670   -2.9060 C.3     4  THR4        0.1784
      6  OG1      -32.7630   19.7000   -3.2010 O.3     4  THR4       -0.2211
      7  CG2      -31.2030   20.3090   -1.4270 C.3     4  THR4        0.0376
      8  N        -30.8070   19.6980   -5.7760 N.am    5  VAL5       -0.1965
      9  CA       -31.1440   19.3250   -7.1470 C.3     5  VAL5        0.1727
     10  C        -32.5710   18.8300   -7.2840 C.2     5  VAL5        0.2616
     11  O        -33.0430   18.6640   -8.4170 O.2     5  VAL5       -0.2715
     12  CB       -30.1120   18.3330   -7.7210 C.3     5  VAL5        0.0290
     13  CG1      -28.7150   18.9810   -7.6940 C.3     5  VAL5        0.0023
     14  CG2      -30.1640   17.0330   -6.9540 C.3     5  VAL5        0.0023
     15  N        -33.2580   18.6010   -6.1650 N.am    6  ARG6       -0.1963
     16  CA       -34.6900   18.2870   -6.1540 C.3     6  ARG6        0.1729
     17  C        -35.5490   19.4610   -5.6760 C.2     6  ARG6        0.2617
     18  O        -36.7710   19.3060   -5.5310 O.2     6  ARG6       -0.2715
     19  CB       -34.9680   17.0620   -5.2790 C.3     6  ARG6        0.0348
     20  CG       -34.4560   15.7560   -5.8290 C.3     6  ARG6        0.0492
     21  CD       -34.9360   14.5640   -4.9670 C.3     6  ARG6        0.2205
     22  NE       -34.5050   14.6620   -3.5640 N.pl3   6  ARG6       -0.0865
     23  CZ       -34.5850   13.6760   -2.6700 C.cat   6  ARG6        0.5346
     24  NH1      -35.0830   12.4930   -3.0140 N.pl3   6  ARG6        0.1354
     25  NH2      -34.1590   13.8670   -1.4290 N.pl3   6  ARG6        0.1354
     26  N        -34.9530   20.6460   -5.4840 N.am    7  GLY7       -0.1941
     27  CA       -35.6560   21.8040   -4.9700 C.3     7  GLY7        0.1998
     28  C        -35.2020   22.2600   -3.5850 C.2     7  GLY7        0.2480
     29  O        -34.2130   21.7790   -3.0230 O.2     7  GLY7       -0.2729
     30  N        -35.9440   23.1930   -2.9960 N.am    8  PRO8       -0.2726
     31  CA       -35.5460   23.7540   -1.6950 C.3     8  PRO8        0.1402
     32  C        -35.8680   22.8090   -0.5450 C.2     8  PRO8        0.2269
     33  O        -36.8910   22.1190   -0.5390 O.2     8  PRO8       -0.2865
     34  CB       -36.3780   25.0460   -1.5880 C.3     8  PRO8        0.0296
     35  CG       -37.0520   25.2200   -2.9270 C.3     8  PRO8        0.0237
     36  CD       -37.1190   23.8750   -3.5630 C.3     8  PRO8        0.0939
     37  N        -32.6520   11.4160   -6.4780 N.3    83  ARG83      -0.1245
     38  CA       -34.0100   10.9360   -6.3250 C.3    83  ARG83       0.1563
     39  C        -33.9950    9.4420   -6.0730 C.2    83  ARG83       0.2260
     40  O        -34.7370    8.9360   -5.2230 O.2    83  ARG83      -0.2867
     41  CB       -34.8160   11.2520   -7.5850 C.3    83  ARG83       0.0307
     42  CG       -35.1180   12.7250   -7.7580 C.3    83  ARG83       0.0489
     43  CD       -35.7460   13.0100   -9.1140 C.3    83  ARG83       0.2205
     44  NE       -35.9190   14.4460   -9.3190 N.pl3  83  ARG83      -0.0865
     45  CZ       -36.8830   15.1630   -8.7490 C.cat  83  ARG83       0.5346
     46  NH1      -37.7530   14.5740   -7.9420 N.pl3  83  ARG83       0.1354
     47  NH2      -36.9740   16.4600   -8.9840 N.pl3  83  ARG83       0.1354
     48  N        -32.3730   23.5960  -16.6260 N.3   126  THR126     -0.1203
     49  CA       -32.9520   22.6120  -15.7180 C.3   126  THR126      0.1994
     50  C        -33.7770   23.2170  -14.5960 C.2   126  THR126      0.2618
     51  O        -34.5300   22.4800  -13.9450 O.2   126  THR126     -0.2717
     52  CB       -31.8580   21.7800  -15.0440 C.3   126  THR126      0.1784
     53  OG1      -31.1410   22.6060  -14.1060 O.3   126  THR126     -0.2211
     54  CG2      -30.9060   21.2140  -16.0750 C.3   126  THR126      0.0376
     55  N        -33.6280   24.5130  -14.3250 N.am  127  GLY127     -0.1942
     56  CA       -34.2460   25.1350  -13.1680 C.3   127  GLY127      0.2014
     57  C        -33.5920   24.8120  -11.8420 C.2   127  GLY127      0.2639
     58  O        -34.0280   25.3360  -10.8030 O.2   127  GLY127     -0.2714
     59  N        -32.5770   23.9450  -11.8370 N.am  128  ILE128     -0.1963
     60  CA       -31.8900   23.5790  -10.6080 C.3   128  ILE128      0.1727
     61  C        -30.9080   24.6930  -10.2660 C.2   128  ILE128      0.2616
     62  O        -30.0680   25.0730  -11.0870 O.2   128  ILE128     -0.2715
     63  CB       -31.1530   22.2510  -10.7810 C.3   128  ILE128      0.0290
     64  CG1      -32.1710   21.1170  -11.0130 C.3   128  ILE128      0.0022
     65  CG2      -30.2490   22.0130   -9.5680 C.3   128  ILE128      0.0023
     66  CD1      -31.5230   19.8350  -11.5360 C.3   128  ILE128      0.0001
     67  N        -30.9900   25.2020   -9.0600 N.am  129  ARG129     -0.1977
     68  CA       -30.1450   26.3170   -8.6470 C.3   129  ARG129      0.1597
     69  C        -28.9860   25.8540   -7.7690 C.2   129  ARG129      0.2287
     70  O        -29.1530   24.9860   -6.9080 O.2   129  ARG129     -0.2864
     71  CB       -30.9890   27.3300   -7.8900 C.3   129  ARG129      0.0334
     72  CG       -31.8670   28.1400   -8.8260 C.3   129  ARG129      0.0492
     73  CD       -32.8890   28.9340   -8.0700 C.3   129  ARG129      0.2205
     74  NE       -33.8790   29.4690   -8.9880 N.pl3 129  ARG129     -0.0865
     75  CZ       -35.0240   30.0230   -8.6090 C.cat 129  ARG129      0.5346
     76  NH1      -35.3200   30.1120   -7.3160 N.pl3 129  ARG129      0.1354
     77  NH2      -35.8680   30.4930   -9.5220 N.pl3 129  ARG129      0.1354
@<TRIPOS>BOND
     1    48    49    1
     2    54    52    1
     3    49    52    1
     4    49    50    1
     5    52    53    1
     6    50    55   am
     7    50    51    2
     8    55    56    1
     9    56    57    1
    10    57    59   am
    11    57    58    2
    12    59    60    1
    13    66    64    1
    14    62    61    2
    15    64    63    1
    16    63    60    1
    17    63    65    1
    18    60    61    1
    19    61    67   am
    20    77    75    1
    21    44    43    1
    22    44    45    2
    23    43    42    1
    24    67    68    1
    25    74    75    2
    26    74    73    1
    27    47    45    1
    28    72    73    1
    29    72    71    1
    30    45    46    1
    31    68    71    1
    32    68    69    1
    33    75    76    1
    34    11    10    2
    35    69    70    2
    36    42    41    1
    37    12    13    1
    38    12     9    1
    39    12    14    1
    40    41    38    1
    41    10     9    1
    42    10    15   am
    43     9     8    1
    44    37    38    1
    45    38    39    1
    46    15    16    1
    47    16    17    1
    48    16    19    1
    49    39    40    2
    50    20    19    1
    51    20    21    1
    52     4     3    2
    53     8     3   am
    54    17    18    2
    55    17    26   am
    56    26    27    1
    57     3     2    1
    58    27    28    1
    59    21    22    1
    60     2     1    1
    61     2     5    1
    62    28    29    2
    63    28    30   am
    64    22    23    2
    65    36    30    1
    66    36    35    1
    67     6     5    1
    68    24    23    1
    69    30    31    1
    70    35    34    1
    71     5     7    1
    72    23    25    1
    73    31    34    1
    74    31    32    1
    75    32    33    2
