@<TRIPOS>MOLECULE
tmp/5wczB00.pdb
 127 121 0 0 0
SMALL
GASTEIGER

@<TRIPOS>ATOM
      1  N         56.6600  -10.7590   94.7690 N.3    57  ASP57      -0.1239
      2  CA        57.9850  -11.3630   94.7110 C.3    57  ASP57       0.1674
      3  C         58.8480  -10.7850   95.8240 C.2    57  ASP57       0.2266
      4  O         60.0190  -10.4540   95.6310 O.2    57  ASP57      -0.2867
      5  CB        58.6080  -11.1380   93.3300 C.3    57  ASP57       0.1410
      6  CG        59.8930  -11.9320   93.1050 C.2    57  ASP57       0.3668
      7  OD1       60.1190  -12.9490   93.7820 O.co2  57  ASP57      -0.2456
      8  OD2       60.6720  -11.5340   92.2130 O.co2  57  ASP57      -0.2456
      9  N         60.9800   -7.5800   95.1500 N.3    60  TYR60      -0.1241
     10  CA        61.4950   -7.4010   93.7950 C.3    60  TYR60       0.1605
     11  C         60.4080   -6.9600   92.8130 C.2    60  TYR60       0.2264
     12  O         60.6780   -6.8320   91.6110 O.2    60  TYR60      -0.2867
     13  CB        62.2080   -8.6820   93.3390 C.3    60  TYR60       0.0534
     14  CG        63.5550   -8.8210   94.0390 C.ar   60  TYR60      -0.0201
     15  CD1       64.6690   -8.1190   93.5890 C.ar   60  TYR60      -0.0009
     16  CD2       63.6860   -9.5910   95.1890 C.ar   60  TYR60      -0.0009
     17  CE1       65.8990   -8.2100   94.2390 C.ar   60  TYR60       0.0417
     18  CE2       64.9080   -9.6860   95.8510 C.ar   60  TYR60       0.0417
     19  CZ        66.0050   -9.0020   95.3740 C.ar   60  TYR60       0.1957
     20  OH        67.2100   -9.0920   96.0540 O.3    60  TYR60      -0.2866
     21  N         62.0830   -4.0950   85.7910 N.3   100  HIS100     -0.1241
     22  CA        60.6350   -4.1990   85.8760 C.3   100  HIS100      0.1621
     23  C         60.1770   -3.4330   87.1090 C.2   100  HIS100      0.2264
     24  O         60.9740   -3.1410   88.0050 O.2   100  HIS100     -0.2867
     25  CB        60.1870   -5.6630   85.9410 C.3   100  HIS100      0.0745
     26  CG        60.9360   -6.4850   86.9510 C.ar  100  HIS100      0.0817
     27  ND1       62.0760   -7.1970   86.6360 N.ar  100  HIS100     -0.2268
     28  CD2       60.7110   -6.7000   88.2720 C.ar  100  HIS100      0.1154
     29  CE1       62.5170   -7.8210   87.7150 C.ar  100  HIS100      0.1986
     30  NE2       61.7060   -7.5390   88.7210 N.ar  100  HIS100     -0.2212
     31  N         59.0530  -17.2150   85.9730 N.3   141  PHE141     -0.1241
     32  CA        58.1730  -17.7880   86.9910 C.3   141  PHE141      0.1605
     33  C         56.9840  -18.5220   86.3730 C.2   141  PHE141      0.2264
     34  O         55.8700  -18.4460   86.8990 O.2   141  PHE141     -0.2867
     35  CB        57.6890  -16.7050   87.9550 C.3   141  PHE141      0.0534
     36  CG        58.7940  -16.0560   88.7720 C.ar  141  PHE141     -0.0203
     37  CD1       59.9110  -16.7750   89.1550 C.ar  141  PHE141     -0.0042
     38  CD2       58.6980  -14.7260   89.1520 C.ar  141  PHE141     -0.0042
     39  CE1       60.9170  -16.1770   89.9170 C.ar  141  PHE141     -0.0003
     40  CE2       59.6950  -14.1190   89.9100 C.ar  141  PHE141     -0.0003
     41  CZ        60.8100  -14.8510   90.2910 C.ar  141  PHE141     -0.0000
     42  N         59.2060  -11.8750   84.5590 N.3   160  PHE160     -0.1241
     43  CA        58.9570  -12.4990   85.8580 C.3   160  PHE160      0.1605
     44  C         57.4440  -12.5910   86.0720 C.2   160  PHE160      0.2264
     45  O         56.7550  -13.0590   85.1620 O.2   160  PHE160     -0.2867
     46  CB        59.7630  -11.7540   86.9180 C.3   160  PHE160      0.0534
     47  CG        61.2450  -11.8830   86.6970 C.ar  160  PHE160     -0.0203
     48  CD1       61.9220  -13.0120   87.1330 C.ar  160  PHE160     -0.0042
     49  CD2       61.9320  -10.9380   85.9540 C.ar  160  PHE160     -0.0042
     50  CE1       63.2900  -13.1570   86.8920 C.ar  160  PHE160     -0.0003
     51  CE2       63.2930  -11.0820   85.7030 C.ar  160  PHE160     -0.0003
     52  CZ        63.9610  -12.1960   86.1730 C.ar  160  PHE160     -0.0000
     53  N         73.4530   -3.2370   93.9750 N.3   194  ARG194     -0.1245
     54  CA        73.3630   -4.5590   93.3790 C.3   194  ARG194      0.1563
     55  C         72.2070   -4.4970   92.3890 C.2   194  ARG194      0.2260
     56  O         71.0730   -4.1970   92.7730 O.2   194  ARG194     -0.2867
     57  CB        73.1270   -5.6150   94.4720 C.3   194  ARG194      0.0307
     58  CG        72.9740   -7.0590   94.0080 C.3   194  ARG194      0.0489
     59  CD        71.5300   -7.3780   93.5640 C.3   194  ARG194      0.2205
     60  NE        71.3260   -8.8110   93.3880 N.pl3 194  ARG194     -0.0865
     61  CZ        70.1720   -9.3660   93.0390 C.cat 194  ARG194      0.5346
     62  NH1       69.1050   -8.6030   92.8020 N.pl3 194  ARG194      0.1354
     63  NH2       70.0800  -10.6820   92.9240 N.pl3 194  ARG194      0.1354
     64  N         69.5340   -5.8010   90.0330 N.3   196  ASP196     -0.1225
     65  CA        68.7250   -6.9860   89.8030 C.3   196  ASP196      0.1805
     66  C         68.5360   -7.2680   88.3120 C.2   196  ASP196      0.2597
     67  O         68.1390   -6.3810   87.5500 O.2   196  ASP196     -0.2718
     68  CB        67.3730   -6.7700   90.4880 C.3   196  ASP196      0.1424
     69  CG        66.4630   -7.9500   90.3620 C.2   196  ASP196      0.3668
     70  OD1       66.7850   -9.0040   90.9290 O.co2 196  ASP196     -0.2456
     71  OD2       65.4080   -7.8190   89.7070 O.co2 196  ASP196     -0.2456
     72  N         68.7590   -8.5320   87.9300 N.am  197  VAL197     -0.1980
     73  CA        68.7310   -9.0580   86.5600 C.3   197  VAL197      0.1595
     74  C         69.0630   -7.9780   85.5330 C.2   197  VAL197      0.2287
     75  O         68.3280   -7.7710   84.5550 O.2   197  VAL197     -0.2864
     76  CB        67.3890   -9.7560   86.2510 C.3   197  VAL197      0.0276
     77  CG1       67.2950  -11.0530   87.0380 C.3   197  VAL197      0.0022
     78  CG2       66.1820   -8.8540   86.5290 C.3   197  VAL197      0.0022
     79  N         73.7680   -8.1710   88.8160 N.3   248  GLU248     -0.1245
     80  CA        73.3020   -9.5560   88.7810 C.3   248  GLU248      0.1567
     81  C         73.1270   -9.9000   87.3140 C.2   248  GLU248      0.2260
     82  O         72.1130   -9.5730   86.6980 O.2   248  GLU248     -0.2867
     83  CB        72.0020   -9.7540   89.5630 C.3   248  GLU248      0.0388
     84  CG        71.6740  -11.2330   89.7340 C.3   248  GLU248      0.1160
     85  CD        70.1880  -11.5340   89.8640 C.2   248  GLU248      0.3649
     86  OE1       69.3670  -10.6320   89.6000 O.co2 248  GLU248     -0.2457
     87  OE2       69.8490  -12.6780   90.2450 O.co2 248  GLU248     -0.2457
     88  N         69.6660  -15.1310   98.5770 N.3   324  HIS324     -0.1226
     89  CA        68.2510  -15.3820   98.8600 C.3   324  HIS324      0.1752
     90  C         67.5540  -16.1800   97.7630 C.2   324  HIS324      0.2596
     91  O         66.3480  -16.4570   97.8930 O.2   324  HIS324     -0.2718
     92  CB        67.5320  -14.0530   99.0330 C.3   324  HIS324      0.0759
     93  CG        67.5720  -13.2240   97.7930 C.ar  324  HIS324      0.0818
     94  ND1       68.7480  -12.7490   97.2590 N.ar  324  HIS324     -0.2268
     95  CD2       66.5890  -12.8380   96.9460 C.ar  324  HIS324      0.1154
     96  CE1       68.4890  -12.0880   96.1450 C.ar  324  HIS324      0.1986
     97  NE2       67.1850  -12.1290   95.9300 N.ar  324  HIS324     -0.2212
     98  N         68.2540  -16.5130   96.6810 N.am  325  ASP325     -0.1974
     99  CA        67.7380  -17.3140   95.5820 C.3   325  ASP325      0.1709
    100  C         68.2920  -18.7280   95.5540 C.2   325  ASP325      0.2293
    101  O         67.8990  -19.5140   94.6810 O.2   325  ASP325     -0.2864
    102  CB        68.0890  -16.6720   94.2230 C.3   325  ASP325      0.1436
    103  CG        67.3990  -15.3630   93.9830 C.2   325  ASP325      0.3671
    104  OD1       66.2960  -15.1490   94.5380 O.co2 325  ASP325     -0.2456
    105  OD2       67.9570  -14.5550   93.2040 O.co2 325  ASP325     -0.2456
    106  N         63.9250  -21.5570   96.8260 N.3   411  ARG411     -0.1245
    107  CA        64.5180  -20.3230   97.3290 C.3   411  ARG411      0.1563
    108  C         64.2050  -20.1060   98.8100 C.2   411  ARG411      0.2260
    109  O         64.9770  -19.4340   99.5070 O.2   411  ARG411     -0.2867
    110  CB        64.0440  -19.1260   96.5050 C.3   411  ARG411      0.0307
    111  CG        64.4370  -19.2030   95.0190 C.3   411  ARG411      0.0489
    112  CD        64.3030  -17.8580   94.2910 C.3   411  ARG411      0.2205
    113  NE        62.9130  -17.3890   94.1920 N.pl3 411  ARG411     -0.0865
    114  CZ        62.5290  -16.2370   93.6460 C.cat 411  ARG411      0.5346
    115  NH1       61.2350  -15.9230   93.6270 N.pl3 411  ARG411      0.1354
    116  NH2       63.4080  -15.3970   93.1070 N.pl3 411  ARG411      0.1354
    117  N         65.3840  -18.2930  103.1080 N.3   415  ARG415     -0.1245
    118  CA        64.5230  -17.2210  103.5710 C.3   415  ARG415      0.1563
    119  C         63.8520  -17.4990  104.9110 C.2   415  ARG415      0.2260
    120  O         63.1980  -16.5950  105.4470 O.2   415  ARG415     -0.2867
    121  CB        63.4560  -16.9200  102.5050 C.3   415  ARG415      0.0307
    122  CG        64.0930  -16.5600  101.1530 C.3   415  ARG415      0.0489
    123  CD        63.0620  -16.4240  100.0430 C.3   415  ARG415      0.2205
    124  NE        63.6880  -16.0210   98.7910 N.pl3 415  ARG415     -0.0865
    125  CZ        63.0330  -15.5140   97.7490 C.cat 415  ARG415      0.5346
    126  NH1       61.7130  -15.3330   97.7980 N.pl3 415  ARG415      0.1354
    127  NH2       63.7000  -15.1920   96.6540 N.pl3 415  ARG415      0.1354
@<TRIPOS>BOND
     1    75    74    2
     2    42    43    1
     3    45    44    2
     4    74    73    1
     5    51    49   ar
     6    51    52   ar
     7    21    22    1
     8    43    44    1
     9    43    46    1
    10    22    25    1
    11    22    23    1
    12    25    26    1
    13    49    47   ar
    14    31    32    1
    15    52    50   ar
    16    76    78    1
    17    76    73    1
    18    76    77    1
    19    33    34    2
    20    33    32    1
    21    73    72    1
    22    27    26   ar
    23    27    29   ar
    24    47    46    1
    25    47    48   ar
    26    82    81    2
    27    50    48   ar
    28    26    28   ar
    29    32    35    1
    30    23    24    2
    31    81    80    1
    32    67    66    2
    33    29    30   ar
    34    72    66   am
    35    35    36    1
    36    28    30   ar
    37    66    65    1
    38    36    38   ar
    39    36    37   ar
    40    80    79    1
    41    80    83    1
    42    38    40   ar
    43    37    39   ar
    44    83    84    1
    45    86    85   ar
    46    71    69   ar
    47    84    85    1
    48    65    64    1
    49    65    68    1
    50    85    87   ar
    51    40    41   ar
    52    39    41   ar
    53    69    68    1
    54    69    70   ar
    55    12    11    2
    56     8     6   ar
    57    55    56    2
    58    55    54    1
    59    62    61    1
    60    11    10    1
    61    63    61    1
    62    61    60    2
    63     6     5    1
    64     6     7   ar
    65   116   114    1
    66   105   103   ar
    67     5     2    1
    68    13    10    1
    69    13    14    1
    70    54    53    1
    71    54    57    1
    72    60    59    1
    73    59    58    1
    74    15    14   ar
    75    15    17   ar
    76   115   114    1
    77   114   113    2
    78    10     9    1
    79   103   102    1
    80   103   104   ar
    81    58    57    1
    82    14    16   ar
    83   113   112    1
    84   102    99    1
    85    17    19   ar
    86   112   111    1
    87   101   100    2
    88     2     1    1
    89     2     3    1
    90   111   110    1
    91    16    18   ar
    92    19    18   ar
    93    19    20    1
    94   100    99    1
    95    99    98    1
    96     4     3    2
    97    97    96   ar
    98    97    95   ar
    99    96    94   ar
   100   110   107    1
   101   127   125    1
   102    98    90   am
   103   106   107    1
   104    95    93   ar
   105    94    93   ar
   106   107   108    1
   107   125   126    1
   108   125   124    2
   109    90    91    2
   110    90    89    1
   111    93    92    1
   112    88    89    1
   113   124   123    1
   114   108   109    2
   115    89    92    1
   116   123   122    1
   117   122   121    1
   118   121   118    1
   119   117   118    1
   120   118   119    1
   121   119   120    2
