@<TRIPOS>MOLECULE
tmp/5wdcA00.pdb
 144 135 0 0 0
SMALL
GASTEIGER

@<TRIPOS>ATOM
      1  N        497.0650  199.6550  544.3400 N.3    24  ALA24      -0.1231
      2  CA       497.1540  198.6600  545.4100 C.3    24  ALA24       0.1694
      3  C        496.4350  197.3700  545.0340 C.2    24  ALA24       0.2591
      4  O        496.9660  196.2730  545.2460 O.2    24  ALA24      -0.2718
      5  CB       496.5790  199.2140  546.7140 C.3    24  ALA24       0.0304
      6  N        495.2210  197.4790  544.4880 N.am   25  MET25      -0.1979
      7  CA       494.4700  196.2790  544.1350 C.3    25  MET25       0.1605
      8  C        495.2020  195.4630  543.0850 C.2    25  MET25       0.2287
      9  O        495.3200  194.2380  543.2110 O.2    25  MET25      -0.2864
     10  CB       493.0710  196.6440  543.6460 C.3    25  MET25       0.0413
     11  CG       492.0670  196.7040  544.7680 C.3    25  MET25       0.0598
     12  SD       490.4840  197.3980  544.2910 S.3    25  MET25      -0.1393
     13  CE       489.6130  195.9080  543.8080 C.3    25  MET25       0.0692
     14  N        498.1430  193.5600  544.4440 N.3    28  TYR28      -0.1241
     15  CA       497.7700  192.3340  545.1360 C.3    28  TYR28       0.1605
     16  C        496.8530  191.4460  544.3000 C.2    28  TYR28       0.2264
     17  O        496.2590  190.5050  544.8350 O.2    28  TYR28      -0.2867
     18  CB       497.1310  192.6720  546.4860 C.3    28  TYR28       0.0534
     19  CG       498.1320  193.2550  547.4660 C.ar   28  TYR28      -0.0201
     20  CD1      498.9480  192.4290  548.2300 C.ar   28  TYR28      -0.0009
     21  CD2      498.2810  194.6310  547.6050 C.ar   28  TYR28      -0.0009
     22  CE1      499.8740  192.9550  549.1160 C.ar   28  TYR28       0.0417
     23  CE2      499.2060  195.1660  548.4880 C.ar   28  TYR28       0.0417
     24  CZ       500.0010  194.3230  549.2390 C.ar   28  TYR28       0.1957
     25  OH       500.9180  194.8480  550.1220 O.3    28  TYR28      -0.2866
     26  N        493.9730  191.9320  542.2030 N.3    30  GLU30      -0.1245
     27  CA       492.5260  192.0300  542.0870 C.3    30  GLU30       0.1567
     28  C        492.1620  193.1960  541.1750 C.2    30  GLU30       0.2260
     29  O        492.9470  194.1250  540.9720 O.2    30  GLU30      -0.2867
     30  CB       491.8610  192.1640  543.4670 C.3    30  GLU30       0.0388
     31  CG       491.4440  190.8080  544.0440 C.3    30  GLU30       0.1160
     32  CD       491.5340  190.7340  545.5590 C.2    30  GLU30       0.3649
     33  OE1      491.0130  191.6440  546.2370 O.co2  30  GLU30      -0.2457
     34  OE2      492.1210  189.7550  546.0710 O.co2  30  GLU30      -0.2457
     35  N        485.2080  195.9660  547.0730 N.3    38  LYS38      -0.1245
     36  CA       486.4980  196.1650  547.7200 C.3    38  LYS38       0.1561
     37  C        487.2050  197.4010  547.1840 C.2    38  LYS38       0.2260
     38  O        487.9600  198.0510  547.9160 O.2    38  LYS38      -0.2867
     39  CB       487.3760  194.9330  547.5440 C.3    38  LYS38       0.0271
     40  CG       488.5270  194.9150  548.5190 C.3    38  LYS38       0.0035
     41  CD       489.2600  193.6000  548.4940 C.3    38  LYS38       0.0206
     42  CE       490.3430  193.5890  549.5530 C.3    38  LYS38       0.1093
     43  NZ       490.9790  192.2500  549.6480 N.3    38  LYS38      -0.1314
     44  N        488.6180  200.0980  549.7670 N.3    42  ILE42      -0.1245
     45  CA       490.0140  200.5230  549.8430 C.3    42  ILE42       0.1561
     46  C        490.1210  202.0330  549.6960 C.2    42  ILE42       0.2260
     47  O        490.9260  202.6790  550.3800 O.2    42  ILE42      -0.2867
     48  CB       490.8640  199.7860  548.7910 C.3    42  ILE42       0.0252
     49  CG1      491.1400  198.3630  549.2600 C.3    42  ILE42       0.0019
     50  CG2      492.1920  200.5070  548.5570 C.3    42  ILE42       0.0019
     51  CD1      491.1650  197.3650  548.1460 C.3    42  ILE42       0.0001
     52  N        489.0550  203.3430  553.1260 N.3    45  HIS45      -0.1241
     53  CA       490.1340  203.1650  554.0920 C.3    45  HIS45       0.1621
     54  C        491.2760  204.1370  553.8300 C.2    45  HIS45       0.2264
     55  O        491.8370  204.7180  554.7690 O.2    45  HIS45      -0.2867
     56  CB       490.6210  201.7140  554.0410 C.3    45  HIS45       0.0745
     57  CG       491.7780  201.4220  554.9440 C.ar   45  HIS45       0.0817
     58  ND1      493.0900  201.5410  554.5360 N.ar   45  HIS45      -0.2268
     59  CD2      491.8210  200.9850  556.2250 C.ar   45  HIS45       0.1154
     60  CE1      493.8910  201.2090  555.5330 C.ar   45  HIS45       0.1986
     61  NE2      493.1460  200.8660  556.5690 N.ar   45  HIS45      -0.2212
     62  N        500.3630  203.5050  554.6300 N.3    65  GLU65      -0.1245
     63  CA       499.4130  203.0460  553.6260 C.3    65  GLU65       0.1567
     64  C        499.3990  204.0260  552.4650 C.2    65  GLU65       0.2260
     65  O        499.6620  205.2200  552.6310 O.2    65  GLU65      -0.2867
     66  CB       498.0090  202.9010  554.2380 C.3    65  GLU65       0.0388
     67  CG       496.9380  202.3340  553.2960 C.3    65  GLU65       0.1160
     68  CD       496.7580  200.8280  553.4500 C.2    65  GLU65       0.3649
     69  OE1      495.6210  200.3280  553.3060 O.co2  65  GLU65      -0.2457
     70  OE2      497.7630  200.1400  553.7190 O.co2  65  GLU65      -0.2457
     71  N        503.1510  192.5880  560.2790 N.3    90  PHE90      -0.1227
     72  CA       502.4150  192.9910  559.0930 C.3    90  PHE90       0.1736
     73  C        502.4950  194.5020  558.9340 C.2    90  PHE90       0.2595
     74  O        502.7130  195.2370  559.9010 O.2    90  PHE90      -0.2718
     75  CB       500.9480  192.5430  559.1660 C.3    90  PHE90       0.0547
     76  CG       500.7710  191.0580  559.3490 C.ar   90  PHE90      -0.0202
     77  CD1      500.9740  190.4610  560.5880 C.ar   90  PHE90      -0.0042
     78  CD2      500.4090  190.2570  558.2770 C.ar   90  PHE90      -0.0042
     79  CE1      500.8120  189.0960  560.7550 C.ar   90  PHE90      -0.0003
     80  CE2      500.2450  188.8910  558.4350 C.ar   90  PHE90      -0.0003
     81  CZ       500.4470  188.3090  559.6760 C.ar   90  PHE90      -0.0000
     82  N        502.3200  194.9530  557.6970 N.am   91  LEU91      -0.1980
     83  CA       502.3920  196.3730  557.3770 C.3    91  LEU91       0.1596
     84  C        501.3410  197.1500  558.1500 C.2    91  LEU91       0.2287
     85  O        500.1420  196.8280  558.0540 O.2    91  LEU91      -0.2864
     86  CB       502.1980  196.5910  555.8760 C.3    91  LEU91       0.0297
     87  CG       503.4180  196.8920  555.0000 C.3    91  LEU91       0.0022
     88  CD1      502.9860  197.3420  553.6050 C.3    91  LEU91       0.0001
     89  CD2      504.3160  197.9350  555.6470 C.3    91  LEU91       0.0001
     90  N        499.5040  201.0840  559.0570 N.3    93  ASP93      -0.1239
     91  CA       499.0520  202.1770  558.1990 C.3    93  ASP93       0.1674
     92  C        499.6930  203.5230  558.5090 C.2    93  ASP93       0.2266
     93  O        499.9140  204.3080  557.5820 O.2    93  ASP93      -0.2867
     94  CB       497.5300  202.3220  558.2670 C.3    93  ASP93       0.1410
     95  CG       496.8090  201.1500  557.6340 C.2    93  ASP93       0.3668
     96  OD1      497.4050  200.4730  556.7750 O.co2  93  ASP93      -0.2456
     97  OD2      495.6520  200.8850  558.0280 O.co2  93  ASP93      -0.2456
     98  N        497.2880  200.7840  563.2850 N.3   104  GLU104     -0.1231
     99  CA       496.5240  200.0810  562.2630 C.3   104  GLU104      0.1699
    100  C        495.1100  200.6430  562.2800 C.2   104  GLU104      0.2592
    101  O        494.3940  200.5080  563.2840 O.2   104  GLU104     -0.2718
    102  CB       496.5250  198.5730  562.4910 C.3   104  GLU104      0.0402
    103  CG       495.3950  197.9100  561.7390 C.3   104  GLU104      0.1161
    104  CD       495.6940  197.9090  560.2460 C.2   104  GLU104      0.3649
    105  OE1      496.8920  198.0260  559.8990 O.co2 104  GLU104     -0.2457
    106  OE2      494.7560  197.8300  559.4170 O.co2 104  GLU104     -0.2457
    107  N        494.7190  201.2950  561.1820 N.am  105  ILE105     -0.1980
    108  CA       493.3730  201.8310  561.0420 C.3   105  ILE105      0.1595
    109  C        492.4620  200.7330  560.5200 C.2   105  ILE105      0.2287
    110  O        492.8570  199.9640  559.6400 O.2   105  ILE105     -0.2864
    111  CB       493.3360  203.0450  560.1030 C.3   105  ILE105      0.0276
    112  CG1      494.2670  204.1570  560.5960 C.3   105  ILE105      0.0022
    113  CG2      491.9090  203.5780  559.9870 C.3   105  ILE105      0.0022
    114  CD1      493.8380  204.8020  561.8980 C.3   105  ILE105      0.0001
    115  N        485.3560  193.1590  564.7240 N.3   115  TYR115     -0.1241
    116  CA       486.4820  193.5240  563.8680 C.3   115  TYR115      0.1605
    117  C        487.7410  193.7800  564.6890 C.2   115  TYR115      0.2264
    118  O        488.8330  193.3500  564.3010 O.2   115  TYR115     -0.2867
    119  CB       486.1330  194.7470  563.0110 C.3   115  TYR115      0.0534
    120  CG       487.1560  195.0850  561.9320 C.ar  115  TYR115     -0.0201
    121  CD1      486.9740  194.6800  560.6120 C.ar  115  TYR115     -0.0009
    122  CD2      488.2960  195.8270  562.2310 C.ar  115  TYR115     -0.0009
    123  CE1      487.9090  195.0000  559.6210 C.ar  115  TYR115      0.0417
    124  CE2      489.2300  196.1500  561.2540 C.ar  115  TYR115      0.0417
    125  CZ       489.0340  195.7340  559.9540 C.ar  115  TYR115      0.1957
    126  OH       489.9680  196.0550  558.9920 O.3   115  TYR115     -0.2866
    127  N        491.1390  191.8050  564.1980 N.3   119  LYS119     -0.1245
    128  CA       492.3320  192.5920  563.8990 C.3   119  LYS119      0.1561
    129  C        493.3930  192.4200  564.9800 C.2   119  LYS119      0.2260
    130  O        494.5890  192.3500  564.6770 O.2   119  LYS119     -0.2867
    131  CB       491.9630  194.0660  563.7340 C.3   119  LYS119      0.0271
    132  CG       493.0900  194.8810  563.1360 C.3   119  LYS119      0.0035
    133  CD       493.6030  194.4330  561.7870 C.3   119  LYS119      0.0206
    134  CE       492.7960  194.8980  560.5900 C.3   119  LYS119      0.1093
    135  NZ       493.6120  194.5890  559.3430 N.3   119  LYS119     -0.1314
    136  N        494.8130  188.7700  564.7310 N.3   122  LYS122     -0.1245
    137  CA       495.6360  188.5980  563.5380 C.3   122  LYS122      0.1561
    138  C        496.9520  189.3540  563.6640 C.2   122  LYS122      0.2260
    139  O        498.0240  188.8050  563.3860 O.2   122  LYS122     -0.2867
    140  CB       494.8670  189.0590  562.2980 C.3   122  LYS122      0.0271
    141  CG       495.7250  188.9990  561.0420 C.3   122  LYS122      0.0035
    142  CD       494.9050  189.0600  559.7710 C.3   122  LYS122      0.0206
    143  CE       495.3520  190.2160  558.8960 C.3   122  LYS122      0.1093
    144  NZ       496.8060  190.1380  558.6840 N.3   122  LYS122     -0.1314
@<TRIPOS>BOND
     1    29    28    2
     2    28    27    1
     3    27    26    1
     4    27    30    1
     5     8     9    2
     6     8     7    1
     7    30    31    1
     8    10     7    1
     9    10    11    1
    10    13    12    1
    11    31    32    1
    12     7     6    1
    13    12    11    1
    14    16    17    2
    15    16    15    1
    16     1     2    1
    17    14    15    1
    18     6     3   am
    19     3     4    2
    20     3     2    1
    21    15    18    1
    22     2     5    1
    23    32    34   ar
    24    32    33   ar
    25    18    19    1
    26    35    36    1
    27    37    36    1
    28    37    38    2
    29    19    21   ar
    30    19    20   ar
    31    39    36    1
    32    39    40    1
    33    21    23   ar
    34    51    49    1
    35    20    22   ar
    36    23    24   ar
    37    41    40    1
    38    41    42    1
    39    50    48    1
    40    48    49    1
    41    48    45    1
    42    22    24   ar
    43    24    25    1
    44    42    43    1
    45    46    45    1
    46    46    47    2
    47    44    45    1
    48    64    65    2
    49    64    63    1
    50    52    53    1
    51    67    68    1
    52    67    66    1
    53    69    68   ar
    54    68    70   ar
    55    88    87    1
    56    63    66    1
    57    63    62    1
    58    54    53    1
    59    54    55    2
    60    56    53    1
    61    56    57    1
    62    58    57   ar
    63    58    60   ar
    64    57    59   ar
    65    87    89    1
    66    87    86    1
    67    60    61   ar
    68    86    83    1
    69    59    61   ar
    70    96    95   ar
    71    83    82    1
    72    83    84    1
    73    93    92    2
    74    95    97   ar
    75    95    94    1
    76    82    73   am
    77    85    84    2
    78    91    94    1
    79    91    92    1
    80    91    90    1
    81    78    80   ar
    82    78    76   ar
    83    80    81   ar
    84   144   143    1
    85   143   142    1
    86    73    72    1
    87    73    74    2
    88   126   125    1
    89    72    75    1
    90    72    71    1
    91    75    76    1
    92   135   134    1
    93    76    77   ar
    94   106   104   ar
    95   123   125   ar
    96   123   121   ar
    97   110   109    2
    98    81    79   ar
    99   142   141    1
   100   105   104   ar
   101   125   124   ar
   102   113   111    1
   103   111   112    1
   104   111   108    1
   105   104   103    1
   106   109   108    1
   107    77    79   ar
   108   134   133    1
   109   112   114    1
   110   121   120   ar
   111   108   107    1
   112   141   140    1
   113   107   100   am
   114   124   122   ar
   115   103   102    1
   116   133   132    1
   117   120   122   ar
   118   120   119    1
   119    99   100    1
   120    99   102    1
   121    99    98    1
   122   100   101    2
   123   140   137    1
   124   119   116    1
   125   132   131    1
   126   139   138    2
   127   137   138    1
   128   137   136    1
   129   131   128    1
   130   116   117    1
   131   116   115    1
   132   128   127    1
   133   128   129    1
   134   118   117    2
   135   130   129    2
