@<TRIPOS>MOLECULE
tmp/5wdeA00.pdb
 141 135 0 0 0
SMALL
GASTEIGER

@<TRIPOS>ATOM
      1  N         -5.2440   40.2640   53.8980 N.3     7  ARG7       -0.1231
      2  CA        -4.8710   40.2550   52.4910 C.3     7  ARG7        0.1694
      3  C         -6.1410   40.3840   51.6670 C.2     7  ARG7        0.2592
      4  O         -7.0530   39.5620   51.8010 O.2     7  ARG7       -0.2718
      5  CB        -4.1000   38.9890   52.1000 C.3     7  ARG7        0.0321
      6  CG        -3.6040   39.0780   50.6600 C.3     7  ARG7        0.0489
      7  CD        -2.8230   37.8420   50.2120 C.3     7  ARG7        0.2205
      8  NE        -2.1470   38.1090   48.9380 N.pl3   7  ARG7       -0.0865
      9  CZ        -1.3900   37.2230   48.3010 C.cat   7  ARG7        0.5346
     10  NH1       -1.2280   36.0070   48.8160 N.pl3   7  ARG7        0.1354
     11  NH2       -0.7930   37.5500   47.1580 N.pl3   7  ARG7        0.1354
     12  N         -6.2000   41.4230   50.8350 N.am    8  VAL8       -0.1966
     13  CA        -7.3090   41.6400   49.9100 C.3     8  VAL8        0.1727
     14  C         -6.9150   41.0270   48.5740 C.2     8  VAL8        0.2616
     15  O         -5.9610   41.4850   47.9380 O.2     8  VAL8       -0.2715
     16  CB        -7.6090   43.1410   49.7440 C.3     8  VAL8        0.0290
     17  CG1       -8.8470   43.3400   48.8860 C.3     8  VAL8        0.0023
     18  CG2       -7.7510   43.8250   51.0960 C.3     8  VAL8        0.0023
     19  N         -7.6370   40.0020   48.1400 N.am    9  ARG9       -0.1964
     20  CA        -7.3020   39.4030   46.8580 C.3     9  ARG9        0.1714
     21  C         -7.8220   40.2740   45.7210 C.2     9  ARG9        0.2458
     22  O         -8.7120   41.1050   45.9190 O.2     9  ARG9       -0.2730
     23  CB        -7.8860   37.9900   46.7550 C.3     9  ARG9        0.0347
     24  CG        -9.4010   37.9330   46.7330 C.3     9  ARG9        0.0492
     25  CD        -9.8800   36.6670   46.0180 C.3     9  ARG9        0.2205
     26  NE       -11.3210   36.4670   46.1490 N.pl3   9  ARG9       -0.0865
     27  CZ       -12.2370   37.1500   45.4690 C.cat   9  ARG9        0.5346
     28  NH1      -11.8650   38.0920   44.6070 N.pl3   9  ARG9        0.1354
     29  NH2      -13.5250   36.8990   45.6530 N.pl3   9  ARG9        0.1354
     30  N         -7.2640   40.1280   44.5220 N.am   10  PRO10      -0.2727
     31  CA        -7.8280   40.8250   43.3590 C.3    10  PRO10       0.1402
     32  C         -9.1650   40.2180   42.9590 C.2    10  PRO10       0.2269
     33  O         -9.5660   39.1510   43.4280 O.2    10  PRO10      -0.2865
     34  CB        -6.7730   40.6400   42.2640 C.3    10  PRO10       0.0296
     35  CG        -5.9240   39.5010   42.7200 C.3    10  PRO10       0.0237
     36  CD        -5.9930   39.4480   44.2150 C.3    10  PRO10       0.0939
     37  N        -11.8160   38.2120   40.9580 N.3    12  THR12      -0.1218
     38  CA       -11.7470   36.9320   40.2690 C.3    12  THR12       0.1862
     39  C        -12.9720   36.7630   39.3810 C.2    12  THR12       0.2287
     40  O        -13.9270   37.5440   39.4450 O.2    12  THR12      -0.2866
     41  CB       -11.6510   35.7630   41.2590 C.3    12  THR12       0.1770
     42  OG1      -12.7650   35.8070   42.1580 O.3    12  THR12      -0.2211
     43  CG2      -10.3630   35.8410   42.0580 C.3    12  THR12       0.0375
     44  N        -15.1880   34.5560   39.6570 N.3    14  GLU14      -0.1245
     45  CA       -16.3360   34.2910   40.5170 C.3    14  GLU14       0.1567
     46  C        -17.0240   35.5690   40.9820 C.2    14  GLU14       0.2260
     47  O        -18.2000   35.5220   41.3650 O.2    14  GLU14      -0.2867
     48  CB       -15.9020   33.4620   41.7300 C.3    14  GLU14       0.0388
     49  CG       -15.6220   31.9810   41.4610 C.3    14  GLU14       0.1160
     50  CD       -14.2300   31.7020   41.0260 C.2    14  GLU14       0.3649
     51  OE1      -13.4640   32.6460   40.8130 O.co2  14  GLU14      -0.2457
     52  OE2      -13.8860   30.5540   40.9130 O.co2  14  GLU14      -0.2457
     53  N         -4.7270   44.2060   46.7520 N.3    54  PRO54      -0.2116
     54  CA        -4.7260   43.2680   45.6160 C.3    54  PRO54       0.1372
     55  C         -3.4520   43.2860   44.7780 C.2    54  PRO54       0.2244
     56  O         -3.2780   42.3780   43.9560 O.2    54  PRO54      -0.2868
     57  CB        -5.9410   43.7140   44.7890 C.3    54  PRO54       0.0268
     58  CG        -6.8600   44.3160   45.7850 C.3    54  PRO54       0.0207
     59  CD        -5.9610   45.0200   46.7750 C.3    54  PRO54       0.0892
     60  N         -0.4110   43.0690   46.2250 N.3    56  ALA56      -0.1245
     61  CA         0.6430   42.4130   46.9910 C.3    56  ALA56       0.1562
     62  C          0.9900   41.0610   46.3730 C.2    56  ALA56       0.2260
     63  O          0.1060   40.2570   46.0690 O.2    56  ALA56      -0.2867
     64  CB         0.2110   42.2360   48.4450 C.3    56  ALA56       0.0290
     65  N        -14.8120   30.9850   51.9330 N.3    86  THR86      -0.1203
     66  CA       -14.4640   30.2330   50.7370 C.3    86  THR86       0.1994
     67  C        -14.4420   31.1670   49.5360 C.2    86  THR86       0.2618
     68  O        -15.3710   31.9500   49.3310 O.2    86  THR86      -0.2717
     69  CB       -15.4730   29.0960   50.5130 C.3    86  THR86       0.1784
     70  OG1      -15.4830   28.2330   51.6590 O.3    86  THR86      -0.2211
     71  CG2      -15.1040   28.2730   49.2900 C.3    86  THR86       0.0376
     72  N        -13.3650   31.0970   48.7560 N.am   87  GLY87      -0.1942
     73  CA       -13.1750   31.9730   47.6190 C.3    87  GLY87       0.2014
     74  C        -12.3330   33.2060   47.8980 C.2    87  GLY87       0.2639
     75  O        -11.9890   33.9220   46.9520 O.2    87  GLY87      -0.2714
     76  N        -11.9790   33.4690   49.1570 N.am   88  ALA88      -0.1963
     77  CA       -11.2620   34.6940   49.4860 C.3    88  ALA88       0.1728
     78  C         -9.7510   34.5810   49.2960 C.2    88  ALA88       0.2617
     79  O         -9.0660   35.6110   49.3430 O.2    88  ALA88      -0.2715
     80  CB       -11.5630   35.1140   50.9280 C.3    88  ALA88       0.0334
     81  N         -9.2150   33.3810   49.0970 N.am   89  GLY89      -0.1940
     82  CA        -7.8150   33.2100   48.7690 C.3    89  GLY89       0.2014
     83  C         -6.9330   32.5590   49.8250 C.2    89  GLY89       0.2639
     84  O         -5.7060   32.7480   49.7760 O.2    89  GLY89      -0.2714
     85  N         -7.5080   31.8000   50.7620 N.am   90  LYS90      -0.1963
     86  CA        -6.7060   31.1370   51.7860 C.3    90  LYS90       0.1728
     87  C         -5.7050   30.1770   51.1560 C.2    90  LYS90       0.2617
     88  O         -4.5020   30.2400   51.4380 O.2    90  LYS90      -0.2715
     89  CB        -7.6090   30.3830   52.7660 C.3    90  LYS90       0.0311
     90  CG        -8.6220   31.2600   53.5040 C.3    90  LYS90       0.0038
     91  CD        -9.4370   30.4250   54.4900 C.3    90  LYS90       0.0206
     92  CE       -10.3630   29.4260   53.7720 C.3    90  LYS90       0.1093
     93  NZ       -11.3760   30.1340   52.9130 N.3    90  LYS90      -0.1314
     94  N         -6.1870   29.2800   50.2940 N.am   91  THR91      -0.1937
     95  CA        -5.3050   28.2680   49.7200 C.3    91  THR91       0.2028
     96  C         -4.2920   28.9000   48.7730 C.2    91  THR91       0.2642
     97  O         -3.1240   28.4930   48.7450 O.2    91  THR91      -0.2714
     98  CB        -6.1360   27.1860   49.0160 C.3    91  THR91       0.1808
     99  OG1       -7.0400   26.5910   49.9600 O.3    91  THR91      -0.2208
    100  CG2       -5.2400   26.0880   48.4210 C.3    91  THR91       0.0379
    101  N         -4.7090   29.9110   48.0040 N.am   92  TYR92      -0.1959
    102  CA        -3.7510   30.6310   47.1730 C.3    92  TYR92       0.1771
    103  C         -2.6200   31.2060   48.0150 C.2    92  TYR92       0.2620
    104  O         -1.4510   31.1330   47.6290 O.2    92  TYR92      -0.2715
    105  CB        -4.4450   31.7530   46.3960 C.3    92  TYR92       0.0574
    106  CG        -3.5050   32.4880   45.4630 C.ar   92  TYR92      -0.0198
    107  CD1       -2.7560   33.5780   45.9070 C.ar   92  TYR92      -0.0009
    108  CD2       -3.3480   32.0820   44.1430 C.ar   92  TYR92      -0.0009
    109  CE1       -1.8860   34.2420   45.0650 C.ar   92  TYR92       0.0417
    110  CE2       -2.4790   32.7500   43.2870 C.ar   92  TYR92       0.0417
    111  CZ        -1.7560   33.8290   43.7540 C.ar   92  TYR92       0.1957
    112  OH        -0.8950   34.4970   42.9130 O.3    92  TYR92      -0.2866
    113  N         -2.9460   31.7850   49.1690 N.am   93  THR93      -0.1951
    114  CA        -1.9040   32.3490   50.0250 C.3    93  THR93       0.1897
    115  C         -1.0250   31.2560   50.6320 C.2    93  THR93       0.2313
    116  O          0.1990   31.4170   50.7280 O.2    93  THR93      -0.2863
    117  CB        -2.5470   33.2080   51.1160 C.3    93  THR93       0.1794
    118  OG1       -3.0180   34.4300   50.5300 O.3    93  THR93      -0.2208
    119  CG2       -1.5510   33.5400   52.2320 C.3    93  THR93       0.0378
    120  N          0.4170   28.5630   43.5300 N.3    97  THR97      -0.1218
    121  CA         0.4160   27.8080   42.2890 C.3    97  THR97       0.1862
    122  C          1.8560   27.5280   41.8910 C.2    97  THR97       0.2287
    123  O          2.8010   28.0160   42.5170 O.2    97  THR97      -0.2866
    124  CB        -0.2840   28.5730   41.1610 C.3    97  THR97       0.1770
    125  OG1        0.5020   29.7220   40.8320 O.3    97  THR97      -0.2211
    126  CG2       -1.6690   29.0260   41.5940 C.3    97  THR97       0.0375
    127  N        -13.0650   22.9060   51.6600 N.3   201  SER201     -0.1217
    128  CA       -13.5820   24.1540   52.2190 C.3   201  SER201      0.1889
    129  C        -14.2790   23.9720   53.5640 C.2   201  SER201      0.2288
    130  O        -14.5250   24.9720   54.2460 O.2   201  SER201     -0.2866
    131  CB       -14.5620   24.8100   51.2400 C.3   201  SER201      0.2089
    132  OG       -15.7050   23.9750   51.0650 O.3   201  SER201     -0.2183
    133  N         -8.1440   36.7310   54.8930 N.3   297  GLN297     -0.1245
    134  CA        -8.3850   36.9070   53.4630 C.3   297  GLN297      0.1566
    135  C         -9.7590   37.5170   53.2330 C.2   297  GLN297      0.2260
    136  O        -10.7460   37.0590   53.8190 O.2   297  GLN297     -0.2867
    137  CB        -8.3130   35.5610   52.7330 C.3   297  GLN297      0.0367
    138  CG        -6.9660   34.8520   52.8260 C.3   297  GLN297      0.0905
    139  CD        -5.9330   35.4370   51.8770 C.2   297  GLN297      0.2608
    140  OE1       -4.7360   35.4340   52.1700 O.2   297  GLN297     -0.2717
    141  NE2       -6.3920   35.9260   50.7200 N.am  297  GLN297     -0.0878
@<TRIPOS>BOND
     1    39    40    2
     2    39    38    1
     3    44    45    1
     4    38    37    1
     5    38    41    1
     6    45    46    1
     7    45    48    1
     8    51    50   ar
     9   125   124    1
    10    52    50   ar
    11    46    47    2
    12    50    49    1
    13   124   126    1
    14   124   121    1
    15    41    43    1
    16    41    42    1
    17    49    48    1
    18   122   121    1
    19   122   123    2
    20    34    35    1
    21    34    31    1
    22   121   120    1
    23    35    36    1
    24   112   111    1
    25    32    31    1
    26    32    33    2
    27   110   111   ar
    28   110   108   ar
    29    31    30    1
    30   111   109   ar
    31    56    55    2
    32   108   106   ar
    33    36    30    1
    34    30    21   am
    35    28    27    1
    36    55    54    1
    37    57    54    1
    38    57    58    1
    39   109   107   ar
    40   106   107   ar
    41   106   105    1
    42    27    29    1
    43    27    26    2
    44    54    53    1
    45    21    22    2
    46    21    20    1
    47    58    59    1
    48    25    26    1
    49    25    24    1
    50    63    62    2
    51    60    61    1
    52    62    61    1
    53   105   102    1
    54    24    23    1
    55    53    59    1
    56    23    20    1
    57    20    19    1
    58    75    74    2
    59    61    64    1
    60    11     9    1
    61   102   101    1
    62   102   103    1
    63    73    74    1
    64    73    72    1
    65   104   103    2
    66    74    76   am
    67    15    14    2
    68   101    96   am
    69   103   113   am
    70    19    14   am
    71     9    10    1
    72     9     8    2
    73   100    98    1
    74    14    13    1
    75    97    96    2
    76    72    67   am
    77    82    81    1
    78    82    83    1
    79    96    95    1
    80    17    16    1
    81     8     7    1
    82    98    95    1
    83    98    99    1
    84    81    78   am
    85    76    77    1
    86   113   114    1
    87    71    69    1
    88    78    79    2
    89    78    77    1
    90    68    67    2
    91    77    80    1
    92    67    66    1
    93    95    94    1
    94    16    13    1
    95    16    18    1
    96    84    83    2
    97    83    85   am
    98    13    12    1
    99   114   115    1
   100   114   117    1
   101     7     6    1
   102    94    87   am
   103    69    66    1
   104    69    70    1
   105   118   117    1
   106   115   116    2
   107     6     5    1
   108   141   139   am
   109    66    65    1
   110    85    86    1
   111    12     3   am
   112   132   131    1
   113   117   119    1
   114    87    88    2
   115    87    86    1
   116   131   128    1
   117   127   128    1
   118     3     4    2
   119     3     2    1
   120    86    89    1
   121   139   140    2
   122   139   138    1
   123     5     2    1
   124   128   129    1
   125     2     1    1
   126   137   138    1
   127   137   134    1
   128    89    90    1
   129    93    92    1
   130   135   134    1
   131   135   136    2
   132   134   133    1
   133    90    91    1
   134   129   130    2
   135    92    91    1
