@<TRIPOS>MOLECULE
tmp/5wdgB00.pdb
 180 175 0 0 0
SMALL
GASTEIGER

@<TRIPOS>ATOM
      1  N         -3.3850  -36.4280    2.6570 N.3    95  THR95      -0.1218
      2  CA        -4.7240  -36.9540    2.4020 C.3    95  THR95       0.1862
      3  C         -5.4200  -37.3360    3.7020 C.2    95  THR95       0.2287
      4  O         -6.6110  -37.0550    3.8840 O.2    95  THR95      -0.2866
      5  CB        -4.6530  -38.1550    1.4570 C.3    95  THR95       0.1770
      6  OG1       -4.2020  -37.7210    0.1680 O.3    95  THR95      -0.2211
      7  CG2       -6.0240  -38.8230    1.3120 C.3    95  THR95       0.0375
      8  N        -14.8660  -46.7430    1.2630 N.3   394  MET394     -0.1230
      9  CA       -15.6250  -45.9930    0.2710 C.3   394  MET394      0.1702
     10  C        -15.7090  -46.7830   -1.0270 C.2   394  MET394      0.2593
     11  O        -14.7040  -47.3220   -1.5010 O.2   394  MET394     -0.2718
     12  CB       -14.9900  -44.6250    0.0260 C.3   394  MET394      0.0401
     13  CG       -15.7600  -43.7520   -0.9410 C.3   394  MET394      0.0596
     14  SD       -17.5140  -43.5500   -0.5580 S.3   394  MET394     -0.1393
     15  CE       -17.4250  -42.7810    1.0530 C.3   394  MET394      0.0692
     16  N        -16.9060  -46.8330   -1.5950 N.am  395  GLY395     -0.1942
     17  CA       -17.1660  -47.6250   -2.7790 C.3   395  GLY395      0.2014
     18  C        -18.6500  -47.9240   -2.8810 C.2   395  GLY395      0.2640
     19  O        -19.4710  -47.3350   -2.1800 O.2   395  GLY395     -0.2714
     20  N        -18.9760  -48.8570   -3.7790 N.am  396  SER396     -0.1935
     21  CA       -20.3740  -49.2370   -3.9600 C.3   396  SER396      0.2055
     22  C        -20.9260  -49.9230   -2.7160 C.2   396  SER396      0.2643
     23  O        -22.0740  -49.6810   -2.3240 O.2   396  SER396     -0.2714
     24  CB       -20.5190  -50.1410   -5.1840 C.3   396  SER396      0.2130
     25  OG       -20.2320  -49.4270   -6.3740 O.3   396  SER396     -0.2179
     26  N        -20.1260  -50.7880   -2.0880 N.am  397  PHE397     -0.1973
     27  CA       -20.5170  -51.3980   -0.8190 C.3   397  PHE397      0.1639
     28  C        -20.9190  -50.3430    0.2040 C.2   397  PHE397      0.2290
     29  O        -21.8330  -50.5590    1.0080 O.2   397  PHE397     -0.2864
     30  CB       -19.3590  -52.2360   -0.2800 C.3   397  PHE397      0.0560
     31  CG       -18.1130  -51.4410   -0.0600 C.ar  397  PHE397     -0.0200
     32  CD1      -17.8470  -50.8710    1.1730 C.ar  397  PHE397     -0.0042
     33  CD2      -17.2200  -51.2370   -1.0970 C.ar  397  PHE397     -0.0042
     34  CE1      -16.7100  -50.1240    1.3660 C.ar  397  PHE397     -0.0003
     35  CE2      -16.0830  -50.4910   -0.9090 C.ar  397  PHE397     -0.0003
     36  CZ       -15.8260  -49.9340    0.3190 C.ar  397  PHE397     -0.0000
     37  N        -14.8330  -36.3610    2.1310 N.3   419  GLN419     -0.1231
     38  CA       -13.8110  -36.3930    1.0920 C.3   419  GLN419      0.1698
     39  C        -13.8830  -37.6550    0.2470 C.2   419  GLN419      0.2592
     40  O        -13.2630  -37.7000   -0.8210 O.2   419  GLN419     -0.2718
     41  CB       -12.4180  -36.2670    1.7100 C.3   419  GLN419      0.0381
     42  CG       -12.1300  -34.9050    2.3170 C.3   419  GLN419      0.0905
     43  CD       -12.0020  -33.8150    1.2650 C.2   419  GLN419      0.2608
     44  OE1      -11.8480  -34.0980    0.0770 O.2   419  GLN419     -0.2717
     45  NE2      -12.0580  -32.5630    1.7000 N.am  419  GLN419     -0.0878
     46  N        -14.6110  -38.6750    0.6990 N.am  420  GLN420     -0.1966
     47  CA       -14.7810  -39.9130   -0.0560 C.3   420  GLN420      0.1733
     48  C        -13.4520  -40.6360   -0.2620 C.2   420  GLN420      0.2617
     49  O        -13.2290  -41.2730   -1.2940 O.2   420  GLN420     -0.2715
     50  CB       -15.4620  -39.6380   -1.3980 C.3   420  GLN420      0.0408
     51  CG       -16.9230  -39.2400   -1.2700 C.3   420  GLN420      0.0908
     52  CD       -17.5130  -38.7470   -2.5750 C.2   420  GLN420      0.2608
     53  OE1      -16.7880  -38.3960   -3.5050 O.2   420  GLN420     -0.2717
     54  NE2      -18.8390  -38.7160   -2.6490 N.am  420  GLN420     -0.0878
     55  N        -12.5680  -40.5430    0.7280 N.am  421  THR421     -0.1937
     56  CA       -11.2670  -41.1920    0.6550 C.3   421  THR421      0.2028
     57  C        -11.4140  -42.7050    0.7590 C.2   421  THR421      0.2642
     58  O        -12.1180  -43.2110    1.6370 O.2   421  THR421     -0.2714
     59  CB       -10.3660  -40.6780    1.7760 C.3   421  THR421      0.1808
     60  OG1      -10.4300  -39.2480    1.8270 O.3   421  THR421     -0.2208
     61  CG2       -8.9250  -41.1120    1.5500 C.3   421  THR421      0.0379
     62  N        -10.7440  -43.4290   -0.1320 N.am  422  MET422     -0.1976
     63  CA       -10.6910  -44.8810   -0.0540 C.3   422  MET422      0.1605
     64  C         -9.4900  -45.3150    0.7790 C.2   422  MET422      0.2287
     65  O         -8.4890  -44.6010    0.8810 O.2   422  MET422     -0.2864
     66  CB       -10.6120  -45.5040   -1.4520 C.3   422  MET422      0.0413
     67  CG        -9.3350  -45.1780   -2.2140 C.3   422  MET422      0.0598
     68  SD        -9.4200  -45.5810   -3.9760 S.3   422  MET422     -0.1393
     69  CE        -9.4330  -47.3650   -3.9040 C.3   422  MET422      0.0692
     70  N        -13.7640  -52.3520   -0.3600 N.3   446  GLY446     -0.1210
     71  CA       -13.6550  -53.0310   -1.6320 C.3   446  GLY446      0.1956
     72  C        -12.2310  -53.4950   -1.8730 C.2   446  GLY446      0.2612
     73  O        -11.3300  -53.2810   -1.0650 O.2   446  GLY446     -0.2717
     74  N        -12.0300  -54.1510   -3.0170 N.am  447  ASP447     -0.1959
     75  CA       -10.6780  -54.5780   -3.3640 C.3   447  ASP447      0.1840
     76  C         -9.7930  -53.3910   -3.7210 C.2   447  ASP447      0.2623
     77  O         -8.5940  -53.4030   -3.4200 O.2   447  ASP447     -0.2715
     78  CB       -10.7050  -55.5970   -4.5070 C.3   447  ASP447      0.1450
     79  CG       -11.6970  -55.2410   -5.5930 C.2   447  ASP447      0.3671
     80  OD1      -11.9960  -54.0410   -5.7730 O.co2 447  ASP447     -0.2456
     81  OD2      -12.1760  -56.1710   -6.2720 O.co2 447  ASP447     -0.2456
     82  N        -10.3590  -52.3580   -4.3420 N.am  448  GLY448     -0.1940
     83  CA        -9.6140  -51.1470   -4.6200 C.3   448  GLY448      0.2014
     84  C         -9.1530  -50.4530   -3.3540 C.2   448  GLY448      0.2639
     85  O         -7.9540  -50.2320   -3.1570 O.2   448  GLY448     -0.2714
     86  N        -10.1030  -50.1030   -2.4840 N.am  449  GLY449     -0.1954
     87  CA        -9.7480  -49.4350   -1.2440 C.3   449  GLY449      0.1869
     88  C         -8.8860  -50.2890   -0.3370 C.2   449  GLY449      0.2309
     89  O         -8.0760  -49.7630    0.4310 O.2   449  GLY449     -0.2863
     90  N         -5.0170  -49.9720   -0.9010 N.3   452  GLN452     -0.1245
     91  CA        -4.3830  -48.6960   -0.6000 C.3   452  GLN452      0.1566
     92  C         -3.9240  -48.6090    0.8480 C.2   452  GLN452      0.2260
     93  O         -3.1120  -47.7370    1.1740 O.2   452  GLN452     -0.2867
     94  CB        -5.3290  -47.5390   -0.9280 C.3   452  GLN452      0.0367
     95  CG        -5.6080  -47.4040   -2.4190 C.3   452  GLN452      0.0905
     96  CD        -5.8900  -45.9770   -2.8500 C.2   452  GLN452      0.2608
     97  OE1       -6.0590  -45.0830   -2.0230 O.2   452  GLN452     -0.2717
     98  NE2       -5.9320  -45.7560   -4.1580 N.am  452  GLN452     -0.0878
     99  N        -15.3160  -56.7750   -0.3010 N.3   472  TRP472     -0.1241
    100  CA       -16.2370  -57.0210   -1.4050 C.3   472  TRP472      0.1605
    101  C        -15.4200  -57.0360   -2.6910 C.2   472  TRP472      0.2264
    102  O        -14.9480  -55.9880   -3.1450 O.2   472  TRP472     -0.2867
    103  CB       -17.3300  -55.9570   -1.4640 C.3   472  TRP472      0.0550
    104  CG       -18.2730  -55.9520   -0.2900 C.ar  472  TRP472      0.0003
    105  CD1      -17.9730  -56.2370    1.0120 C.ar  472  TRP472      0.0946
    106  CD2      -19.6730  -55.6490   -0.3200 C.ar  472  TRP472      0.0152
    107  NE1      -19.0990  -56.1260    1.7930 N.ar  472  TRP472     -0.2442
    108  CE2      -20.1560  -55.7660    1.0000 C.ar  472  TRP472      0.0810
    109  CE3      -20.5660  -55.2880   -1.3340 C.ar  472  TRP472      0.0012
    110  CZ2      -21.4900  -55.5360    1.3290 C.ar  472  TRP472      0.0191
    111  CZ3      -21.8890  -55.0600   -1.0040 C.ar  472  TRP472      0.0001
    112  CH2      -22.3390  -55.1850    0.3160 C.ar  472  TRP472      0.0015
    113  N        -14.7870  -57.4270   -6.5730 N.3   474  ASP474     -0.1239
    114  CA       -15.3090  -57.3860   -7.9290 C.3   474  ASP474      0.1674
    115  C        -14.2170  -57.1660   -8.9680 C.2   474  ASP474      0.2266
    116  O        -14.5260  -57.1130  -10.1640 O.2   474  ASP474     -0.2867
    117  CB       -16.3670  -56.2820   -8.0690 C.3   474  ASP474      0.1410
    118  CG       -15.7550  -54.9020   -8.1750 C.2   474  ASP474      0.3668
    119  OD1      -14.8130  -54.6060   -7.4110 O.co2 474  ASP474     -0.2456
    120  OD2      -16.2100  -54.1150   -9.0300 O.co2 474  ASP474     -0.2456
    121  N        -12.3760  -54.4790   -9.6240 N.3   476  GLY476     -0.1210
    122  CA       -12.5440  -53.2140  -10.3160 C.3   476  GLY476      0.1956
    123  C        -12.9280  -52.1160   -9.3490 C.2   476  GLY476      0.2612
    124  O        -13.1680  -52.3530   -8.1610 O.2   476  GLY476     -0.2717
    125  N        -12.9770  -50.8970   -9.8890 N.am  477  TYR477     -0.1962
    126  CA       -13.4350  -49.7190   -9.1560 C.3   477  TYR477      0.1771
    127  C        -14.9020  -49.4960   -9.5170 C.2   477  TYR477      0.2620
    128  O        -15.2450  -48.6540  -10.3460 O.2   477  TYR477     -0.2715
    129  CB       -12.5830  -48.5000   -9.5080 C.3   477  TYR477      0.0574
    130  CG       -11.1100  -48.5940   -9.1510 C.ar  477  TYR477     -0.0198
    131  CD1      -10.1300  -48.2590  -10.0780 C.ar  477  TYR477     -0.0009
    132  CD2      -10.7000  -48.9850   -7.8850 C.ar  477  TYR477     -0.0009
    133  CE1       -8.7850  -48.3260   -9.7580 C.ar  477  TYR477      0.0417
    134  CE2       -9.3610  -49.0520   -7.5530 C.ar  477  TYR477      0.0417
    135  CZ        -8.4060  -48.7220   -8.4920 C.ar  477  TYR477      0.1957
    136  OH        -7.0710  -48.7920   -8.1640 O.3   477  TYR477     -0.2866
    137  N        -15.7850  -50.2640   -8.8730 N.am  478  ASN478     -0.1958
    138  CA       -17.1730  -50.3200   -9.3280 C.3   478  ASN478      0.1819
    139  C        -17.8650  -48.9710   -9.1950 C.2   478  ASN478      0.2621
    140  O        -18.5260  -48.5090  -10.1320 O.2   478  ASN478     -0.2715
    141  CB       -17.9570  -51.3810   -8.5590 C.3   478  ASN478      0.1195
    142  CG       -19.3950  -51.4900   -9.0390 C.2   478  ASN478      0.2630
    143  OD1      -20.3000  -50.8770   -8.4730 O.2   478  ASN478     -0.2716
    144  ND2      -19.6050  -52.2470  -10.1120 N.am  478  ASN478     -0.0877
    145  N        -17.7400  -48.3250   -8.0320 N.am  479  MET479     -0.1963
    146  CA       -18.4760  -47.0850   -7.8100 C.3   479  MET479      0.1736
    147  C        -18.1900  -46.0640   -8.9030 C.2   479  MET479      0.2616
    148  O        -19.0570  -45.2450   -9.2300 O.2   479  MET479     -0.2715
    149  CB       -18.1380  -46.5030   -6.4370 C.3   479  MET479      0.0427
    150  CG       -19.1050  -45.4140   -5.9920 C.3   479  MET479      0.0599
    151  SD       -18.8970  -44.9060   -4.2730 S.3   479  MET479     -0.1393
    152  CE       -20.1840  -43.6680   -4.1410 C.3   479  MET479      0.0692
    153  N        -16.9890  -46.1010   -9.4820 N.am  480  VAL480     -0.1977
    154  CA       -16.6740  -45.2380  -10.6150 C.3   480  VAL480      0.1596
    155  C        -17.2500  -45.8120  -11.9040 C.2   480  VAL480      0.2287
    156  O        -17.7810  -45.0750  -12.7420 O.2   480  VAL480     -0.2864
    157  CB       -15.1500  -45.0390  -10.7150 C.3   480  VAL480      0.0276
    158  CG1      -14.7990  -44.1390  -11.8930 C.3   480  VAL480      0.0022
    159  CG2      -14.5990  -44.4620   -9.4210 C.3   480  VAL480      0.0022
    160  N        -20.8490  -45.0090  -12.7260 N.3   483  GLN483     -0.1245
    161  CA       -21.0270  -43.6460  -13.2160 C.3   483  GLN483      0.1566
    162  C        -20.6730  -43.5390  -14.6920 C.2   483  GLN483      0.2260
    163  O        -21.3600  -42.8460  -15.4520 O.2   483  GLN483     -0.2867
    164  CB       -20.1800  -42.6740  -12.3950 C.3   483  GLN483      0.0367
    165  CG       -20.6910  -42.4540  -10.9840 C.3   483  GLN483      0.0905
    166  CD       -22.1180  -41.9460  -10.9620 C.2   483  GLN483      0.2608
    167  OE1      -22.9900  -42.5360  -10.3240 O.2   483  GLN483     -0.2717
    168  NE2      -22.3660  -40.8480  -11.6680 N.am  483  GLN483     -0.0878
    169  N        -22.4570  -56.8880   -8.5890 N.3   543  TYR543     -0.1241
    170  CA       -22.9580  -55.5190   -8.5730 C.3   543  TYR543      0.1605
    171  C        -23.9400  -55.2240   -9.7070 C.2   543  TYR543      0.2264
    172  O        -24.2050  -54.0510   -9.9920 O.2   543  TYR543     -0.2867
    173  CB       -21.7870  -54.5320   -8.6400 C.3   543  TYR543      0.0534
    174  CG       -21.0490  -54.3050   -7.3340 C.ar  543  TYR543     -0.0201
    175  CD1      -19.6700  -54.1340   -7.3180 C.ar  543  TYR543     -0.0009
    176  CD2      -21.7290  -54.2360   -6.1230 C.ar  543  TYR543     -0.0009
    177  CE1      -18.9880  -53.9130   -6.1350 C.ar  543  TYR543      0.0417
    178  CE2      -21.0550  -54.0160   -4.9360 C.ar  543  TYR543      0.0417
    179  CZ       -19.6860  -53.8550   -4.9480 C.ar  543  TYR543      0.1957
    180  OH       -19.0140  -53.6350   -3.7680 O.3   543  TYR543     -0.2866
@<TRIPOS>BOND
     1   163   162    2
     2   162   161    1
     3   161   160    1
     4   161   164    1
     5   156   155    2
     6   164   165    1
     7   155   154    1
     8   158   157    1
     9   168   166   am
    10   165   166    1
    11   166   167    2
    12   157   154    1
    13   157   159    1
    14   154   153    1
    15   128   127    2
    16   122   121    1
    17   122   123    1
    18   116   115    2
    19   140   139    2
    20   144   142   am
    21   131   133   ar
    22   131   130   ar
    23   172   171    2
    24   125   123   am
    25   125   126    1
    26   133   135   ar
    27   171   170    1
    28   127   126    1
    29   127   137   am
    30   129   126    1
    31   129   130    1
    32   153   147   am
    33   123   124    2
    34   138   139    1
    35   138   137    1
    36   138   141    1
    37   148   147    2
    38   139   145   am
    39   130   132   ar
    40   142   141    1
    41   142   143    2
    42   120   118   ar
    43   115   114    1
    44   147   146    1
    45   173   170    1
    46   173   174    1
    47   169   170    1
    48   135   136    1
    49   135   134   ar
    50   118   117    1
    51   118   119   ar
    52   117   114    1
    53   145   146    1
    54   114   113    1
    55   132   134   ar
    56   146   149    1
    57   174   175   ar
    58   174   176   ar
    59   175   177   ar
    60   149   150    1
    61    25    24    1
    62    81    79   ar
    63   177   179   ar
    64   176   178   ar
    65   150   151    1
    66    80    79   ar
    67    79    78    1
    68    24    21    1
    69   179   178   ar
    70   179   180    1
    71    83    82    1
    72    83    84    1
    73    78    75    1
    74    82    76   am
    75   151   152    1
    76    98    96   am
    77    68    69    1
    78    68    67    1
    79    21    20    1
    80    21    22    1
    81    20    18   am
    82    76    77    2
    83    76    75    1
    84    53    52    2
    85    75    74    1
    86    84    85    2
    87    84    86   am
    88   102   101    2
    89    74    72   am
    90    18    17    1
    91    18    19    2
    92    96    95    1
    93    96    97    2
    94    17    16    1
    95    22    23    2
    96    22    26   am
    97   101   100    1
    98    54    52   am
    99    52    51    1
   100    86    87    1
   101    95    94    1
   102    67    66    1
   103    26    27    1
   104    72    71    1
   105    72    73    2
   106    71    70    1
   107    16    10   am
   108    11    10    2
   109   103   100    1
   110   103   104    1
   111    66    63    1
   112   100    99    1
   113    50    51    1
   114    50    47    1
   115   109   111   ar
   116   109   106   ar
   117    49    48    2
   118    87    88    1
   119    33    35   ar
   120    33    31   ar
   121    10     9    1
   122   111   112   ar
   123    13    14    1
   124    13    12    1
   125    94    91    1
   126    35    36   ar
   127    90    91    1
   128    40    39    2
   129    27    30    1
   130    27    28    1
   131    91    92    1
   132    14    15    1
   133    88    89    2
   134   106   104   ar
   135   106   108   ar
   136   104   105   ar
   137    30    31    1
   138    48    47    1
   139    48    55   am
   140    62    63    1
   141    62    57   am
   142    31    32   ar
   143    47    46    1
   144    63    64    1
   145    12     9    1
   146    44    43    2
   147     6     5    1
   148    28    29    2
   149    39    46   am
   150    39    38    1
   151     9     8    1
   152   112   110   ar
   153    36    34   ar
   154    56    55    1
   155    56    57    1
   156    56    59    1
   157    57    58    2
   158    64    65    2
   159    92    93    2
   160   108   110   ar
   161   108   107   ar
   162   105   107   ar
   163    38    41    1
   164    38    37    1
   165    32    34   ar
   166    43    45   am
   167    43    42    1
   168     7     5    1
   169     5     2    1
   170    61    59    1
   171    41    42    1
   172    59    60    1
   173     2     1    1
   174     2     3    1
   175     3     4    2
