@<TRIPOS>MOLECULE
tmp/5wdhA00.pdb
 126 122 0 0 0
SMALL
GASTEIGER

@<TRIPOS>ATOM
      1  N         41.7840   21.0160  105.7580 N.3     8  ARG8       -0.1231
      2  CA        41.8670   20.8640  107.2060 C.3     8  ARG8        0.1694
      3  C         41.0510   21.9560  107.8880 C.2     8  ARG8        0.2592
      4  O         41.3160   23.1480  107.6940 O.2     8  ARG8       -0.2718
      5  CB        43.3160   20.9040  107.6970 C.3     8  ARG8        0.0321
      6  CG        43.4050   20.5330  109.1820 C.3     8  ARG8        0.0489
      7  CD        44.8240   20.3330  109.6640 C.3     8  ARG8        0.2205
      8  NE        44.8430   19.5410  110.8920 N.pl3   8  ARG8       -0.0865
      9  CZ        45.9040   19.3900  111.6760 C.cat   8  ARG8        0.5346
     10  NH1       47.0460   19.9870  111.3790 N.pl3   8  ARG8        0.1354
     11  NH2       45.8210   18.6340  112.7560 N.pl3   8  ARG8        0.1354
     12  N         40.0670   21.5470  108.6830 N.am    9  VAL9       -0.1966
     13  CA        39.2520   22.4460  109.4910 C.3     9  VAL9        0.1727
     14  C         39.7090   22.3150  110.9450 C.2     9  VAL9        0.2616
     15  O         39.6420   21.2280  111.5300 O.2     9  VAL9       -0.2715
     16  CB        37.7580   22.1180  109.3400 C.3     9  VAL9        0.0290
     17  CG1       36.9040   23.0120  110.2390 C.3     9  VAL9        0.0023
     18  CG2       37.3290   22.2430  107.8640 C.3     9  VAL9        0.0023
     19  N         40.1760   23.4070  111.5370 N.am   10  ARG10      -0.1964
     20  CA        40.6770   23.3380  112.8970 C.3    10  ARG10       0.1714
     21  C         39.5220   23.3530  113.8990 C.2    10  ARG10       0.2458
     22  O         38.4020   23.7550  113.5640 O.2    10  ARG10      -0.2730
     23  CB        41.6320   24.4950  113.1580 C.3    10  ARG10       0.0347
     24  CG        40.9920   25.8610  113.2750 C.3    10  ARG10       0.0492
     25  CD        41.8990   26.7220  114.1230 C.3    10  ARG10       0.2205
     26  NE        41.6270   28.1520  114.0590 N.pl3  10  ARG10      -0.0865
     27  CZ        40.6850   28.7740  114.7580 C.cat  10  ARG10       0.5346
     28  NH1       40.5410   30.0870  114.6430 N.pl3  10  ARG10       0.1354
     29  NH2       39.8770   28.0850  115.5540 N.pl3  10  ARG10       0.1354
     30  N         39.7560   22.9020  115.1360 N.am   11  PRO11      -0.2727
     31  CA        38.6920   22.9660  116.1490 C.3    11  PRO11       0.1402
     32  C         38.3630   24.4040  116.5200 C.2    11  PRO11       0.2269
     33  O         39.1690   25.3240  116.3490 O.2    11  PRO11      -0.2865
     34  CB        39.2750   22.2140  117.3580 C.3    11  PRO11       0.0296
     35  CG        40.4650   21.4830  116.8530 C.3    11  PRO11       0.0237
     36  CD        40.9650   22.2330  115.6450 C.3    11  PRO11       0.0939
     37  N         38.1790   27.0420  119.2840 N.3    13  LEU13      -0.1245
     38  CA        39.0400   27.2650  120.4320 C.3    13  LEU13       0.1561
     39  C         38.3180   28.0940  121.4870 C.2    13  LEU13       0.2260
     40  O         37.3220   28.7600  121.1910 O.2    13  LEU13      -0.2867
     41  CB        40.3290   27.9800  119.9950 C.3    13  LEU13       0.0270
     42  CG        41.0770   27.3740  118.7920 C.3    13  LEU13       0.0019
     43  CD1       42.1710   28.3210  118.2930 C.3    13  LEU13       0.0001
     44  CD2       41.6560   25.9980  119.1170 C.3    13  LEU13       0.0001
     45  N         37.7970   18.5590  112.4310 N.3    52  PRO52      -0.2116
     46  CA        38.4600   19.1890  113.5930 C.3    52  PRO52       0.1372
     47  C         39.1000   18.2260  114.5810 C.2    52  PRO52       0.2244
     48  O         40.1040   18.5880  115.2080 O.2    52  PRO52      -0.2868
     49  CB        37.3190   19.9790  114.2630 C.3    52  PRO52       0.0268
     50  CG        36.0560   19.4380  113.6860 C.3    52  PRO52       0.0207
     51  CD        36.4190   19.0570  112.2680 C.3    52  PRO52       0.0892
     52  N         40.8510   15.7120  113.9490 N.3    54  SER54      -0.1217
     53  CA        42.0130   15.0530  113.3700 C.3    54  SER54       0.1889
     54  C         43.2690   15.4020  114.1690 C.2    54  SER54       0.2288
     55  O         43.5180   16.5730  114.4890 O.2    54  SER54      -0.2866
     56  CB        42.1760   15.4560  111.8980 C.3    54  SER54       0.2089
     57  OG        42.6180   16.7510  111.7690 O.3    54  SER54      -0.2183
     58  N         44.8020   33.9420  107.8920 N.3    84  THR84      -0.1203
     59  CA        45.4190   34.0070  109.2060 C.3    84  THR84       0.1994
     60  C         44.4620   33.4590  110.2600 C.2    84  THR84       0.2618
     61  O         43.2560   33.6960  110.2000 O.2    84  THR84      -0.2717
     62  CB        45.7980   35.4530  109.5390 C.3    84  THR84       0.1784
     63  OG1       46.6480   35.9770  108.5120 O.3    84  THR84      -0.2211
     64  CG2       46.5350   35.5080  110.8590 C.3    84  THR84       0.0376
     65  N         45.0060   32.6980  111.2130 N.am   85  GLY85      -0.1942
     66  CA        44.2260   32.0870  112.2780 C.3    85  GLY85       0.2014
     67  C         43.5720   30.7690  111.9200 C.2    85  GLY85       0.2640
     68  O         42.9020   30.1860  112.7760 O.2    85  GLY85      -0.2714
     69  N         43.7440   30.2750  110.6830 N.am   86  SER86      -0.1935
     70  CA        43.1150   29.0360  110.2230 C.3    86  SER86       0.2055
     71  C         43.9180   27.7790  110.5510 C.2    86  SER86       0.2644
     72  O         43.3540   26.6760  110.5180 O.2    86  SER86      -0.2714
     73  CB        42.8810   29.0880  108.6990 C.3    86  SER86       0.2130
     74  OG        44.0830   29.3950  108.0170 O.3    86  SER86      -0.2179
     75  N         45.2170   27.9060  110.8180 N.am   87  GLY87      -0.1939
     76  CA        46.0050   26.7740  111.2700 C.3    87  GLY87       0.2014
     77  C         47.1730   26.3740  110.3870 C.2    87  GLY87       0.2639
     78  O         47.6320   25.2280  110.4560 O.2    87  GLY87      -0.2714
     79  N         47.6660   27.3010  109.5580 N.am   88  LYS88      -0.1963
     80  CA        48.8070   26.9860  108.6970 C.3    88  LYS88       0.1728
     81  C         50.0330   26.6340  109.5260 C.2    88  LYS88       0.2617
     82  O         50.7220   25.6410  109.2540 O.2    88  LYS88      -0.2715
     83  CB        49.1410   28.1660  107.7740 C.3    88  LYS88       0.0311
     84  CG        48.0960   28.5130  106.7360 C.3    88  LYS88       0.0038
     85  CD        48.5400   29.7330  105.9330 C.3    88  LYS88       0.0206
     86  CE        48.9010   30.8950  106.8690 C.3    88  LYS88       0.1093
     87  NZ        47.7120   31.5670  107.4520 N.3    88  LYS88      -0.1314
     88  N         50.3470   27.4680  110.5230 N.am   89  THR89      -0.1937
     89  CA        51.5700   27.2540  111.2880 C.3    89  THR89       0.2028
     90  C         51.4370   26.0380  112.1950 C.2    89  THR89       0.2642
     91  O         52.3900   25.2650  112.3460 O.2    89  THR89      -0.2714
     92  CB        51.9210   28.5040  112.0920 C.3    89  THR89       0.1808
     93  OG1       51.9840   29.6290  111.2120 O.3    89  THR89      -0.2208
     94  CG2       53.2780   28.3440  112.7640 C.3    89  THR89       0.0379
     95  N         50.2530   25.8310  112.7750 N.am   90  PHE90      -0.1959
     96  CA        50.0300   24.6270  113.5660 C.3    90  PHE90       0.1771
     97  C         50.2420   23.3710  112.7310 C.2    90  PHE90       0.2620
     98  O         50.8290   22.3920  113.2060 O.2    90  PHE90      -0.2715
     99  CB        48.6270   24.6500  114.1650 C.3    90  PHE90       0.0574
    100  CG        48.3410   23.5010  115.0780 C.ar   90  PHE90      -0.0200
    101  CD1       48.7550   23.5320  116.3990 C.ar   90  PHE90      -0.0042
    102  CD2       47.6560   22.3900  114.6190 C.ar   90  PHE90      -0.0042
    103  CE1       48.4810   22.4790  117.2460 C.ar   90  PHE90      -0.0003
    104  CE2       47.3920   21.3260  115.4640 C.ar   90  PHE90      -0.0003
    105  CZ        47.8060   21.3730  116.7750 C.ar   90  PHE90      -0.0000
    106  N         49.7920   23.3890  111.4760 N.am   91  THR91      -0.1951
    107  CA        49.9460   22.2190  110.6140 C.3    91  THR91       0.1897
    108  C         51.4060   21.9870  110.2310 C.2    91  THR91       0.2313
    109  O         51.8840   20.8450  110.2460 O.2    91  THR91      -0.2863
    110  CB        49.0780   22.4010  109.3770 C.3    91  THR91       0.1794
    111  OG1       47.7070   22.4780  109.7800 O.3    91  THR91      -0.2208
    112  CG2       49.2680   21.2500  108.3770 C.3    91  THR91       0.0378
    113  N         51.4790   17.4200  119.4490 N.3   102  LEU102     -0.1245
    114  CA        51.1510   18.6400  118.7280 C.3   102  LEU102      0.1561
    115  C         52.2250   19.0230  117.7020 C.2   102  LEU102      0.2260
    116  O         52.1130   20.0720  117.0640 O.2   102  LEU102     -0.2867
    117  CB        50.8920   19.7840  119.7320 C.3   102  LEU102      0.0270
    118  CG        49.8160   19.4820  120.8040 C.3   102  LEU102      0.0019
    119  CD1       49.7270   20.5510  121.9170 C.3   102  LEU102      0.0001
    120  CD2       48.4430   19.2490  120.1870 C.3   102  LEU102      0.0001
    121  N         52.4060   36.7320  109.7570 N.3   194  SER194     -0.1217
    122  CA        51.1400   36.4500  109.0860 C.3   194  SER194      0.1889
    123  C         51.1440   36.9480  107.6400 C.2   194  SER194      0.2288
    124  O         50.3760   36.4510  106.8060 O.2   194  SER194     -0.2866
    125  CB        49.9930   37.0980  109.8500 C.3   194  SER194      0.2089
    126  OG        50.1530   38.5020  109.8350 O.3   194  SER194     -0.2183
@<TRIPOS>BOND
     1     1     2    1
     2    85    84    1
     3    85    86    1
     4    84    83    1
     5   124   123    2
     6    86    87    1
     7     2     5    1
     8     2     3    1
     9   123   122    1
    10     4     3    2
    11     5     6    1
    12    83    80    1
    13    18    16    1
    14     3    12   am
    15    58    59    1
    16    74    73    1
    17   112   110    1
    18    63    62    1
    19    12    13    1
    20    80    81    1
    21    80    79    1
    22    73    70    1
    23   122   121    1
    24   122   125    1
    25     6     7    1
    26    59    62    1
    27    59    60    1
    28    82    81    2
    29    16    13    1
    30    16    17    1
    31   110   111    1
    32   110   107    1
    33    13    14    1
    34    81    88   am
    35    62    64    1
    36    79    77   am
    37     7     8    1
    38   126   125    1
    39    61    60    2
    40    70    71    1
    41    70    69    1
    42   108   109    2
    43   108   107    1
    44    60    65   am
    45    77    78    2
    46    77    76    1
    47    72    71    2
    48    88    89    1
    49    71    75   am
    50   107   106    1
    51    69    67   am
    52    75    76    1
    53     8     9    2
    54    14    15    2
    55    14    19   am
    56    93    92    1
    57    65    66    1
    58    89    92    1
    59    89    90    1
    60    10     9    1
    61   106    97   am
    62    19    20    1
    63     9    11    1
    64    57    56    1
    65    56    53    1
    66    67    66    1
    67    67    68    2
    68    92    94    1
    69    90    91    2
    70    90    95   am
    71    51    45    1
    72    51    50    1
    73    45    46    1
    74    97    98    2
    75    97    96    1
    76    95    96    1
    77    20    23    1
    78    20    21    1
    79    23    24    1
    80    24    25    1
    81    53    52    1
    82    53    54    1
    83    22    21    2
    84    96    99    1
    85    46    49    1
    86    46    47    1
    87    50    49    1
    88    21    30   am
    89    26    25    1
    90    26    27    2
    91    99   100    1
    92    54    55    2
    93    47    48    2
    94   102   100   ar
    95   102   104   ar
    96    28    27    1
    97    27    29    1
    98   100   101   ar
    99    30    36    1
   100    30    31    1
   101   104   105   ar
   102    36    35    1
   103    31    32    1
   104    31    34    1
   105    33    32    2
   106   101   103   ar
   107   105   103   ar
   108    35    34    1
   109   116   115    2
   110   115   114    1
   111    43    42    1
   112   114   113    1
   113   114   117    1
   114    42    44    1
   115    42    41    1
   116    37    38    1
   117   117   118    1
   118    41    38    1
   119   120   118    1
   120    38    39    1
   121   118   119    1
   122    40    39    2
