@<TRIPOS>MOLECULE
tmp/5wdkF00.pdb
 117 115 0 0 0
SMALL
GASTEIGER

@<TRIPOS>ATOM
      1  N         48.2830   24.5040  -38.4800 N.3    19  GLN19      -0.1231
      2  CA        47.9690   23.0820  -38.5000 C.3    19  GLN19       0.1698
      3  C         46.6790   22.7890  -39.2590 C.2    19  GLN19       0.2592
      4  O         46.4610   21.6350  -39.6570 O.2    19  GLN19      -0.2718
      5  CB        47.8380   22.5620  -37.0660 C.3    19  GLN19       0.0381
      6  CG        46.5390   23.0270  -36.4130 C.3    19  GLN19       0.0905
      7  CD        46.4750   22.7300  -34.9410 C.2    19  GLN19       0.2608
      8  OE1       47.0990   23.4140  -34.1450 O.2    19  GLN19      -0.2717
      9  NE2       45.7120   21.6970  -34.5660 N.am   19  GLN19      -0.0878
     10  N         45.8180   23.7990  -39.4440 N.am   20  ASN20      -0.1960
     11  CA        44.5260   23.7330  -40.1770 C.3    20  ASN20       0.1819
     12  C         43.6760   22.5680  -39.6470 C.2    20  ASN20       0.2621
     13  O         43.4610   22.4610  -38.4300 O.2    20  ASN20      -0.2715
     14  CB        44.8030   23.7120  -41.6760 C.3    20  ASN20       0.1195
     15  CG        43.5500   24.0330  -42.4960 C.2    20  ASN20       0.2630
     16  OD1       42.8030   24.9500  -42.1550 O.2    20  ASN20      -0.2716
     17  ND2       43.2940   23.2510  -43.5550 N.am   20  ASN20      -0.0877
     18  N         43.1600   21.6770  -40.5020 N.am   21  ARG21      -0.1963
     19  CA        42.0990   20.7510  -40.0890 C.3    21  ARG21       0.1729
     20  C         42.6660   19.3850  -39.6980 C.2    21  ARG21       0.2616
     21  O         42.4060   18.3520  -40.3240 O.2    21  ARG21      -0.2715
     22  CB        41.0500   20.6380  -41.1820 C.3    21  ARG21       0.0348
     23  CG        40.5260   22.0060  -41.6000 C.3    21  ARG21       0.0492
     24  CD        39.4610   21.9120  -42.6750 C.3    21  ARG21       0.2205
     25  NE        39.0000   23.2490  -43.0360 N.pl3  21  ARG21      -0.0865
     26  CZ        37.7590   23.6810  -42.8640 C.cat  21  ARG21       0.5346
     27  NH1       36.8450   22.8690  -42.3370 N.pl3  21  ARG21       0.1354
     28  NH2       37.4320   24.9220  -43.2230 N.pl3  21  ARG21       0.1354
     29  N         43.4290   19.3990  -38.6030 N.am   22  ALA22      -0.1963
     30  CA        43.9740   18.1790  -38.0170 C.3    22  ALA22       0.1728
     31  C         44.3450   18.4640  -36.5610 C.2    22  ALA22       0.2616
     32  O         44.7060   19.5900  -36.2140 O.2    22  ALA22      -0.2715
     33  CB        45.1940   17.6730  -38.8100 C.3    22  ALA22       0.0334
     34  N         44.2590   17.4300  -35.7170 N.am   23  GLY23      -0.1955
     35  CA        44.5400   17.5680  -34.3040 C.3    23  GLY23       0.1869
     36  C         46.0200   17.4620  -33.9620 C.2    23  GLY23       0.2309
     37  O         46.3930   16.7730  -33.0110 O.2    23  GLY23      -0.2863
     38  N         48.2980   19.7260  -32.9300 N.3    25  CYS25      -0.1221
     39  CA        48.8790   20.8380  -32.1790 C.3    25  CYS25       0.1808
     40  C         50.1070   20.3990  -31.4020 C.2    25  CYS25       0.2601
     41  O         51.0920   21.1440  -31.3130 O.2    25  CYS25      -0.2717
     42  CB        47.8470   21.4150  -31.2190 C.3    25  CYS25       0.0970
     43  SG        47.2670   20.1940  -30.0280 S.3    25  CYS25      -0.0800
     44  N         50.0480   19.1960  -30.8250 N.am   26  TRP26      -0.1976
     45  CA        51.1550   18.6550  -30.0450 C.3    26  TRP26       0.1640
     46  C         52.4670   18.7070  -30.8070 C.2    26  TRP26       0.2290
     47  O         53.5110   19.0600  -30.2370 O.2    26  TRP26      -0.2864
     48  CB        50.8440   17.2100  -29.6300 C.3    26  TRP26       0.0576
     49  CG        50.5060   16.3040  -30.7740 C.ar   26  TRP26       0.0006
     50  CD1       49.2710   16.1190  -31.3490 C.ar   26  TRP26       0.0946
     51  CD2       51.4080   15.4390  -31.4840 C.ar   26  TRP26       0.0152
     52  NE1       49.3570   15.1910  -32.3740 N.ar   26  TRP26      -0.2442
     53  CE2       50.6570   14.7610  -32.4700 C.ar   26  TRP26       0.0810
     54  CE3       52.7780   15.1700  -31.3770 C.ar   26  TRP26       0.0012
     55  CZ2       51.2380   13.8390  -33.3490 C.ar   26  TRP26       0.0191
     56  CZ3       53.3500   14.2540  -32.2510 C.ar   26  TRP26       0.0001
     57  CH2       52.5820   13.6050  -33.2210 C.ar   26  TRP26       0.0015
     58  N         43.9090   11.7040  -33.3770 N.3    76  GLN76      -0.1231
     59  CA        44.8990   12.5600  -34.0180 C.3    76  GLN76       0.1698
     60  C         45.8620   13.2020  -33.0330 C.2    76  GLN76       0.2592
     61  O         46.9370   13.6570  -33.4490 O.2    76  GLN76      -0.2718
     62  CB        44.1970   13.6570  -34.8200 C.3    76  GLN76       0.0381
     63  CG        43.2820   13.1070  -35.8920 C.3    76  GLN76       0.0905
     64  CD        42.6460   14.1970  -36.7260 C.2    76  GLN76       0.2608
     65  OE1       42.7150   15.3730  -36.3780 O.2    76  GLN76      -0.2717
     66  NE2       42.0400   13.8130  -37.8430 N.am   76  GLN76      -0.0878
     67  N         45.4980   13.2670  -31.7550 N.am   77  GLY77      -0.1957
     68  CA        46.3130   13.9580  -30.7810 C.3    77  GLY77       0.1869
     69  C         47.6220   13.2460  -30.4460 C.2    77  GLY77       0.2309
     70  O         48.0560   12.2880  -31.0930 O.2    77  GLY77      -0.2863
     71  N         44.3140   18.4860  -44.0700 N.3   110  ASN110     -0.1240
     72  CA        42.9430   18.1390  -43.7880 C.3   110  ASN110      0.1653
     73  C         43.0430   16.6480  -43.6340 C.2   110  ASN110      0.2266
     74  O         43.1960   15.9450  -44.5770 O.2   110  ASN110     -0.2867
     75  CB        41.9340   18.5300  -44.8340 C.3   110  ASN110      0.1155
     76  CG        40.5150   18.3200  -44.3590 C.2   110  ASN110      0.2627
     77  OD1       39.5910   18.8350  -44.9360 O.2   110  ASN110     -0.2716
     78  ND2       40.3470   17.5630  -43.3150 N.am  110  ASN110     -0.0877
     79  N         40.7240   14.6820  -42.0900 N.3   112  THR112     -0.1218
     80  CA        39.4380   14.0820  -41.7390 C.3   112  THR112      0.1862
     81  C         39.2310   12.7470  -42.4470 C.2   112  THR112      0.2287
     82  O         38.8910   11.7380  -41.8120 O.2   112  THR112     -0.2866
     83  CB        38.3050   15.0510  -42.0650 C.3   112  THR112      0.1770
     84  OG1       38.6730   16.3550  -41.5980 O.3   112  THR112     -0.2211
     85  CG2       36.9810   14.6180  -41.4120 C.3   112  THR112      0.0375
     86  N         43.6520   19.6480  -23.7150 N.3   308  ASP308     -0.1225
     87  CA        43.0240   20.1890  -24.9070 C.3   308  ASP308      0.1805
     88  C         44.0010   20.5960  -26.0000 C.2   308  ASP308      0.2597
     89  O         43.7380   20.3220  -27.1820 O.2   308  ASP308     -0.2718
     90  CB        42.1590   21.3900  -24.5310 C.3   308  ASP308      0.1424
     91  CG        40.8920   20.9800  -23.8290 C.2   308  ASP308      0.3668
     92  OD1       40.8040   19.8250  -23.3390 O.co2 308  ASP308     -0.2456
     93  OD2       39.9750   21.8120  -23.7890 O.co2 308  ASP308     -0.2456
     94  N         45.1140   21.2460  -25.6620 N.am  309  HIS309     -0.1975
     95  CA        45.8120   21.9650  -26.7160 C.3   309  HIS309      0.1656
     96  C         47.2510   22.2230  -26.3030 C.2   309  HIS309      0.2291
     97  O         47.5220   22.5320  -25.1390 O.2   309  HIS309     -0.2864
     98  CB        45.0720   23.2750  -27.0240 C.3   309  HIS309      0.0771
     99  CG        45.5270   23.9520  -28.2740 C.ar  309  HIS309      0.0820
    100  ND1       45.9150   23.2610  -29.3990 N.ar  309  HIS309     -0.2267
    101  CD2       45.6800   25.2650  -28.5660 C.ar  309  HIS309      0.1154
    102  CE1       46.2790   24.1190  -30.3360 C.ar  309  HIS309      0.1986
    103  NE2       46.1480   25.3420  -29.8550 N.ar  309  HIS309     -0.2212
    104  N         47.5000   28.2130  -35.5280 N.3   332  TRP332     -0.1241
    105  CA        46.2950   28.2940  -36.3420 C.3   332  TRP332      0.1605
    106  C         46.3970   29.3330  -37.4440 C.2   332  TRP332      0.2264
    107  O         45.3610   29.8390  -37.8950 O.2   332  TRP332     -0.2867
    108  CB        45.0740   28.6090  -35.4650 C.3   332  TRP332      0.0550
    109  CG        44.7620   27.5330  -34.4830 C.ar  332  TRP332      0.0003
    110  CD1       45.2110   26.2570  -34.5430 C.ar  332  TRP332      0.0946
    111  CD2       43.9570   27.6330  -33.3120 C.ar  332  TRP332      0.0152
    112  NE1       44.7240   25.5400  -33.4880 N.ar  332  TRP332     -0.2442
    113  CE2       43.9630   26.3640  -32.7120 C.ar  332  TRP332      0.0810
    114  CE3       43.2340   28.6780  -32.7040 C.ar  332  TRP332      0.0012
    115  CZ2       43.2940   26.0950  -31.5360 C.ar  332  TRP332      0.0191
    116  CZ3       42.5660   28.4170  -31.5440 C.ar  332  TRP332      0.0001
    117  CH2       42.5970   27.1270  -30.9670 C.ar  332  TRP332      0.0015
@<TRIPOS>BOND
     1    77    76    2
     2    75    76    1
     3    75    72    1
     4    74    73    2
     5    76    78   am
     6    71    72    1
     7    72    73    1
     8    17    15   am
     9    28    26    1
    10    25    26    2
    11    25    24    1
    12    26    27    1
    13    24    23    1
    14    15    16    2
    15    15    14    1
    16    81    82    2
    17    81    80    1
    18    79    80    1
    19    83    80    1
    20    83    84    1
    21    83    85    1
    22    14    11    1
    23    23    22    1
    24    22    19    1
    25    18    19    1
    26    18    12   am
    27    21    20    2
    28    11    12    1
    29    11    10    1
    30    19    20    1
    31    20    29   am
    32     4     3    2
    33    12    13    2
    34    10     3   am
    35     3     2    1
    36    33    30    1
    37    29    30    1
    38     2     1    1
    39     2     5    1
    40    30    31    1
    41   107   106    2
    42    66    64   am
    43   106   105    1
    44     5     6    1
    45    64    65    2
    46    64    63    1
    47    31    32    2
    48    31    34   am
    49     6     7    1
    50   105   104    1
    51   105   108    1
    52    63    62    1
    53    34    35    1
    54   108   109    1
    55     7     9   am
    56     7     8    2
    57    62    59    1
    58   110   109   ar
    59   110   112   ar
    60   109   111   ar
    61    35    36    1
    62    59    58    1
    63    59    60    1
    64    36    37    2
    65   112   113   ar
    66    61    60    2
    67    55    57   ar
    68    55    53   ar
    69   111   113   ar
    70   111   114   ar
    71    57    56   ar
    72    60    67   am
    73    38    39    1
    74   113   115   ar
    75   114   116   ar
    76    53    52   ar
    77    53    51   ar
    78    52    50   ar
    79    56    54   ar
    80    39    40    1
    81    39    42    1
    82    67    68    1
    83   116   117   ar
    84   115   117   ar
    85    51    54   ar
    86    51    49   ar
    87    40    41    2
    88    40    44   am
    89    50    49   ar
    90    42    43    1
    91    70    69    2
    92    44    45    1
    93    46    47    2
    94    46    45    1
    95    68    69    1
    96    49    48    1
    97   102   103   ar
    98   102   100   ar
    99    45    48    1
   100   103   101   ar
   101   100    99   ar
   102   101    99   ar
   103    99    98    1
   104    89    88    2
   105    98    95    1
   106    95    96    1
   107    95    94    1
   108    96    97    2
   109    88    94   am
   110    88    87    1
   111    87    90    1
   112    87    86    1
   113    90    91    1
   114    91    93   ar
   115    91    92   ar
