@<TRIPOS>MOLECULE
tmp/5wdkC00.pdb
 113 111 0 0 0
SMALL
GASTEIGER

@<TRIPOS>ATOM
      1  N         -1.9000  -23.3980  -30.1110 N.3    18  GLN18      -0.1231
      2  CA        -1.5700  -22.0080  -30.4060 C.3    18  GLN18       0.1698
      3  C         -0.4700  -21.9000  -31.4580 C.2    18  GLN18       0.2592
      4  O         -0.3700  -20.8770  -32.1500 O.2    18  GLN18      -0.2718
      5  CB        -1.1340  -21.3040  -29.1200 C.3    18  GLN18       0.0381
      6  CG         0.1690  -21.8760  -28.5610 C.3    18  GLN18       0.0905
      7  CD         0.5040  -21.3720  -27.1810 C.2    18  GLN18       0.2608
      8  OE1       -0.0770  -21.8070  -26.1820 O.2    18  GLN18      -0.2717
      9  NE2        1.4430  -20.4530  -27.1130 N.am   18  GLN18      -0.0878
     10  N          0.3690  -22.9280  -31.5770 N.am   19  ASN19      -0.1960
     11  CA         1.5040  -22.9560  -32.5110 C.3    19  ASN19       0.1819
     12  C          2.3400  -21.6880  -32.3030 C.2    19  ASN19       0.2621
     13  O          2.5910  -21.3080  -31.1500 O.2    19  ASN19      -0.2715
     14  CB         0.9650  -23.1810  -33.9170 C.3    19  ASN19       0.1195
     15  CG         1.9850  -23.8100  -34.8280 C.2    19  ASN19       0.2630
     16  OD1        2.7480  -24.6780  -34.4090 O.2    19  ASN19      -0.2716
     17  ND2        2.0200  -23.3660  -36.0800 N.am   19  ASN19      -0.0877
     18  N          2.7530  -20.9850  -33.3590 N.am   20  ARG20      -0.1963
     19  CA         3.8230  -19.9790  -33.2500 C.3    20  ARG20       0.1729
     20  C          3.2790  -18.6020  -32.8790 C.2    20  ARG20       0.2616
     21  O          3.3510  -17.6430  -33.6520 O.2    20  ARG20      -0.2715
     22  CB         4.6010  -19.8810  -34.5520 C.3    20  ARG20       0.0348
     23  CG         4.6510  -21.1460  -35.3220 C.3    20  ARG20       0.0492
     24  CD         5.9550  -21.8530  -35.0840 C.3    20  ARG20       0.2205
     25  NE         6.2750  -22.7060  -36.2180 N.pl3  20  ARG20      -0.0865
     26  CZ         7.4410  -23.3110  -36.3900 C.cat  20  ARG20       0.5346
     27  NH1        8.4060  -23.1530  -35.4930 N.pl3  20  ARG20       0.1354
     28  NH2        7.6420  -24.0720  -37.4600 N.pl3  20  ARG20       0.1354
     29  N          2.7820  -18.4990  -31.6510 N.am   21  ALA21      -0.1963
     30  CA         2.3120  -17.2100  -31.1750 C.3    21  ALA21       0.1728
     31  C          2.2620  -17.2510  -29.6580 C.2    21  ALA21       0.2616
     32  O          1.9960  -18.2990  -29.0680 O.2    21  ALA21      -0.2715
     33  CB         0.9370  -16.8680  -31.7660 C.3    21  ALA21       0.0334
     34  N          2.5350  -16.1000  -29.0360 N.am   22  GLY22      -0.1955
     35  CA         2.4900  -15.9680  -27.5930 C.3    22  GLY22       0.1869
     36  C          1.0780  -15.7920  -27.0500 C.2    22  GLY22       0.2309
     37  O          0.8440  -15.0010  -26.1330 O.2    22  GLY22      -0.2863
     38  N         -0.9120  -17.8820  -25.4450 N.3    24  CYS24      -0.1221
     39  CA        -1.3410  -18.8430  -24.4350 C.3    24  CYS24       0.1808
     40  C         -2.3490  -18.2310  -23.4830 C.2    24  CYS24       0.2601
     41  O         -3.2600  -18.9210  -23.0180 O.2    24  CYS24      -0.2717
     42  CB        -0.1420  -19.3390  -23.6480 C.3    24  CYS24       0.0970
     43  SG         0.6590  -18.0290  -22.6970 S.3    24  CYS24      -0.0800
     44  N         -2.1800  -16.9420  -23.1600 N.am   25  TRP25      -0.1976
     45  CA        -3.1030  -16.2730  -22.2500 C.3    25  TRP25       0.1640
     46  C         -4.5350  -16.3910  -22.7480 C.2    25  TRP25       0.2290
     47  O         -5.4680  -16.5490  -21.9520 O.2    25  TRP25      -0.2864
     48  CB        -2.7110  -14.8000  -22.0950 C.3    25  TRP25       0.0576
     49  CG        -2.6260  -14.0510  -23.4050 C.ar   25  TRP25       0.0006
     50  CD1       -1.5390  -13.9680  -24.2380 C.ar   25  TRP25       0.0946
     51  CD2       -3.6660  -13.2860  -24.0310 C.ar   25  TRP25       0.0152
     52  NE1       -1.8400  -13.2010  -25.3420 N.ar   25  TRP25      -0.2442
     53  CE2       -3.1390  -12.7730  -25.2430 C.ar   25  TRP25       0.0810
     54  CE3       -4.9920  -12.9860  -23.6910 C.ar   25  TRP25       0.0012
     55  CZ2       -3.8910  -11.9750  -26.1070 C.ar   25  TRP25       0.0191
     56  CZ3       -5.7350  -12.1900  -24.5540 C.ar   25  TRP25       0.0001
     57  CH2       -5.1840  -11.6990  -25.7460 C.ar   25  TRP25       0.0015
     58  N          3.3030  -10.0430  -27.9680 N.3    75  GLN75      -0.1245
     59  CA         2.2110  -10.9660  -28.2690 C.3    75  GLN75       0.1566
     60  C          1.4530  -11.3970  -27.0150 C.2    75  GLN75       0.2260
     61  O          0.2690  -11.7390  -27.1010 O.2    75  GLN75      -0.2867
     62  CB         2.7460  -12.2060  -28.9970 C.3    75  GLN75       0.0367
     63  CG         3.5050  -11.9260  -30.2810 C.3    75  GLN75       0.0905
     64  CD         3.9000  -13.2120  -31.0310 C.2    75  GLN75       0.2608
     65  OE1        4.1580  -14.2540  -30.4220 O.2    75  GLN75      -0.2717
     66  NE2        3.9290  -13.1400  -32.3520 N.am   75  GLN75      -0.0878
     67  N          0.8380  -18.4090  -37.1490 N.3   109  ASN109     -0.1240
     68  CA         2.2320  -17.9690  -37.1340 C.3   109  ASN109      0.1653
     69  C          2.2110  -16.4480  -37.1840 C.2   109  ASN109      0.2266
     70  O          1.9090  -15.8600  -38.2260 O.2   109  ASN109     -0.2867
     71  CB         3.0430  -18.5500  -38.2870 C.3   109  ASN109      0.1155
     72  CG         4.5350  -18.3080  -38.1240 C.2   109  ASN109      0.2627
     73  OD1        5.3400  -18.9530  -38.7910 O.2   109  ASN109     -0.2716
     74  ND2        4.9160  -17.3870  -37.2330 N.am  109  ASN109     -0.0877
     75  N          4.7630  -14.2880  -36.4320 N.3   111  THR111     -0.1218
     76  CA         6.0990  -13.6930  -36.4040 C.3   111  THR111      0.1862
     77  C          6.2030  -12.4860  -37.3360 C.2   111  THR111      0.2287
     78  O          6.6970  -11.4280  -36.9370 O.2   111  THR111     -0.2866
     79  CB         7.1440  -14.7350  -36.7820 C.3   111  THR111      0.1770
     80  OG1        6.9740  -15.8910  -35.9600 O.3   111  THR111     -0.2211
     81  CG2        8.5500  -14.1750  -36.5830 C.3   111  THR111      0.0375
     82  N          5.5800  -16.7740  -17.3620 N.3   287  ASP287     -0.1225
     83  CA         5.8430  -17.5380  -18.5690 C.3   287  ASP287      0.1805
     84  C          4.5530  -17.8780  -19.3040 C.2   287  ASP287      0.2597
     85  O          4.3790  -17.5110  -20.4720 O.2   287  ASP287     -0.2718
     86  CB         6.6290  -18.8060  -18.2230 C.3   287  ASP287      0.1424
     87  CG         7.9970  -18.4960  -17.6370 C.2   287  ASP287      0.3668
     88  OD1        8.3990  -17.3070  -17.6590 O.co2 287  ASP287     -0.2456
     89  OD2        8.6710  -19.4400  -17.1710 O.co2 287  ASP287     -0.2456
     90  N          3.6280  -18.5610  -18.6360 N.am  288  HIS288     -0.1975
     91  CA         2.6750  -19.3450  -19.4000 C.3   288  HIS288      0.1656
     92  C          1.3360  -19.4210  -18.6820 C.2   288  HIS288      0.2291
     93  O          1.2790  -19.5320  -17.4520 O.2   288  HIS288     -0.2864
     94  CB         3.2600  -20.7440  -19.6500 C.3   288  HIS288      0.0771
     95  CG         2.6780  -21.4540  -20.8300 C.ar  288  HIS288      0.0820
     96  ND1        2.1700  -20.7950  -21.9250 N.ar  288  HIS288     -0.2267
     97  CD2        2.5130  -22.7770  -21.0760 C.ar  288  HIS288      0.1154
     98  CE1        1.7270  -21.6790  -22.8010 C.ar  288  HIS288      0.1986
     99  NE2        1.9200  -22.8890  -22.3100 N.ar  288  HIS288     -0.2212
    100  N         -0.6230  -26.6260  -26.8070 N.3   311  TRP311     -0.1241
    101  CA         0.4260  -26.9290  -27.7760 C.3   311  TRP311      0.1605
    102  C          0.0790  -28.1300  -28.6320 C.2   311  TRP311      0.2264
    103  O          0.9700  -28.8680  -29.0480 O.2   311  TRP311     -0.2867
    104  CB         1.7600  -27.1810  -27.0870 C.3   311  TRP311      0.0550
    105  CG         2.2930  -25.9960  -26.4060 C.ar  311  TRP311      0.0003
    106  CD1        1.9000  -24.7050  -26.5820 C.ar  311  TRP311      0.0946
    107  CD2        3.3230  -25.9760  -25.4200 C.ar  311  TRP311      0.0152
    108  NE1        2.6250  -23.8760  -25.7620 N.ar  311  TRP311     -0.2442
    109  CE2        3.5080  -24.6330  -25.0400 C.ar  311  TRP311      0.0810
    110  CE3        4.1100  -26.9650  -24.8220 C.ar  311  TRP311      0.0012
    111  CZ2        4.4490  -24.2510  -24.0870 C.ar  311  TRP311      0.0191
    112  CZ3        5.0380  -26.5870  -23.8710 C.ar  311  TRP311      0.0001
    113  CH2        5.2020  -25.2390  -23.5130 C.ar  311  TRP311      0.0015
@<TRIPOS>BOND
     1    73    72    2
     2    71    72    1
     3    71    68    1
     4    70    69    2
     5    72    74   am
     6    28    26    1
     7    77    78    2
     8    77    76    1
     9    69    68    1
    10    67    68    1
    11    79    81    1
    12    79    76    1
    13    79    80    1
    14    75    76    1
    15    26    25    2
    16    26    27    1
    17    25    24    1
    18    17    15   am
    19    23    24    1
    20    23    22    1
    21    15    16    2
    22    15    14    1
    23    22    19    1
    24    14    11    1
    25    21    20    2
    26    18    19    1
    27    18    12   am
    28    19    20    1
    29    20    29   am
    30    11    12    1
    31    11    10    1
    32    66    64   am
    33    12    13    2
    34     4     3    2
    35    33    30    1
    36    29    30    1
    37    10     3   am
    38     3     2    1
    39    30    31    1
    40    64    65    2
    41    64    63    1
    42     2     1    1
    43     2     5    1
    44    63    62    1
    45    31    32    2
    46    31    34   am
    47     5     6    1
    48   103   102    2
    49    34    35    1
    50    62    59    1
    51   102   101    1
    52     6     7    1
    53    59    58    1
    54    59    60    1
    55   101   104    1
    56   101   100    1
    57    35    36    1
    58     7     9   am
    59     7     8    2
    60    61    60    2
    61   104   105    1
    62    36    37    2
    63   106   105   ar
    64   106   108   ar
    65   105   107   ar
    66    55    57   ar
    67    55    53   ar
    68   108   109   ar
    69    57    56   ar
    70    38    39    1
    71   107   109   ar
    72   107   110   ar
    73    52    53   ar
    74    52    50   ar
    75    53    51   ar
    76   109   111   ar
    77   110   112   ar
    78    56    54   ar
    79    39    42    1
    80    39    40    1
    81    50    49   ar
    82   111   113   ar
    83    51    54   ar
    84    51    49   ar
    85   112   113   ar
    86    42    43    1
    87    40    44   am
    88    40    41    2
    89    49    48    1
    90    44    45    1
    91    98    99   ar
    92    98    96   ar
    93    46    45    1
    94    46    47    2
    95    99    97   ar
    96    45    48    1
    97    96    95   ar
    98    97    95   ar
    99    95    94    1
   100    85    84    2
   101    94    91    1
   102    91    92    1
   103    91    90    1
   104    84    90   am
   105    84    83    1
   106    92    93    2
   107    83    86    1
   108    83    82    1
   109    86    87    1
   110    88    87   ar
   111    87    89   ar
