@<TRIPOS>MOLECULE
tmp/5wdlC00.pdb
 94 91 0 0 0
SMALL
GASTEIGER

@<TRIPOS>ATOM
      1  N         50.5380   21.5140  -25.0050 N.3    18  GLN18      -0.1245
      2  CA        50.3120   20.1380  -25.4280 C.3    18  GLN18       0.1566
      3  C         49.3440   20.0510  -26.6000 C.2    18  GLN18       0.2260
      4  O         49.3700   19.0580  -27.3360 O.2    18  GLN18      -0.2867
      5  CB        49.7850   19.3070  -24.2580 C.3    18  GLN18       0.0367
      6  CG        48.3130   19.5210  -23.9670 C.3    18  GLN18       0.0905
      7  CD        47.8940   18.9450  -22.6360 C.2    18  GLN18       0.2608
      8  OE1       48.2790   19.4490  -21.5810 O.2    18  GLN18      -0.2717
      9  NE2       47.1080   17.8750  -22.6740 N.am   18  GLN18      -0.0878
     10  N         46.5250   14.0040  -25.4090 N.3    22  GLY22      -0.1225
     11  CA        46.3900   13.7600  -23.9860 C.3    22  GLY22       0.1811
     12  C         47.7280   13.5190  -23.3180 C.2    22  GLY22       0.2280
     13  O         47.8900   12.5630  -22.5550 O.2    22  GLY22      -0.2866
     14  N         49.4390   15.5900  -21.2160 N.3    24  CYS24      -0.1221
     15  CA        49.7140   16.4600  -20.0790 C.3    24  CYS24       0.1808
     16  C         50.6200   15.7840  -19.0580 C.2    24  CYS24       0.2601
     17  O         51.3930   16.4600  -18.3690 O.2    24  CYS24      -0.2717
     18  CB        48.4040   16.8730  -19.4160 C.3    24  CYS24       0.0970
     19  SG        47.4960   15.4830  -18.6890 S.3    24  CYS24      -0.0800
     20  N         50.5310   14.4580  -18.9430 N.am   25  TRP25      -0.1976
     21  CA        51.3720   13.7330  -17.9980 C.3    25  TRP25       0.1640
     22  C         52.8500   13.8980  -18.3280 C.2    25  TRP25       0.2290
     23  O         53.6920   13.9740  -17.4260 O.2    25  TRP25      -0.2864
     24  CB        50.9870   12.2540  -17.9950 C.3    25  TRP25       0.0576
     25  CG        51.0480   11.6290  -19.3590 C.ar   25  TRP25       0.0006
     26  CD1       50.0590   11.6170  -20.3000 C.ar   25  TRP25       0.0946
     27  CD2       52.1580   10.9280  -19.9350 C.ar   25  TRP25       0.0152
     28  NE1       50.4840   10.9530  -21.4240 N.ar   25  TRP25      -0.2442
     29  CE2       51.7690   10.5210  -21.2270 C.ar   25  TRP25       0.0810
     30  CE3       53.4420   10.6070  -19.4850 C.ar   25  TRP25       0.0012
     31  CZ2       52.6180    9.8080  -22.0740 C.ar   25  TRP25       0.0191
     32  CZ3       54.2850    9.8980  -20.3280 C.ar   25  TRP25       0.0001
     33  CH2       53.8680    9.5070  -21.6070 C.ar   25  TRP25       0.0015
     34  N         45.1480    4.3030  -24.3500 N.3    74  SER74      -0.1202
     35  CA        44.7490    5.6790  -24.6020 C.3    74  SER74       0.2020
     36  C         45.9770    6.5750  -24.5000 C.2    74  SER74       0.2619
     37  O         47.1010    6.1060  -24.3000 O.2    74  SER74      -0.2717
     38  CB        43.6470    6.1190  -23.6310 C.3    74  SER74       0.2103
     39  OG        44.0490    5.9270  -22.2870 O.3    74  SER74      -0.2182
     40  N         45.7550    7.8830  -24.6310 N.am   75  GLN75      -0.1965
     41  CA        46.8550    8.8360  -24.7230 C.3    75  GLN75       0.1733
     42  C         47.4420    9.2250  -23.3710 C.2    75  GLN75       0.2617
     43  O         48.5530    9.7670  -23.3320 O.2    75  GLN75      -0.2715
     44  CB        46.3860   10.0960  -25.4500 C.3    75  GLN75       0.0408
     45  CG        45.9260    9.8580  -26.8740 C.3    75  GLN75       0.0908
     46  CD        45.4290   11.1280  -27.5380 C.2    75  GLN75       0.2608
     47  OE1       45.3060   12.1690  -26.8950 O.2    75  GLN75      -0.2717
     48  NE2       45.1590   11.0520  -28.8340 N.am   75  GLN75      -0.0878
     49  N         46.7280    8.9710  -22.2770 N.am   76  GLY76      -0.1940
     50  CA        47.1360    9.4270  -20.9640 C.3    76  GLY76       0.2014
     51  C         48.3500    8.6980  -20.4060 C.2    76  GLY76       0.2639
     52  O         48.9270    7.7930  -21.0110 O.2    76  GLY76      -0.2714
     53  N         48.7270    9.1070  -19.2030 N.am   77  GLY77      -0.1954
     54  CA        49.8860    8.5370  -18.5500 C.3    77  GLY77       0.1869
     55  C         50.0290    9.0660  -17.1410 C.2    77  GLY77       0.2309
     56  O         49.1100    9.6730  -16.5900 O.2    77  GLY77      -0.2863
     57  N         45.4710    5.3570  -15.9770 N.3   205  ASP205     -0.1239
     58  CA        46.7750    5.7310  -16.5090 C.3   205  ASP205      0.1674
     59  C         47.9330    5.2260  -15.6580 C.2   205  ASP205      0.2266
     60  O         49.0920    5.4570  -16.0200 O.2   205  ASP205     -0.2867
     61  CB        46.8610    7.2510  -16.6750 C.3   205  ASP205      0.1410
     62  CG        45.9700    7.7660  -17.7980 C.2   205  ASP205      0.3668
     63  OD1       45.7400    7.0210  -18.7760 O.co2 205  ASP205     -0.2456
     64  OD2       45.5000    8.9170  -17.7070 O.co2 205  ASP205     -0.2456
     65  N         41.4490   11.0660  -12.0410 N.3   301  ASP301     -0.1225
     66  CA        42.7840   11.4170  -12.5050 C.3   301  ASP301      0.1805
     67  C         42.6820   12.1380  -13.8420 C.2   301  ASP301      0.2598
     68  O         42.7760   11.5100  -14.9010 O.2   301  ASP301     -0.2718
     69  CB        43.6460   10.1570  -12.6200 C.3   301  ASP301      0.1424
     70  CG        45.0500   10.4480  -13.1030 C.2   301  ASP301      0.3668
     71  OD1       45.7580   11.2260  -12.4280 O.co2 301  ASP301     -0.2456
     72  OD2       45.4540    9.8840  -14.1440 O.co2 301  ASP301     -0.2456
     73  N         42.4980   13.4570  -13.8050 N.am  302  ASP302     -0.1960
     74  CA        42.1910   14.2240  -15.0060 C.3   302  ASP302      0.1840
     75  C         43.4160   14.8510  -15.6580 C.2   302  ASP302      0.2622
     76  O         43.6290   14.6800  -16.8610 O.2   302  ASP302     -0.2715
     77  CB        41.1710   15.3260  -14.6890 C.3   302  ASP302      0.1450
     78  CG        39.8420   14.7760  -14.2240 C.2   302  ASP302      0.3671
     79  OD1       39.5630   13.5820  -14.4730 O.co2 302  ASP302     -0.2456
     80  OD2       39.0670   15.5470  -13.6210 O.co2 302  ASP302     -0.2456
     81  N         44.2210   15.5850  -14.8930 N.am  303  HIS303     -0.1959
     82  CA        45.1860   16.5020  -15.4760 C.3   303  HIS303      0.1787
     83  C         46.4620   16.4910  -14.6460 C.2   303  HIS303      0.2620
     84  O         46.4280   16.3000  -13.4280 O.2   303  HIS303     -0.2715
     85  CB        44.5890   17.9180  -15.5500 C.3   303  HIS303      0.0785
     86  CG        45.3560   18.8700  -16.4160 C.ar  303  HIS303      0.0821
     87  ND1       46.1220   18.4580  -17.4840 N.ar  303  HIS303     -0.2267
     88  CD2       45.4510   20.2200  -16.3840 C.ar  303  HIS303      0.1154
     89  CE1       46.6670   19.5120  -18.0650 C.ar  303  HIS303      0.1986
     90  NE2       46.2760   20.5940  -17.4170 N.ar  303  HIS303     -0.2212
     91  N         47.5900   16.6890  -15.3230 N.am  304  GLY304     -0.1954
     92  CA        48.8700   16.8070  -14.6540 C.3   304  GLY304      0.1869
     93  C         49.4890   18.1760  -14.8580 C.2   304  GLY304      0.2309
     94  O         49.5650   18.6670  -15.9890 O.2   304  GLY304     -0.2863
@<TRIPOS>BOND
     1    48    46   am
     2    46    47    2
     3    46    45    1
     4     4     3    2
     5    45    44    1
     6     3     2    1
     7    44    41    1
     8     2     1    1
     9     2     5    1
    10    10    11    1
    11    41    40    1
    12    41    42    1
    13    40    36   am
    14    35    36    1
    15    35    34    1
    16    35    38    1
    17    36    37    2
    18     5     6    1
    19    11    12    1
    20     6     7    1
    21    38    39    1
    22    42    43    2
    23    42    49   am
    24    12    13    2
    25     9     7   am
    26     7     8    2
    27    49    50    1
    28    31    33   ar
    29    31    29   ar
    30    33    32   ar
    31    28    29   ar
    32    28    26   ar
    33    29    27   ar
    34    14    15    1
    35    52    51    2
    36    50    51    1
    37    51    53   am
    38    32    30   ar
    39    26    25   ar
    40    15    18    1
    41    15    16    1
    42    27    30   ar
    43    27    25   ar
    44    18    19    1
    45    25    24    1
    46    53    54    1
    47    16    20   am
    48    16    17    2
    49    20    21    1
    50    63    62   ar
    51    54    55    1
    52    22    21    1
    53    22    23    2
    54    89    87   ar
    55    89    90   ar
    56    21    24    1
    57    62    64   ar
    58    62    61    1
    59    87    86   ar
    60    90    88   ar
    61    55    56    2
    62    76    75    2
    63    61    58    1
    64    58    57    1
    65    58    59    1
    66    86    88   ar
    67    86    85    1
    68    60    59    2
    69    94    93    2
    70    75    74    1
    71    75    81   am
    72    85    82    1
    73    82    81    1
    74    82    83    1
    75    91    92    1
    76    91    83   am
    77    74    77    1
    78    74    73    1
    79    68    67    2
    80    93    92    1
    81    77    78    1
    82    83    84    2
    83    79    78   ar
    84    78    80   ar
    85    72    70   ar
    86    67    73   am
    87    67    66    1
    88    70    69    1
    89    70    71   ar
    90    69    66    1
    91    66    65    1
