@<TRIPOS>MOLECULE
tmp/5wdnA00.pdb
 173 165 0 0 0
SMALL
GASTEIGER

@<TRIPOS>ATOM
      1  N        -33.3220   13.4500    8.9180 N.3    20  ALA20      -0.1231
      2  CA       -32.1520   14.0380    9.5640 C.3    20  ALA20       0.1694
      3  C        -32.5130   15.2980   10.3420 C.2    20  ALA20       0.2591
      4  O        -31.9370   15.5670   11.4020 O.2    20  ALA20      -0.2718
      5  CB       -31.0760   14.3430    8.5210 C.3    20  ALA20       0.0304
      6  N        -33.4670   16.0810    9.8360 N.am   21  MET21      -0.1979
      7  CA       -33.8450   17.3110   10.5220 C.3    21  MET21       0.1605
      8  C        -34.7340   17.0290   11.7270 C.2    21  MET21       0.2287
      9  O        -34.5240   17.5950   12.8060 O.2    21  MET21      -0.2864
     10  CB       -34.5400   18.2630    9.5510 C.3    21  MET21       0.0413
     11  CG       -33.6290   19.3480    9.0070 C.3    21  MET21       0.0598
     12  SD       -34.5180   20.4410    7.8960 S.3    21  MET21      -0.1393
     13  CE       -35.3000   19.2120    6.8640 C.3    21  MET21       0.0692
     14  N        -32.7330   15.9050   14.5170 N.3    24  TYR24      -0.1241
     15  CA       -31.9990   16.9720   15.1820 C.3    24  TYR24       0.1605
     16  C        -32.9160   18.0720   15.7050 C.2    24  TYR24       0.2264
     17  O        -32.4510   19.1850   15.9730 O.2    24  TYR24      -0.2867
     18  CB       -30.9450   17.5530   14.2380 C.3    24  TYR24       0.0534
     19  CG       -29.6690   16.7420   14.1920 C.ar   24  TYR24      -0.0201
     20  CD1      -29.6020   15.5570   13.4700 C.ar   24  TYR24      -0.0009
     21  CD2      -28.5340   17.1550   14.8790 C.ar   24  TYR24      -0.0009
     22  CE1      -28.4400   14.8090   13.4290 C.ar   24  TYR24       0.0417
     23  CE2      -27.3680   16.4140   14.8420 C.ar   24  TYR24       0.0417
     24  CZ       -27.3270   15.2420   14.1160 C.ar   24  TYR24       0.1957
     25  OH       -26.1680   14.5000   14.0770 O.3    24  TYR24      -0.2866
     26  N        -35.3350   19.8110   14.2950 N.3    26  GLU26      -0.1245
     27  CA       -35.7340   20.8670   13.3790 C.3    26  GLU26       0.1567
     28  C        -36.7840   20.3420   12.4090 C.2    26  GLU26       0.2260
     29  O        -36.7440   19.1780   11.9980 O.2    26  GLU26      -0.2867
     30  CB       -34.5210   21.4300   12.6310 C.3    26  GLU26       0.0388
     31  CG       -33.4100   21.8790   13.5720 C.3    26  GLU26       0.1160
     32  CD       -32.2890   22.5970   12.8580 C.2    26  GLU26       0.3649
     33  OE1      -32.5400   23.6850   12.3000 O.co2  26  GLU26      -0.2457
     34  OE2      -31.1470   22.0950   12.8770 O.co2  26  GLU26      -0.2457
     35  N        -32.3150   24.8770    5.4450 N.3    34  LYS34      -0.1245
     36  CA       -31.6220   23.6710    5.8860 C.3    34  LYS34       0.1561
     37  C        -32.1320   22.4470    5.1360 C.2    34  LYS34       0.2260
     38  O        -31.3540   21.5520    4.7880 O.2    34  LYS34      -0.2867
     39  CB       -31.7960   23.4870    7.3940 C.3    34  LYS34       0.0271
     40  CG       -30.7620   22.5790    8.0380 C.3    34  LYS34       0.0035
     41  CD       -29.5370   23.3630    8.4790 C.3    34  LYS34       0.0206
     42  CE       -28.4720   22.4450    9.0580 C.3    34  LYS34       0.1093
     43  NZ       -27.7400   21.7060    7.9930 N.3    34  LYS34      -0.1314
     44  N        -29.5320   20.1870    3.0620 N.3    38  ILE38      -0.1245
     45  CA       -29.2950   18.7780    3.3600 C.3    38  ILE38       0.1561
     46  C        -29.5680   17.9180    2.1310 C.2    38  ILE38       0.2260
     47  O        -28.8070   16.9930    1.8240 O.2    38  ILE38      -0.2867
     48  CB       -30.1450   18.3390    4.5660 C.3    38  ILE38       0.0252
     49  CG1      -29.6880   19.0690    5.8300 C.3    38  ILE38       0.0019
     50  CG2      -30.0590   16.8350    4.7680 C.3    38  ILE38       0.0019
     51  CD1      -30.6130   18.8780    7.0060 C.3    38  ILE38       0.0001
     52  N        -26.5460   18.4250   -0.3220 N.3    41  HIS41      -0.1241
     53  CA       -25.3420   17.7370    0.1340 C.3    41  HIS41       0.1621
     54  C        -25.4610   16.2310   -0.0640 C.2    41  HIS41       0.2264
     55  O        -24.4970   15.5730   -0.4740 O.2    41  HIS41      -0.2867
     56  CB       -25.0850   18.0750    1.6040 C.3    41  HIS41       0.0745
     57  CG       -23.9070   17.3660    2.1980 C.ar   41  HIS41       0.0817
     58  ND1      -24.0320   16.2210    2.9550 N.ar   41  HIS41      -0.2268
     59  CD2      -22.5840   17.6520    2.1640 C.ar   41  HIS41       0.1154
     60  CE1      -22.8360   15.8270    3.3540 C.ar   41  HIS41       0.1986
     61  NE2      -21.9400   16.6780    2.8880 N.ar   41  HIS41      -0.2212
     62  N        -22.3990    9.1250    4.4620 N.3    61  GLU61      -0.1245
     63  CA       -23.4730   10.0870    4.6570 C.3    61  GLU61       0.1567
     64  C        -24.8260    9.4610    4.3260 C.2    61  GLU61       0.2260
     65  O        -24.9290    8.5020    3.5560 O.2    61  GLU61      -0.2867
     66  CB       -23.2320   11.3240    3.7870 C.3    61  GLU61       0.0388
     67  CG       -24.1420   12.5150    4.0750 C.3    61  GLU61       0.1160
     68  CD       -24.2000   12.8750    5.5470 C.2    61  GLU61       0.3649
     69  OE1      -25.0910   12.3600    6.2560 O.co2  61  GLU61      -0.2457
     70  OE2      -23.3560   13.6790    5.9950 O.co2  61  GLU61      -0.2457
     71  N        -26.2800    7.3550   11.9390 N.3    65  ARG65      -0.1245
     72  CA       -24.9130    7.7130   12.3010 C.3    65  ARG65       0.1563
     73  C        -24.3130    6.7420   13.3110 C.2    65  ARG65       0.2260
     74  O        -23.0870    6.5930   13.3660 O.2    65  ARG65      -0.2867
     75  CB       -24.8750    9.1460   12.8290 C.3    65  ARG65       0.0307
     76  CG       -24.9680   10.1870   11.7230 C.3    65  ARG65       0.0489
     77  CD       -25.2720   11.5700   12.2680 C.3    65  ARG65       0.2205
     78  NE       -24.1020   12.1810   12.8890 N.pl3  65  ARG65      -0.0865
     79  CZ       -23.1970   12.9010   12.2320 C.cat  65  ARG65       0.5346
     80  NH1      -22.1630   13.4200   12.8800 N.pl3  65  ARG65       0.1354
     81  NH2      -23.3250   13.1010   10.9280 N.pl3  65  ARG65       0.1354
     82  N        -14.4490   12.7690   13.5050 N.3    86  PHE86      -0.1227
     83  CA       -15.7950   13.1250   13.0880 C.3    86  PHE86       0.1736
     84  C        -16.1990   12.2410   11.9170 C.2    86  PHE86       0.2595
     85  O        -15.3680   11.9090   11.0660 O.2    86  PHE86      -0.2718
     86  CB       -15.8830   14.6040   12.6980 C.3    86  PHE86       0.0547
     87  CG       -15.4660   15.5420   13.7950 C.ar   86  PHE86      -0.0202
     88  CD1      -14.1500   15.9610   13.9070 C.ar   86  PHE86      -0.0042
     89  CD2      -16.3900   15.9980   14.7210 C.ar   86  PHE86      -0.0042
     90  CE1      -13.7640   16.8210   14.9180 C.ar   86  PHE86      -0.0003
     91  CE2      -16.0110   16.8580   15.7340 C.ar   86  PHE86      -0.0003
     92  CZ       -14.6960   17.2700   15.8330 C.ar   86  PHE86      -0.0000
     93  N        -17.4680   11.8560   11.8870 N.am   87  LEU87      -0.1966
     94  CA       -17.9650   10.9560   10.8570 C.3    87  LEU87       0.1713
     95  C        -17.7960   11.5870    9.4820 C.2    87  LEU87       0.2458
     96  O        -18.4230   12.6220    9.2000 O.2    87  LEU87      -0.2730
     97  CB       -19.4320   10.6180   11.1070 C.3    87  LEU87       0.0310
     98  CG       -19.9800    9.4050   10.3540 C.3    87  LEU87       0.0022
     99  CD1      -19.2950    8.1260   10.8160 C.3    87  LEU87       0.0001
    100  CD2      -21.4870    9.3050   10.5350 C.3    87  LEU87       0.0001
    101  N        -16.9720   11.0270    8.6070 N.am   88  PRO88      -0.2716
    102  CA       -16.7780   11.5970    7.2750 C.3    88  PRO88       0.1536
    103  C        -17.9650   11.2690    6.3750 C.2    88  PRO88       0.2598
    104  O        -18.9330   10.6320    6.7840 O.2    88  PRO88      -0.2715
    105  CB       -15.4950   10.9220    6.7870 C.3    88  PRO88       0.0310
    106  CG       -15.4830    9.6130    7.4880 C.3    88  PRO88       0.0237
    107  CD       -16.1690    9.8070    8.8130 C.3    88  PRO88       0.0939
    108  N        -17.8710   11.7190    5.1260 N.am   89  ASP89      -0.1972
    109  CA       -18.9460   11.5050    4.1680 C.3    89  ASP89       0.1709
    110  C        -18.7490   10.2380    3.3450 C.2    89  ASP89       0.2293
    111  O        -19.7070    9.4880    3.1290 O.2    89  ASP89      -0.2864
    112  CB       -19.0700   12.7140    3.2380 C.3    89  ASP89       0.1436
    113  CG       -19.8120   13.8670    3.8820 C.2    89  ASP89       0.3671
    114  OD1      -20.8900   13.6270    4.4640 O.co2  89  ASP89      -0.2456
    115  OD2      -19.3170   15.0110    3.8080 O.co2  89  ASP89      -0.2456
    116  N        -14.3590   14.1490    3.2330 N.3   100  GLU100     -0.1231
    117  CA       -15.3870   15.0570    3.7230 C.3   100  GLU100      0.1699
    118  C        -15.8330   15.9370    2.5640 C.2   100  GLU100      0.2592
    119  O        -15.0240   16.6780    1.9950 O.2   100  GLU100     -0.2718
    120  CB       -14.8710   15.9100    4.8830 C.3   100  GLU100      0.0402
    121  CG       -15.7960   17.0590    5.2620 C.3   100  GLU100      0.1161
    122  CD       -17.1780   16.5850    5.6740 C.2   100  GLU100      0.3649
    123  OE1      -17.2710   15.5530    6.3710 O.co2 100  GLU100     -0.2457
    124  OE2      -18.1730   17.2420    5.3000 O.co2 100  GLU100     -0.2457
    125  N        -17.1130   15.8490    2.2120 N.am  101  ILE101     -0.1966
    126  CA       -17.6860   16.6150    1.1120 C.3   101  ILE101      0.1727
    127  C        -18.3250   17.8710    1.6710 C.2   101  ILE101      0.2617
    128  O        -19.0980   17.8110    2.6410 O.2   101  ILE101     -0.2715
    129  CB       -18.7110   15.7800    0.3250 C.3   101  ILE101      0.0290
    130  CG1      -18.0270   14.5810   -0.3330 C.3   101  ILE101      0.0022
    131  CG2      -19.4150   16.6420   -0.7170 C.3   101  ILE101      0.0023
    132  CD1      -16.9880   14.9710   -1.3610 C.3   101  ILE101      0.0001
    133  N        -18.0170   19.0100    1.0740 N.am  102  GLY102     -0.1940
    134  CA       -18.6180   20.2810    1.4480 C.3   102  GLY102      0.2014
    135  C        -19.3540   20.8910    0.2870 C.2   102  GLY102      0.2638
    136  O        -18.8680   20.8800   -0.8500 O.2   102  GLY102     -0.2714
    137  N        -20.5510   21.4130    0.5570 N.am  103  VAL103     -0.1977
    138  CA       -21.3290   22.1800   -0.4040 C.3   103  VAL103      0.1596
    139  C        -21.6700   23.5050    0.2580 C.2   103  VAL103      0.2287
    140  O        -22.3110   23.5260    1.3150 O.2   103  VAL103     -0.2864
    141  CB       -22.6060   21.4460   -0.8450 C.3   103  VAL103      0.0276
    142  CG1      -23.4110   22.3080   -1.8070 C.3   103  VAL103      0.0022
    143  CG2      -22.2590   20.1080   -1.4810 C.3   103  VAL103      0.0022
    144  N        -14.6660   28.0390    2.9960 N.3   111  TYR111     -0.1241
    145  CA       -15.3830   26.8850    3.5290 C.3   111  TYR111      0.1605
    146  C        -14.4450   25.7010    3.7280 C.2   111  TYR111      0.2264
    147  O        -14.5900   24.9440    4.6960 O.2   111  TYR111     -0.2867
    148  CB       -16.5360   26.5060    2.6000 C.3   111  TYR111      0.0534
    149  CG       -17.5450   25.5570    3.2110 C.ar  111  TYR111     -0.0201
    150  CD1      -17.5230   24.2010    2.9100 C.ar  111  TYR111     -0.0009
    151  CD2      -18.5250   26.0190    4.0800 C.ar  111  TYR111     -0.0009
    152  CE1      -18.4440   23.3330    3.4600 C.ar  111  TYR111      0.0417
    153  CE2      -19.4500   25.1570    4.6350 C.ar  111  TYR111      0.0417
    154  CZ       -19.4040   23.8160    4.3200 C.ar  111  TYR111      0.1957
    155  OH       -20.3220   22.9520    4.8680 O.3   111  TYR111     -0.2866
    156  N        -13.5450   23.6570    7.3230 N.3   115  LYS115     -0.1245
    157  CA       -13.5540   22.2000    7.4060 C.3   115  LYS115      0.1561
    158  C        -12.2010   21.6720    7.8680 C.2   115  LYS115      0.2260
    159  O        -12.1280   20.7950    8.7360 O.2   115  LYS115     -0.2867
    160  CB       -13.9320   21.6010    6.0510 C.3   115  LYS115      0.0271
    161  CG       -15.1320   20.6730    6.0940 C.3   115  LYS115      0.0035
    162  CD       -16.4300   21.4580    6.1460 C.3   115  LYS115      0.0206
    163  CE       -17.6290   20.5560    5.9180 C.3   115  LYS115      0.1093
    164  NZ       -18.8580   21.1340    6.5230 N.3   115  LYS115     -0.1314
    165  N        -11.7660   22.1440   11.5540 N.3   118  LYS118     -0.1245
    166  CA       -12.5980   21.2280   12.3270 C.3   118  LYS118      0.1561
    167  C        -12.1060   19.7920   12.2060 C.2   118  LYS118      0.2260
    168  O        -12.1150   19.0440   13.1910 O.2   118  LYS118     -0.2867
    169  CB       -14.0540   21.3350   11.8730 C.3   118  LYS118      0.0271
    170  CG       -14.9670   20.4480   12.6900 C.3   118  LYS118      0.0035
    171  CD       -16.4240   20.7480   12.4190 C.3   118  LYS118      0.0206
    172  CE       -17.0310   19.7180   11.4990 C.3   118  LYS118      0.1093
    173  NZ       -16.4960   19.7830   10.1240 N.3   118  LYS118     -0.1314
@<TRIPOS>BOND
     1   142   141    1
     2   143   141    1
     3   132   130    1
     4   136   135    2
     5   141   138    1
     6   131   129    1
     7    55    54    2
     8   138   139    1
     9   138   137    1
    10   130   129    1
    11    52    53    1
    12    54    53    1
    13    53    56    1
    14   139   140    2
    15   135   137   am
    16   135   134    1
    17   129   126    1
    18   133   134    1
    19   133   127   am
    20   126   127    1
    21   126   125    1
    22    56    57    1
    23   127   128    2
    24    47    46    2
    25   119   118    2
    26    46    45    1
    27    59    57   ar
    28    59    61   ar
    29    57    58   ar
    30   125   118   am
    31   118   117    1
    32   148   149    1
    33   148   145    1
    34    61    60   ar
    35   150   149   ar
    36   150   152   ar
    37    58    60   ar
    38   144   145    1
    39    44    45    1
    40   111   110    2
    41   149   151   ar
    42   116   117    1
    43   112   113    1
    44   112   109    1
    45   110   109    1
    46    45    48    1
    47   152   154   ar
    48   145   146    1
    49    65    64    2
    50   117   120    1
    51   146   147    2
    52    66    67    1
    53    66    63    1
    54   115   113   ar
    55   113   114   ar
    56    67    68    1
    57   151   153   ar
    58   109   108    1
    59   154   153   ar
    60   154   155    1
    61    64    63    1
    62    62    63    1
    63    48    50    1
    64    48    49    1
    65    38    37    2
    66   120   121    1
    67   108   103   am
    68    37    36    1
    69   121   122    1
    70   124   122   ar
    71    35    36    1
    72    68    70   ar
    73    68    69   ar
    74   122   123   ar
    75    49    51    1
    76    36    39    1
    77   163   162    1
    78   163   164    1
    79   160   161    1
    80   160   157    1
    81   161   162    1
    82   103   104    2
    83   103   102    1
    84   105   102    1
    85   105   106    1
    86    13    12    1
    87   102   101    1
    88   156   157    1
    89    39    40    1
    90   157   158    1
    91   106   107    1
    92   158   159    2
    93    12    11    1
    94    43    42    1
    95    40    41    1
    96    41    42    1
    97     5     2    1
    98   101   107    1
    99   101    95   am
   100     1     2    1
   101    11    10    1
   102    96    95    2
   103    95    94    1
   104    10     7    1
   105     2     3    1
   106     6     3   am
   107     6     7    1
   108   173   172    1
   109     3     4    2
   110    98   100    1
   111    98    99    1
   112    98    97    1
   113     7     8    1
   114    94    97    1
   115    94    93    1
   116    81    79    1
   117    85    84    2
   118   172   171    1
   119   165   166    1
   120    76    77    1
   121    76    75    1
   122     8     9    2
   123   169   166    1
   124   169   170    1
   125    93    84   am
   126    84    83    1
   127    71    72    1
   128    29    28    2
   129   167   166    1
   130   167   168    2
   131    79    80    1
   132    79    78    2
   133    77    78    1
   134    33    32   ar
   135    72    75    1
   136    72    73    1
   137    28    27    1
   138   171   170    1
   139    30    27    1
   140    30    31    1
   141    86    83    1
   142    86    87    1
   143    32    34   ar
   144    32    31    1
   145    83    82    1
   146    73    74    2
   147    27    26    1
   148    22    20   ar
   149    22    24   ar
   150    20    19   ar
   151    87    88   ar
   152    87    89   ar
   153    88    90   ar
   154    25    24    1
   155    24    23   ar
   156    19    18    1
   157    19    21   ar
   158    18    15    1
   159    14    15    1
   160    89    91   ar
   161    23    21   ar
   162    90    92   ar
   163    15    16    1
   164    16    17    2
   165    91    92   ar
