@<TRIPOS>MOLECULE
tmp/5wdrA00.pdb
 188 184 0 0 0
SMALL
GASTEIGER

@<TRIPOS>ATOM
      1  N         -5.8390   -4.4860   -2.0010 N.3    12  GLY12      -0.1210
      2  CA        -4.8170   -3.5600   -2.4620 C.3    12  GLY12       0.1956
      3  C         -3.5080   -3.7210   -1.6990 C.2    12  GLY12       0.2612
      4  O         -3.4850   -3.9350   -0.4890 O.2    12  GLY12      -0.2717
      5  N         -2.3950   -3.6600   -2.4390 N.am   13  GLY13      -0.1942
      6  CA        -1.0860   -3.6140   -1.8040 C.3    13  GLY13       0.2014
      7  C         -0.4200   -4.9580   -1.5410 C.2    13  GLY13       0.2639
      8  O          0.7430   -4.9820   -1.0980 O.2    13  GLY13      -0.2714
      9  N         -1.1040   -6.0720   -1.8100 N.am   14  VAL14      -0.1963
     10  CA        -0.5690   -7.3860   -1.4620 C.3    14  VAL14       0.1727
     11  C          0.5010   -7.8880   -2.4080 C.2    14  VAL14       0.2617
     12  O          1.2180   -8.8090   -2.0350 O.2    14  VAL14      -0.2715
     13  CB        -1.6370   -8.4890   -1.3760 C.3    14  VAL14       0.0290
     14  CG1       -2.6560   -8.1360   -0.3000 C.3    14  VAL14       0.0023
     15  CG2       -2.3540   -8.7070   -2.6720 C.3    14  VAL14       0.0023
     16  N          0.6540   -7.2960   -3.5920 N.am   15  GLY15      -0.1940
     17  CA         1.7020   -7.7050   -4.5020 C.3    15  GLY15       0.2014
     18  C          1.2580   -8.3850   -5.7660 C.2    15  GLY15       0.2639
     19  O          2.0960   -9.0590   -6.4180 O.2    15  GLY15      -0.2714
     20  N         -0.0330   -8.2690   -6.0960 N.am   16  LYS16      -0.1963
     21  CA        -0.6020   -8.7360   -7.3580 C.3    16  LYS16       0.1728
     22  C          0.2160   -8.3360   -8.5700 C.2    16  LYS16       0.2617
     23  O          0.6070   -9.1820   -9.3740 O.2    16  LYS16      -0.2715
     24  CB        -2.0360   -8.1920   -7.5170 C.3    16  LYS16       0.0311
     25  CG        -2.9820   -8.8530   -6.5820 C.3    16  LYS16       0.0038
     26  CD        -4.4460   -8.5260   -6.8790 C.3    16  LYS16       0.0206
     27  CE        -4.7510   -7.0270   -6.6920 C.3    16  LYS16       0.1093
     28  NZ        -4.2990   -6.4310   -5.4090 N.3    16  LYS16      -0.1314
     29  N          0.4030   -7.0290   -8.7540 N.am   17  SER17      -0.1936
     30  CA         1.1550   -6.5570   -9.9020 C.3    17  SER17       0.2055
     31  C          2.5990   -7.0210   -9.8550 C.2    17  SER17       0.2642
     32  O          3.1310   -7.5200  -10.8530 O.2    17  SER17      -0.2714
     33  CB         1.0600   -5.0460   -9.9740 C.3    17  SER17       0.2130
     34  OG        -0.3270   -4.7240  -10.2010 O.3    17  SER17      -0.2179
     35  N          3.2400   -6.9230   -8.6980 N.am   18  ALA18      -0.1977
     36  CA         4.6210   -7.3720   -8.6500 C.3    18  ALA18       0.1597
     37  C          4.7610   -8.8320   -9.0740 C.2    18  ALA18       0.2287
     38  O          5.7870   -9.2090   -9.6530 O.2    18  ALA18      -0.2864
     39  CB         5.1890   -7.1760   -7.2420 C.3    18  ALA18       0.0319
     40  N         11.4720   -7.1340  -10.3450 N.3    28  PHE28      -0.1227
     41  CA        10.6550   -6.8080   -9.1860 C.3    28  PHE28       0.1736
     42  C         10.3180   -5.3170   -9.2020 C.2    28  PHE28       0.2595
     43  O         11.2180   -4.4710   -9.1240 O.2    28  PHE28      -0.2718
     44  CB        11.3800   -7.1880   -7.9010 C.3    28  PHE28       0.0547
     45  CG        10.6490   -6.7810   -6.6430 C.ar   28  PHE28      -0.0202
     46  CD1        9.3900   -7.2390   -6.4090 C.ar   28  PHE28      -0.0042
     47  CD2       11.2690   -6.0090   -5.6650 C.ar   28  PHE28      -0.0042
     48  CE1        8.7210   -6.8950   -5.2640 C.ar   28  PHE28      -0.0003
     49  CE2       10.6070   -5.6660   -4.5260 C.ar   28  PHE28      -0.0003
     50  CZ         9.3180   -6.1280   -4.3180 C.ar   28  PHE28      -0.0000
     51  N          9.0220   -5.0240   -9.2670 N.am   29  VAL29      -0.1966
     52  CA         8.4430   -3.6800   -9.2360 C.3    29  VAL29       0.1727
     53  C          8.5050   -3.1780   -7.8020 C.2    29  VAL29       0.2617
     54  O          7.7560   -3.6530   -6.9450 O.2    29  VAL29      -0.2715
     55  CB         6.9930   -3.7090   -9.7480 C.3    29  VAL29       0.0290
     56  CG1        6.2500   -2.3980   -9.6220 C.3    29  VAL29       0.0023
     57  CG2        6.9690   -4.1080  -11.1830 C.3    29  VAL29       0.0023
     58  N          9.3780   -2.1960   -7.5420 N.am   30  THR30      -0.1937
     59  CA         9.5300   -1.6340   -6.2000 C.3    30  THR30       0.2028
     60  C          8.5290   -0.5290   -5.9040 C.2    30  THR30       0.2642
     61  O          8.1540   -0.3490   -4.7390 O.2    30  THR30      -0.2714
     62  CB        10.9280   -1.0520   -5.9950 C.3    30  THR30       0.1808
     63  OG1       11.1040    0.0660   -6.8690 O.3    30  THR30      -0.2208
     64  CG2       12.0020   -2.1030   -6.2720 C.3    30  THR30       0.0379
     65  N          8.0940    0.2100   -6.9140 N.am   31  GLU31      -0.1963
     66  CA         7.0780    1.2210   -6.6890 C.3    31  GLU31       0.1733
     67  C          5.7090    0.5760   -6.5120 C.2    31  GLU31       0.2616
     68  O          5.4490   -0.5240   -7.0290 O.2    31  GLU31      -0.2715
     69  CB         7.0410    2.2360   -7.8320 C.3    31  GLU31       0.0429
     70  CG         6.4250    1.7870   -9.1170 C.3    31  GLU31       0.1163
     71  CD         7.3880    1.0770  -10.0290 C.2    31  GLU31       0.3649
     72  OE1        7.0590    1.0220  -11.2220 O.co2  31  GLU31      -0.2457
     73  OE2        8.4520    0.5780   -9.5560 O.co2  31  GLU31      -0.2457
     74  N          4.8510    1.2470   -5.7360 N.am   32  TYR32      -0.1960
     75  CA         3.4230    0.9220   -5.6640 C.3    32  TYR32       0.1771
     76  C          2.6770    1.8310   -6.6270 C.2    32  TYR32       0.2620
     77  O          2.4600    3.0030   -6.3440 O.2    32  TYR32      -0.2715
     78  CB         2.8820    1.1020   -4.2480 C.3    32  TYR32       0.0574
     79  CG         1.4080    0.7330   -4.0630 C.ar   32  TYR32      -0.0198
     80  CD1        0.7510   -0.0390   -4.9970 C.ar   32  TYR32      -0.0009
     81  CD2        0.6820    1.1880   -2.9730 C.ar   32  TYR32      -0.0009
     82  CE1       -0.5850   -0.3550   -4.8680 C.ar   32  TYR32       0.0417
     83  CE2       -0.6750    0.8540   -2.8200 C.ar   32  TYR32       0.0417
     84  CZ        -1.2900    0.0570   -3.7760 C.ar   32  TYR32       0.1957
     85  OH        -2.6410   -0.2980   -3.7020 O.3    32  TYR32      -0.2866
     86  N          2.2880    1.2860   -7.7660 N.am   33  ASP33      -0.1958
     87  CA         1.5180    1.9720   -8.8040 C.3    33  ASP33       0.1825
     88  C          0.1820    1.2620   -8.8420 C.2    33  ASP33       0.2464
     89  O          0.0890    0.1750   -9.4200 O.2    33  ASP33      -0.2730
     90  CB         2.2140    1.8610  -10.1580 C.3    33  ASP33       0.1450
     91  CG         1.4480    2.5550  -11.2760 C.2    33  ASP33       0.3671
     92  OD1        0.4230    3.2110  -10.9650 O.co2  33  ASP33      -0.2456
     93  OD2        1.8880    2.4370  -12.4400 O.co2  33  ASP33      -0.2456
     94  N         -0.8520    1.7550   -8.1650 N.am   34  PRO34      -0.2715
     95  CA        -2.0460    0.9190   -7.9830 C.3    34  PRO34       0.1536
     96  C         -2.7480    0.6550   -9.3030 C.2    34  PRO34       0.2599
     97  O         -2.8070    1.5020  -10.1950 O.2    34  PRO34      -0.2715
     98  CB        -2.9150    1.7360   -7.0290 C.3    34  PRO34       0.0310
     99  CG        -1.9350    2.6310   -6.3440 C.3    34  PRO34       0.0237
    100  CD        -0.9570    3.0000   -7.3900 C.3    34  PRO34       0.0939
    101  N         -3.2830   -0.5460   -9.4100 N.am   35  THR35      -0.1951
    102  CA        -3.8920   -0.9940  -10.6390 C.3    35  THR35       0.1897
    103  C         -5.3890   -0.6930  -10.6700 C.2    35  THR35       0.2313
    104  O         -6.0840   -0.8270   -9.6610 O.2    35  THR35      -0.2863
    105  CB        -3.6780   -2.4920  -10.7830 C.3    35  THR35       0.1794
    106  OG1       -2.2820   -2.7940  -10.6230 O.3    35  THR35      -0.2208
    107  CG2       -4.2140   -2.9350  -12.1470 C.3    35  THR35       0.0378
    108  N         -4.4440   -8.5160  -14.4880 N.3    57  ASP57      -0.1225
    109  CA        -4.0430   -7.9270  -13.2210 C.3    57  ASP57       0.1805
    110  C         -5.1250   -6.9210  -12.8290 C.2    57  ASP57       0.2598
    111  O         -5.3260   -5.9290  -13.5330 O.2    57  ASP57      -0.2718
    112  CB        -2.6800   -7.2690  -13.4070 C.3    57  ASP57       0.1424
    113  CG        -2.0860   -6.7500  -12.1220 C.2    57  ASP57       0.3668
    114  OD1       -2.5810   -7.1900  -11.0560 O.co2  57  ASP57      -0.2456
    115  OD2       -1.1190   -5.9200  -12.1850 O.co2  57  ASP57      -0.2456
    116  N         -5.8210   -7.1680  -11.7120 N.am   58  THR58      -0.1953
    117  CA        -7.0140   -6.4230  -11.3390 C.3    58  THR58       0.1897
    118  C         -6.7760   -5.4740  -10.1630 C.2    58  THR58       0.2313
    119  O         -5.7770   -5.5460   -9.4530 O.2    58  THR58      -0.2863
    120  CB        -8.1500   -7.3760  -10.9940 C.3    58  THR58       0.1794
    121  OG1       -7.8620   -8.0430   -9.7490 O.3    58  THR58      -0.2208
    122  CG2       -8.3250   -8.3870  -12.1140 C.3    58  THR58       0.0378
    123  N         -7.1830   -4.1430   -6.5720 N.3    60  GLY60      -0.1210
    124  CA        -7.5280   -4.6630   -5.2760 C.3    60  GLY60       0.1956
    125  C         -8.2470   -3.6490   -4.4070 C.2    60  GLY60       0.2611
    126  O         -8.8830   -4.0300   -3.4320 O.2    60  GLY60      -0.2717
    127  N         -8.1590   -2.3600   -4.7460 N.am   61  GLN61      -0.1979
    128  CA        -8.8040   -1.3260   -3.9460 C.3    61  GLN61       0.1601
    129  C        -10.3310   -1.4460   -4.0440 C.2    61  GLN61       0.2287
    130  O        -10.8800   -1.6780   -5.1190 O.2    61  GLN61      -0.2864
    131  CB        -8.3260    0.0640   -4.3850 C.3    61  GLN61       0.0394
    132  CG        -6.8430    0.3210   -4.0220 C.3    61  GLN61       0.0908
    133  CD        -6.3450    1.7080   -4.4060 C.2    61  GLN61       0.2608
    134  OE1       -6.1360    2.5690   -3.5400 O.2    61  GLN61      -0.2717
    135  NE2       -6.1460    1.9350   -5.7030 N.am   61  GLN61      -0.0878
    136  N          1.5600  -13.9240   -0.3440 N.3   116  ASN116     -0.1225
    137  CA         2.6950  -13.2180   -0.9190 C.3   116  ASN116      0.1785
    138  C          3.4620  -12.4410    0.1520 C.2   116  ASN116      0.2597
    139  O          3.0140  -12.2940    1.2980 O.2   116  ASN116     -0.2718
    140  CB         2.2250  -12.2700   -2.0430 C.3   116  ASN116      0.1169
    141  CG         3.3930  -11.6490   -2.8190 C.2   116  ASN116      0.2627
    142  OD1        4.2960  -12.3400   -3.2100 O.2   116  ASN116     -0.2716
    143  ND2        3.3690  -10.3280   -3.0080 N.am  116  ASN116     -0.0877
    144  N          4.6480  -11.9630   -0.2270 N.am  117  LYS117     -0.1980
    145  CA         5.5510  -11.2300    0.6700 C.3   117  LYS117      0.1596
    146  C          6.1750  -12.1300    1.7310 C.2   117  LYS117      0.2287
    147  O          6.4430  -11.6920    2.8570 O.2   117  LYS117     -0.2864
    148  CB         4.8330  -10.0580    1.3280 C.3   117  LYS117      0.0298
    149  CG         4.2910   -9.0610    0.3050 C.3   117  LYS117      0.0038
    150  CD         4.0970   -7.6370    0.8250 C.3   117  LYS117      0.0206
    151  CE         3.3800   -6.7370   -0.1840 C.3   117  LYS117      0.1093
    152  NZ         3.1550   -5.3700    0.3660 N.3   117  LYS117     -0.1314
    153  N          9.0510  -13.0870    2.0910 N.3   119  ASP119     -0.1225
    154  CA        10.3560  -12.5960    2.5130 C.3   119  ASP119      0.1805
    155  C         10.2660  -11.6790    3.7240 C.2   119  ASP119      0.2597
    156  O         11.3000  -11.3670    4.3280 O.2   119  ASP119     -0.2718
    157  CB        11.0150  -11.8350    1.3640 C.3   119  ASP119      0.1424
    158  CG        10.1520  -10.7180    0.8350 C.2   119  ASP119      0.3668
    159  OD1        9.1400  -11.0460    0.1450 O.co2 119  ASP119     -0.2456
    160  OD2       10.4940   -9.5220    1.1120 O.co2 119  ASP119     -0.2456
    161  N          9.0700  -11.1880    4.0370 N.am  120  LEU120     -0.1979
    162  CA         8.8200  -10.2830    5.1590 C.3   120  LEU120      0.1596
    163  C          8.5410  -11.0520    6.4450 C.2   120  LEU120      0.2287
    164  O          7.5500  -10.8190    7.1630 O.2   120  LEU120     -0.2864
    165  CB         7.6690   -9.3520    4.8170 C.3   120  LEU120      0.0297
    166  CG         7.8660   -8.3710    3.6570 C.3   120  LEU120      0.0022
    167  CD1        6.6630   -7.3720    3.6580 C.3   120  LEU120      0.0001
    168  CD2        9.2080   -7.6580    3.7260 C.3   120  LEU120      0.0001
    169  N          7.0660  -14.9440   -2.9660 N.3   146  SER146     -0.1202
    170  CA         7.6960  -13.6320   -2.8300 C.3   146  SER146      0.2020
    171  C          7.9840  -13.0950   -4.2260 C.2   146  SER146      0.2619
    172  O          8.8370  -13.6260   -4.9430 O.2   146  SER146     -0.2717
    173  CB         8.9920  -13.6630   -2.0010 C.3   146  SER146      0.2103
    174  OG         9.6940  -12.4080   -2.1280 O.3   146  SER146     -0.2182
    175  N          7.2930  -12.0190   -4.5950 N.am  147  ALA147     -0.1965
    176  CA         7.6560  -11.2790   -5.8070 C.3   147  ALA147      0.1728
    177  C          9.0670  -10.6890   -5.7330 C.2   147  ALA147      0.2616
    178  O          9.7660  -10.5920   -6.7480 O.2   147  ALA147     -0.2715
    179  CB         6.6470  -10.1550   -6.0400 C.3   147  ALA147      0.0334
    180  N          9.5140  -10.3040   -4.5410 N.am  148  LYS148     -0.1977
    181  CA        10.8090   -9.6480   -4.4130 C.3   148  LYS148      0.1596
    182  C         11.9640  -10.6220   -4.5760 C.2   148  LYS148      0.2287
    183  O         12.9840  -10.2830   -5.1970 O.2   148  LYS148     -0.2864
    184  CB        10.8820   -8.9560   -3.0670 C.3   148  LYS148      0.0298
    185  CG        12.1760   -8.1680   -2.8680 C.3   148  LYS148      0.0038
    186  CD        12.2730   -7.6240   -1.4870 C.3   148  LYS148      0.0206
    187  CE        13.6580   -7.0220   -1.2360 C.3   148  LYS148      0.1093
    188  NZ        13.6590   -6.1930    0.0150 N.3   148  LYS148     -0.1314
@<TRIPOS>BOND
     1   108   109    1
     2   111   110    2
     3   112   109    1
     4   112   113    1
     5   109   110    1
     6   110   116   am
     7    93    91   ar
     8   115   113   ar
     9   107   105    1
    10   113   114   ar
    11   122   120    1
    12   116   117    1
    13   117   120    1
    14   117   118    1
    15    91    92   ar
    16    91    90    1
    17    72    71   ar
    18    57    55    1
    19   120   121    1
    20    32    31    2
    21   105   102    1
    22   105   106    1
    23   103   102    1
    24   103   104    2
    25   102   101    1
    26    40    41    1
    27    34    33    1
    28    97    96    2
    29   118   119    2
    30    90    87    1
    31    71    73   ar
    32    71    70    1
    33    33    30    1
    34    30    31    1
    35    30    29    1
    36    31    35   am
    37    55    56    1
    38    55    52    1
    39    38    37    2
    40    89    88    2
    41   101    96   am
    42    23    22    2
    43    96    95    1
    44    51    52    1
    45    51    42   am
    46    52    53    1
    47    42    41    1
    48    42    43    2
    49    41    44    1
    50    70    69    1
    51    37    36    1
    52    88    87    1
    53    88    94   am
    54    87    86    1
    55    29    22   am
    56    35    36    1
    57    36    39    1
    58    22    21    1
    59    94    95    1
    60    94   100    1
    61    95    98    1
    62    44    45    1
    63    69    66    1
    64    53    58   am
    65    53    54    2
    66    86    76   am
    67    58    59    1
    68    24    21    1
    69    24    25    1
    70   100    99    1
    71    21    20    1
    72    68    67    2
    73    98    99    1
    74    65    66    1
    75    65    60   am
    76    26    27    1
    77    26    25    1
    78    63    62    1
    79   178   177    2
    80    27    28    1
    81    66    67    1
    82    45    46   ar
    83    45    47   ar
    84    76    77    2
    85    76    75    1
    86   123   124    1
    87    67    74   am
    88    19    18    2
    89    46    48   ar
    90    64    62    1
    91    59    62    1
    92    59    60    1
    93    20    18   am
    94   179   176    1
    95    60    61    2
    96   176   177    1
    97   176   175    1
    98    18    17    1
    99    74    75    1
   100   177   180   am
   101   135   133   am
   102    47    49   ar
   103    75    78    1
   104   124   125    1
   105    48    50   ar
   106   183   182    2
   107   130   129    2
   108    80    82   ar
   109    80    79   ar
   110   172   171    2
   111    82    84   ar
   112   127   125   am
   113   127   128    1
   114   175   171   am
   115   182   181    1
   116   180   181    1
   117    49    50   ar
   118    17    16    1
   119   181   184    1
   120   125   126    2
   121   133   132    1
   122   133   134    2
   123   131   132    1
   124   131   128    1
   125    78    79    1
   126   171   170    1
   127    79    81   ar
   128   129   128    1
   129    84    85    1
   130    84    83   ar
   131    16    11   am
   132   142   141    2
   133   184   185    1
   134   143   141   am
   135    81    83   ar
   136   169   170    1
   137   185   186    1
   138   170   173    1
   139   141   140    1
   140    15    13    1
   141     2     1    1
   142     2     3    1
   143     5     6    1
   144     5     3   am
   145    11    12    2
   146    11    10    1
   147   174   173    1
   148   140   137    1
   149     9     7   am
   150     9    10    1
   151     6     7    1
   152     3     4    2
   153     7     8    2
   154   186   187    1
   155    10    13    1
   156    13    14    1
   157   187   188    1
   158   137   136    1
   159   137   138    1
   160   144   138   am
   161   144   145    1
   162   151   152    1
   163   151   150    1
   164   159   158   ar
   165   138   139    2
   166   149   150    1
   167   149   148    1
   168   145   148    1
   169   145   146    1
   170   158   160   ar
   171   158   157    1
   172   157   154    1
   173   146   147    2
   174   153   154    1
   175   154   155    1
   176   166   167    1
   177   166   168    1
   178   166   165    1
   179   155   161   am
   180   155   156    2
   181   161   162    1
   182   165   162    1
   183   162   163    1
   184   163   164    2
