@<TRIPOS>MOLECULE
tmp/5wdsA00.pdb
 152 148 0 0 0
SMALL
GASTEIGER

@<TRIPOS>ATOM
      1  N         36.5890  -20.0200   26.8670 N.3    14  GLY14      -0.1210
      2  CA        37.4790  -20.9710   27.5010 C.3    14  GLY14       0.1956
      3  C         38.8930  -20.4480   27.6350 C.2    14  GLY14       0.2612
      4  O         39.3970  -19.7590   26.7410 O.2    14  GLY14      -0.2717
      5  N         39.5290  -20.7250   28.7700 N.am   15  GLY15      -0.1942
      6  CA        40.9180  -20.3860   28.9710 C.3    15  GLY15       0.2014
      7  C         41.1830  -19.0120   29.5460 C.2    15  GLY15       0.2639
      8  O         42.3410  -18.7060   29.8590 O.2    15  GLY15      -0.2714
      9  N         40.1610  -18.1690   29.6970 N.am   16  VAL16      -0.1963
     10  CA        40.4280  -16.8130   30.1770 C.3    16  VAL16       0.1727
     11  C         40.7260  -16.8030   31.6750 C.2    16  VAL16       0.2617
     12  O         41.4380  -15.9130   32.1590 O.2    16  VAL16      -0.2715
     13  CB        39.2670  -15.8630   29.8300 C.3    16  VAL16       0.0290
     14  CG1       39.0710  -15.7970   28.2970 C.3    16  VAL16       0.0023
     15  CG2       37.9840  -16.2790   30.5300 C.3    16  VAL16       0.0023
     16  N         40.2110  -17.7730   32.4210 N.am   17  GLY17      -0.1940
     17  CA        40.4540  -17.7930   33.8510 C.3    17  GLY17       0.2014
     18  C         39.2150  -17.6430   34.7070 C.2    17  GLY17       0.2639
     19  O         39.2990  -17.1420   35.8360 O.2    17  GLY17      -0.2714
     20  N         38.0610  -18.0850   34.2030 N.am   18  LYS18      -0.1963
     21  CA        36.8440  -18.0390   35.0070 C.3    18  LYS18       0.1728
     22  C         36.9940  -18.8890   36.2620 C.2    18  LYS18       0.2617
     23  O         36.7030  -18.4360   37.3770 O.2    18  LYS18      -0.2715
     24  CB        35.6430  -18.5140   34.1900 C.3    18  LYS18       0.0311
     25  CG        35.4370  -17.7180   32.8880 C.3    18  LYS18       0.0038
     26  CD        34.1920  -18.1630   32.1470 C.3    18  LYS18       0.0206
     27  CE        34.4110  -19.5090   31.4720 C.3    18  LYS18       0.1093
     28  NZ        35.7500  -19.5490   30.8250 N.3    18  LYS18      -0.1314
     29  N         37.4670  -20.1230   36.0960 N.am   19  SER19      -0.1936
     30  CA        37.6640  -21.0050   37.2450 C.3    19  SER19       0.2055
     31  C         38.7410  -20.4730   38.1780 C.2    19  SER19       0.2642
     32  O         38.5740  -20.4860   39.4020 O.2    19  SER19      -0.2714
     33  CB        38.0190  -22.4120   36.7670 C.3    19  SER19       0.2130
     34  OG        36.9600  -22.9660   36.0080 O.3    19  SER19      -0.2179
     35  N         39.8520  -19.9980   37.6250 N.am   20  ALA20      -0.1977
     36  CA        40.9540  -19.5610   38.4710 C.3    20  ALA20       0.1597
     37  C         40.5750  -18.3430   39.3020 C.2    20  ALA20       0.2287
     38  O         40.9790  -18.2300   40.4650 O.2    20  ALA20      -0.2864
     39  CB        42.1810  -19.2650   37.6190 C.3    20  ALA20       0.0319
     40  N         45.7480  -20.5010   43.7160 N.3    30  PHE30      -0.1227
     41  CA        45.7760  -20.4360   42.2580 C.3    30  PHE30       0.1736
     42  C         45.8420  -21.8420   41.6570 C.2    30  PHE30       0.2595
     43  O         46.8090  -22.5720   41.8900 O.2    30  PHE30      -0.2718
     44  CB        46.9700  -19.5970   41.8100 C.3    30  PHE30       0.0547
     45  CG        47.1150  -19.4920   40.3190 C.ar   30  PHE30      -0.0202
     46  CD1       46.0160  -19.1990   39.5220 C.ar   30  PHE30      -0.0042
     47  CD2       48.3520  -19.6620   39.7150 C.ar   30  PHE30      -0.0042
     48  CE1       46.1450  -19.0990   38.1370 C.ar   30  PHE30      -0.0003
     49  CE2       48.4910  -19.5610   38.3340 C.ar   30  PHE30      -0.0003
     50  CZ        47.3860  -19.2750   37.5460 C.ar   30  PHE30      -0.0000
     51  N         44.8140  -22.2140   40.8590 N.am   31  VAL31      -0.1966
     52  CA        44.7710  -23.5020   40.1690 C.3    31  VAL31       0.1727
     53  C         45.3030  -23.3370   38.7520 C.2    31  VAL31       0.2617
     54  O         45.1360  -22.2910   38.1160 O.2    31  VAL31      -0.2715
     55  CB        43.3460  -24.0960   40.1650 C.3    31  VAL31       0.0290
     56  CG1       42.8670  -24.3370   41.5890 C.3    31  VAL31       0.0023
     57  CG2       42.3850  -23.1910   39.4110 C.3    31  VAL31       0.0023
     58  N         45.9440  -24.3900   38.2410 N.am   32  THR32      -0.1937
     59  CA        46.6770  -24.3090   36.9850 C.3    32  THR32       0.2028
     60  C         46.0770  -25.1400   35.8650 C.2    32  THR32       0.2642
     61  O         46.2610  -24.8030   34.6960 O.2    32  THR32      -0.2714
     62  CB        48.1350  -24.7390   37.1980 C.3    32  THR32       0.1808
     63  OG1       48.6780  -24.0190   38.3100 O.3    32  THR32      -0.2208
     64  CG2       48.9850  -24.4350   35.9730 C.3    32  THR32       0.0379
     65  N         45.3500  -26.2020   36.1780 N.am   33  GLU33      -0.1963
     66  CA        44.9130  -27.1280   35.1410 C.3    33  GLU33       0.1733
     67  C         43.4930  -27.5880   35.4070 C.2    33  GLU33       0.2616
     68  O         43.1400  -28.7470   35.1640 O.2    33  GLU33      -0.2715
     69  CB        45.8630  -28.3210   35.0480 C.3    33  GLU33       0.0429
     70  CG        46.0780  -29.0300   36.3840 C.3    33  GLU33       0.1163
     71  CD        47.4840  -29.5790   36.5360 C.2    33  GLU33       0.3649
     72  OE1       48.3770  -28.8230   36.9770 O.co2  33  GLU33      -0.2457
     73  OE2       47.6950  -30.7660   36.2060 O.co2  33  GLU33      -0.2457
     74  N         42.6560  -26.6860   35.9050 N.am   34  TYR34      -0.1974
     75  CA        41.3020  -27.0630   36.2750 C.3    34  TYR34       0.1639
     76  C         40.5110  -27.4730   35.0380 C.2    34  TYR34       0.2290
     77  O         40.6280  -26.8600   33.9720 O.2    34  TYR34      -0.2864
     78  CB        40.6190  -25.9060   37.0060 C.3    34  TYR34       0.0560
     79  CG        39.3730  -26.2920   37.7680 C.ar   34  TYR34      -0.0198
     80  CD1       39.4440  -26.7190   39.0910 C.ar   34  TYR34      -0.0009
     81  CD2       38.1220  -26.2190   37.1700 C.ar   34  TYR34      -0.0009
     82  CE1       38.2990  -27.0620   39.7940 C.ar   34  TYR34       0.0417
     83  CE2       36.9750  -26.5590   37.8590 C.ar   34  TYR34       0.0417
     84  CZ        37.0660  -26.9810   39.1700 C.ar   34  TYR34       0.1957
     85  OH        35.9170  -27.3170   39.8500 O.3    34  TYR34      -0.2866
     86  N         38.4620  -27.8600   32.0470 N.3    36  PRO36      -0.2116
     87  CA        37.7160  -26.8380   31.2950 C.3    36  PRO36       0.1372
     88  C         36.2310  -27.1220   31.1640 C.2    36  PRO36       0.2244
     89  O         35.4980  -26.2390   30.7010 O.2    36  PRO36      -0.2868
     90  CB        38.3970  -26.8460   29.9190 C.3    36  PRO36       0.0268
     91  CG        39.7580  -27.4010   30.1740 C.3    36  PRO36       0.0207
     92  CD        39.5710  -28.4210   31.2550 C.3    36  PRO36       0.0892
     93  N         30.7850  -20.7870   34.8620 N.3    60  THR60      -0.1218
     94  CA        30.3720  -21.4660   33.6360 C.3    60  THR60       0.1862
     95  C         31.5580  -22.0920   32.9140 C.2    60  THR60       0.2287
     96  O         32.7020  -21.6500   33.0370 O.2    60  THR60      -0.2866
     97  CB        29.6580  -20.5090   32.6810 C.3    60  THR60       0.1770
     98  OG1       30.5790  -19.5070   32.2240 O.3    60  THR60      -0.2211
     99  CG2       28.4640  -19.8580   33.3660 C.3    60  THR60       0.0375
    100  N         41.4700  -10.3550   32.6240 N.3   118  ASN118     -0.1225
    101  CA        42.2490  -11.2290   33.4820 C.3   118  ASN118      0.1785
    102  C         43.6300  -11.5260   32.8910 C.2   118  ASN118      0.2597
    103  O         43.9280  -11.2390   31.7230 O.2   118  ASN118     -0.2718
    104  CB        41.4880  -12.5280   33.7290 C.3   118  ASN118      0.1169
    105  CG        42.1110  -13.3430   34.8510 C.2   118  ASN118      0.2627
    106  OD1       42.6450  -12.7730   35.8000 O.2   118  ASN118     -0.2716
    107  ND2       42.1130  -14.6610   34.7070 N.am  118  ASN118     -0.0877
    108  N         44.4730  -12.1280   33.7320 N.am  119  LYS119     -0.1980
    109  CA        45.8570  -12.4500   33.4210 C.3   119  LYS119      0.1596
    110  C         46.6840  -11.1880   33.2160 C.2   119  LYS119      0.2287
    111  O         47.5830  -11.1620   32.3790 O.2   119  LYS119     -0.2864
    112  CB        45.9690  -13.3750   32.2090 C.3   119  LYS119      0.0298
    113  CG        45.0160  -14.5540   32.2410 C.3   119  LYS119      0.0038
    114  CD        45.4600  -15.6620   31.2800 C.3   119  LYS119      0.0206
    115  CE        44.3410  -16.6570   31.0760 C.3   119  LYS119      0.1093
    116  NZ        44.6920  -17.8510   30.2470 N.3   119  LYS119     -0.1314
    117  N         49.0270  -10.2470   34.7510 N.3   121  ASP121     -0.1225
    118  CA        50.4230  -10.5590   35.0340 C.3   121  ASP121      0.1805
    119  C         51.2090  -10.8520   33.7640 C.2   121  ASP121      0.2597
    120  O         52.4410  -10.7700   33.7790 O.2   121  ASP121     -0.2718
    121  CB        50.5180  -11.7760   35.9600 C.3   121  ASP121      0.1424
    122  CG        49.7310  -12.9780   35.4350 C.2   121  ASP121      0.3668
    123  OD1       48.4820  -12.9530   35.5030 O.co2 121  ASP121     -0.2456
    124  OD2       50.3530  -13.9480   34.9310 O.co2 121  ASP121     -0.2456
    125  N         50.5210  -11.2040   32.6820 N.am  122  LEU122     -0.1979
    126  CA        51.1610  -11.5780   31.4210 C.3   122  LEU122      0.1596
    127  C         51.4310  -10.3400   30.5650 C.2   122  LEU122      0.2287
    128  O         51.0070  -10.2400   29.4180 O.2   122  LEU122     -0.2864
    129  CB        50.2940  -12.5830   30.6780 C.3   122  LEU122      0.0297
    130  CG        50.0280  -13.9320   31.3300 C.3   122  LEU122      0.0022
    131  CD1       49.0230  -14.7170   30.5210 C.3   122  LEU122      0.0001
    132  CD2       51.3260  -14.6950   31.4830 C.3   122  LEU122      0.0001
    133  N         44.4780  -10.4020   38.0580 N.3   148  SER148     -0.1202
    134  CA        45.3520  -11.5620   37.9010 C.3   148  SER148      0.2020
    135  C         44.9650  -12.5720   38.9720 C.2   148  SER148      0.2619
    136  O         45.1680  -12.3200   40.1620 O.2   148  SER148     -0.2717
    137  CB        46.8310  -11.1980   38.0190 C.3   148  SER148      0.2103
    138  OG        47.6220  -12.3800   37.9010 O.3   148  SER148     -0.2182
    139  N         44.3690  -13.6850   38.5420 N.am  149  ALA149     -0.1965
    140  CA        44.1630  -14.8100   39.4450 C.3   149  ALA149      0.1728
    141  C         45.4900  -15.4140   39.8840 C.2   149  ALA149      0.2616
    142  O         45.6000  -15.9400   41.0020 O.2   149  ALA149     -0.2715
    143  CB        43.2900  -15.8670   38.7740 C.3   149  ALA149      0.0334
    144  N         46.5150  -15.3150   39.0410 N.am  150  LYS150     -0.1977
    145  CA        47.7990  -15.9150   39.3780 C.3   150  LYS150      0.1596
    146  C         48.5120  -15.1200   40.4580 C.2   150  LYS150      0.2287
    147  O         48.9870  -15.6920   41.4460 O.2   150  LYS150     -0.2864
    148  CB        48.6670  -16.0390   38.1260 C.3   150  LYS150      0.0298
    149  CG        50.0650  -16.5610   38.4100 C.3   150  LYS150      0.0038
    150  CD        50.6880  -17.1320   37.1440 C.3   150  LYS150      0.0206
    151  CE        52.1070  -17.5880   37.4040 C.3   150  LYS150      0.1093
    152  NZ        52.9380  -16.4590   37.9150 N.3   150  LYS150     -0.1314
@<TRIPOS>BOND
     1     4     3    2
     2     1     2    1
     3     2     3    1
     4     3     5   am
     5    14    13    1
     6     5     6    1
     7     6     7    1
     8   128   127    2
     9     7     9   am
    10     7     8    2
    11     9    10    1
    12    13    10    1
    13    13    15    1
    14    90    91    1
    15    90    87    1
    16    91    92    1
    17    10    11    1
    18   116   115    1
    19   131   130    1
    20   127   126    1
    21   129   130    1
    22   129   126    1
    23    89    88    2
    24    28    27    1
    25   115   114    1
    26    88    87    1
    27    92    86    1
    28   114   113    1
    29    87    86    1
    30   130   132    1
    31   126   125    1
    32    27    26    1
    33    11    12    2
    34    11    16   am
    35   103   102    2
    36    26    25    1
    37   112   113    1
    38   112   109    1
    39    98    97    1
    40   111   110    2
    41    16    17    1
    42   100   101    1
    43    97    99    1
    44    97    94    1
    45   125   119   am
    46    25    24    1
    47   102   101    1
    48   102   108   am
    49    95    96    2
    50    95    94    1
    51   110   109    1
    52   109   108    1
    53   101   104    1
    54    94    93    1
    55   104   105    1
    56   119   120    2
    57   119   118    1
    58    17    18    1
    59    77    76    2
    60    24    21    1
    61    20    18   am
    62    20    21    1
    63    61    60    2
    64    18    19    2
    65   107   105   am
    66   117   118    1
    67   105   106    2
    68   124   122   ar
    69    21    22    1
    70   118   121    1
    71    76    75    1
    72    69    66    1
    73    69    70    1
    74    66    67    1
    75    66    65    1
    76    68    67    2
    77    67    74   am
    78   122   123   ar
    79   122   121    1
    80    60    65   am
    81    60    59    1
    82    74    75    1
    83    64    62    1
    84    34    33    1
    85    29    22   am
    86    29    30    1
    87    73    71   ar
    88    22    23    2
    89    75    78    1
    90    70    71    1
    91    71    72   ar
    92    33    30    1
    93    59    62    1
    94    59    58    1
    95    78    79    1
    96   150   151    1
    97   150   149    1
    98    81    79   ar
    99    81    83   ar
   100    62    63    1
   101    30    31    1
   102   151   152    1
   103    50    48   ar
   104    50    49   ar
   105    39    36    1
   106    35    31   am
   107    35    36    1
   108    79    80   ar
   109    83    84   ar
   110   134   137    1
   111   134   133    1
   112   134   135    1
   113   138   137    1
   114    54    53    2
   115   148   149    1
   116   148   145    1
   117    48    46   ar
   118    31    32    2
   119    58    53   am
   120    49    47   ar
   121    36    37    1
   122   139   135   am
   123   139   140    1
   124    53    52    1
   125   143   140    1
   126   135   136    2
   127   144   145    1
   128   144   141   am
   129    80    82   ar
   130    84    82   ar
   131    84    85    1
   132    37    38    2
   133   145   146    1
   134    57    55    1
   135   140   141    1
   136    46    45   ar
   137    47    45   ar
   138   141   142    2
   139    55    52    1
   140    55    56    1
   141    52    51    1
   142    45    44    1
   143   146   147    2
   144    51    42   am
   145    42    43    2
   146    42    41    1
   147    44    41    1
   148    41    40    1
