@<TRIPOS>MOLECULE
tmp/5wdwA00.pdb
 167 158 0 0 0
SMALL
GASTEIGER

@<TRIPOS>ATOM
      1  N         27.2280  451.4060  685.5070 N.3    24  ALA24      -0.1231
      2  CA        28.1830  451.5560  686.6010 C.3    24  ALA24       0.1694
      3  C         29.4830  450.8170  686.3060 C.2    24  ALA24       0.2591
      4  O         30.5710  451.3180  686.6130 O.2    24  ALA24      -0.2718
      5  CB        27.5690  451.0620  687.9110 C.3    24  ALA24       0.0304
      6  N         29.3900  449.6250  685.7120 N.am   25  MET25      -0.1979
      7  CA        30.5940  448.8730  685.3720 C.3    25  MET25       0.1605
      8  C         31.4240  449.6080  684.3270 C.2    25  MET25       0.2287
      9  O         32.6360  449.7850  684.4960 O.2    25  MET25      -0.2864
     10  CB        30.2210  447.4730  684.8840 C.3    25  MET25       0.0413
     11  CG        29.9790  446.4910  686.0130 C.3    25  MET25       0.0598
     12  SD        29.6620  444.7910  685.5000 S.3    25  MET25      -0.1393
     13  CE        31.3270  444.1310  685.4060 C.3    25  MET25       0.0692
     14  N         33.3030  452.5920  685.5680 N.3    28  TYR28      -0.1241
     15  CA        34.5600  452.2430  686.2140 C.3    28  TYR28       0.1605
     16  C         35.4430  451.3680  685.3310 C.2    28  TYR28       0.2264
     17  O         36.4420  450.8240  685.8120 O.2    28  TYR28      -0.2867
     18  CB        34.2880  451.5680  687.5600 C.3    28  TYR28       0.0534
     19  CG        33.7650  452.5380  688.6000 C.ar   28  TYR28      -0.0201
     20  CD1       32.4040  452.7910  688.7180 C.ar   28  TYR28      -0.0009
     21  CD2       34.6320  453.2150  689.4480 C.ar   28  TYR28      -0.0009
     22  CE1       31.9210  453.6850  689.6560 C.ar   28  TYR28       0.0417
     23  CE2       34.1580  454.1100  690.3920 C.ar   28  TYR28       0.0417
     24  CZ        32.8020  454.3410  690.4900 C.ar   28  TYR28       0.1957
     25  OH        32.3230  455.2290  691.4270 O.3    28  TYR28      -0.2866
     26  N         34.9950  448.4330  683.3810 N.3    30  GLU30      -0.1245
     27  CA        34.9900  446.9780  683.3420 C.3    30  GLU30       0.1567
     28  C         33.8270  446.4880  682.4930 C.2    30  GLU30       0.2260
     29  O         32.7380  447.0700  682.5150 O.2    30  GLU30      -0.2867
     30  CB        34.9280  446.3870  684.7530 C.3    30  GLU30       0.0388
     31  CG        36.2740  446.4370  685.4620 C.3    30  GLU30       0.1160
     32  CD        36.2340  445.8530  686.8580 C.2    30  GLU30       0.3649
     33  OE1       36.5050  444.6430  687.0000 O.co2  30  GLU30      -0.2457
     34  OE2       35.9450  446.6050  687.8130 O.co2  30  GLU30      -0.2457
     35  N         31.0590  439.4580  688.4140 N.3    38  LYS38      -0.1245
     36  CA        30.8690  440.7450  689.0670 C.3    38  LYS38       0.1561
     37  C         29.6420  441.4640  688.5160 C.2    38  LYS38       0.2260
     38  O         28.9920  442.2270  689.2400 O.2    38  LYS38      -0.2867
     39  CB        32.1300  441.5890  688.9070 C.3    38  LYS38       0.0271
     40  CG        32.0190  442.9750  689.4990 C.3    38  LYS38       0.0035
     41  CD        33.3590  443.4700  690.0100 C.3    38  LYS38       0.0206
     42  CE        34.4240  443.4150  688.9450 C.3    38  LYS38       0.1093
     43  NZ        35.6700  444.0670  689.4360 N.3    38  LYS38      -0.1314
     44  N         27.0680  440.1940  690.6110 N.3    41  ALA41      -0.1231
     45  CA        27.1730  440.6850  691.9810 C.3    41  ALA41       0.1694
     46  C         26.6640  442.1130  692.1090 C.2    41  ALA41       0.2591
     47  O         26.0950  442.4760  693.1440 O.2    41  ALA41      -0.2718
     48  CB        28.6190  440.5910  692.4670 C.3    41  ALA41       0.0304
     49  N         26.8530  442.9370  691.0790 N.am   42  ILE42      -0.1980
     50  CA        26.3880  444.3170  691.1630 C.3    42  ILE42       0.1595
     51  C         24.8700  444.3810  691.0720 C.2    42  ILE42       0.2287
     52  O         24.2240  445.0900  691.8530 O.2    42  ILE42      -0.2864
     53  CB        27.0770  445.1700  690.0840 C.3    42  ILE42       0.0276
     54  CG1       28.5510  445.3400  690.4500 C.3    42  ILE42       0.0022
     55  CG2       26.4080  446.5300  689.9570 C.3    42  ILE42       0.0022
     56  CD1       29.4640  445.4610  689.2770 C.3    42  ILE42       0.0001
     57  N         23.6240  443.2170  694.4970 N.3    45  HIS45      -0.1241
     58  CA        23.8040  444.2700  695.4940 C.3    45  HIS45       0.1621
     59  C         22.8730  445.4450  695.2300 C.2    45  HIS45       0.2264
     60  O         22.3580  446.0650  696.1690 O.2    45  HIS45      -0.2867
     61  CB        25.2630  444.7280  695.4880 C.3    45  HIS45       0.0745
     62  CG        25.5580  445.8590  696.4250 C.ar   45  HIS45       0.0817
     63  ND1       25.4150  447.1840  696.0670 N.ar   45  HIS45      -0.2268
     64  CD2       26.0170  445.8640  697.6990 C.ar   45  HIS45       0.1154
     65  CE1       25.7590  447.9530  697.0830 C.ar   45  HIS45       0.1986
     66  NE2       26.1300  447.1760  698.0880 N.ar   45  HIS45      -0.2212
     67  N         23.6670  454.5900  695.8290 N.3    65  GLU65      -0.1245
     68  CA        24.1570  453.6040  694.8800 C.3    65  GLU65       0.1567
     69  C         23.3270  453.6540  693.5980 C.2    65  GLU65       0.2260
     70  O         22.1720  454.0890  693.5890 O.2    65  GLU65      -0.2867
     71  CB        24.1150  452.2060  695.5120 C.3    65  GLU65       0.0388
     72  CG        24.7680  451.0930  694.6930 C.3    65  GLU65       0.1160
     73  CD        26.2290  451.3610  694.3920 C.2    65  GLU65       0.3649
     74  OE1       26.5560  451.5750  693.2050 O.co2  65  GLU65      -0.2457
     75  OE2       27.0490  451.3420  695.3340 O.co2  65  GLU65      -0.2457
     76  N         32.1390  456.3590  699.0420 N.3    91  LEU91      -0.1231
     77  CA        30.7270  456.4710  698.6950 C.3    91  LEU91       0.1678
     78  C         29.9220  455.4050  699.4260 C.2    91  LEU91       0.2434
     79  O         30.1890  454.2090  699.2510 O.2    91  LEU91      -0.2733
     80  CB        30.5390  456.3370  697.1850 C.3    91  LEU91       0.0284
     81  CG        30.3530  457.6410  696.4050 C.3    91  LEU91       0.0019
     82  CD1       30.0980  457.3720  694.9270 C.3    91  LEU91       0.0001
     83  CD2       29.2240  458.4660  697.0040 C.3    91  LEU91       0.0001
     84  N         28.9490  455.7810  700.2570 N.am   92  PRO92      -0.2718
     85  CA        28.0580  454.7800  700.8560 C.3    92  PRO92       0.1535
     86  C         26.9650  454.3630  699.8860 C.2    92  PRO92       0.2598
     87  O         27.0030  454.7410  698.7100 O.2    92  PRO92      -0.2715
     88  CB        27.4800  455.5180  702.0670 C.3    92  PRO92       0.0310
     89  CG        27.4310  456.9420  701.6060 C.3    92  PRO92       0.0237
     90  CD        28.6490  457.1420  700.7350 C.3    92  PRO92       0.0939
     91  N         25.9780  453.6060  700.3660 N.am   93  ASP93      -0.1972
     92  CA        24.8840  453.1440  699.5210 C.3    93  ASP93       0.1709
     93  C         23.5590  453.8390  699.7910 C.2    93  ASP93       0.2293
     94  O         22.7900  454.0510  698.8510 O.2    93  ASP93      -0.2864
     95  CB        24.6900  451.6300  699.6780 C.3    93  ASP93       0.1436
     96  CG        25.8810  450.8320  699.1720 C.2    93  ASP93       0.3671
     97  OD1       26.5540  451.2880  698.2230 O.co2  93  ASP93      -0.2456
     98  OD2       26.1530  449.7510  699.7370 O.co2  93  ASP93      -0.2456
     99  N         26.2030  451.4220  704.6150 N.3   104  GLU104     -0.1231
    100  CA        26.9370  450.5960  703.6660 C.3   104  GLU104      0.1699
    101  C         26.3170  449.2060  703.6450 C.2   104  GLU104      0.2592
    102  O         26.1990  448.5600  704.6920 O.2   104  GLU104     -0.2718
    103  CB        28.4170  450.5110  704.0410 C.3   104  GLU104      0.0402
    104  CG        29.2290  449.5480  703.1830 C.3   104  GLU104      0.1161
    105  CD        28.9650  449.7200  701.6970 C.2   104  GLU104      0.3649
    106  OE1       28.4000  448.7930  701.0850 O.co2 104  GLU104     -0.2457
    107  OE2       29.3220  450.7790  701.1410 O.co2 104  GLU104     -0.2457
    108  N         25.9170  448.7510  702.4610 N.am  105  ILE105     -0.1966
    109  CA        25.2230  447.4770  702.2980 C.3   105  ILE105      0.1727
    110  C         26.1810  446.4890  701.6470 C.2   105  ILE105      0.2617
    111  O         26.7080  446.7490  700.5590 O.2   105  ILE105     -0.2715
    112  CB        23.9420  447.6310  701.4660 C.3   105  ILE105      0.0290
    113  CG1       22.9710  448.5900  702.1610 C.3   105  ILE105      0.0022
    114  CG2       23.3050  446.2690  701.2200 C.3   105  ILE105      0.0023
    115  CD1       21.9430  447.9070  703.0320 C.3   105  ILE105      0.0001
    116  N         26.3990  445.3560  702.3040 N.am  106  GLY106     -0.1940
    117  CA        27.2720  444.3030  701.7960 C.3   106  GLY106      0.2014
    118  C         26.5010  443.0470  701.5050 C.2   106  GLY106      0.2638
    119  O         25.5520  442.6950  702.2220 O.2   106  GLY106     -0.2714
    120  N         26.8890  442.3520  700.4300 N.am  107  VAL107     -0.1977
    121  CA        26.3150  441.0630  700.0610 C.3   107  VAL107      0.1596
    122  C         27.4680  440.1330  699.7080 C.2   107  VAL107      0.2287
    123  O         28.2530  440.4380  698.8050 O.2   107  VAL107     -0.2864
    124  CB        25.3350  441.1680  698.8810 C.3   107  VAL107      0.0276
    125  CG1       24.9500  439.7820  698.4100 C.3   107  VAL107      0.0022
    126  CG2       24.1020  441.9700  699.2720 C.3   107  VAL107      0.0022
    127  N         29.3800  435.9280  699.6570 N.3   109  ARG109     -0.1245
    128  CA        29.3450  434.4730  699.6000 C.3   109  ARG109      0.1563
    129  C         30.2980  433.8580  700.6250 C.2   109  ARG109      0.2260
    130  O         30.7730  432.7340  700.4400 O.2   109  ARG109     -0.2867
    131  CB        29.6840  433.9880  698.1920 C.3   109  ARG109      0.0307
    132  CG        28.4930  434.2530  697.1980 C.3   109  ARG109      0.0489
    133  CD        28.5590  435.6960  696.6660 C.3   109  ARG109      0.2205
    134  NE        29.5420  435.7360  695.5440 N.pl3 109  ARG109     -0.0865
    135  CZ        30.0820  436.8740  695.0550 C.cat 109  ARG109      0.5346
    136  NH1       29.8450  438.0860  695.6460 N.pl3 109  ARG109      0.1354
    137  NH2       30.8690  436.7620  693.9760 N.pl3 109  ARG109      0.1354
    138  N         33.5610  439.5300  706.2510 N.3   115  TYR115     -0.1241
    139  CA        33.3680  440.6690  705.3560 C.3   115  TYR115      0.1605
    140  C         33.1730  441.9640  706.1310 C.2   115  TYR115      0.2264
    141  O         33.6510  443.0220  705.7050 O.2   115  TYR115     -0.2867
    142  CB        32.1840  440.4320  704.4230 C.3   115  TYR115      0.0534
    143  CG        32.0210  441.5180  703.3730 C.ar  115  TYR115     -0.0201
    144  CD1       32.9190  441.6340  702.3160 C.ar  115  TYR115     -0.0009
    145  CD2       30.9600  442.4120  703.4270 C.ar  115  TYR115     -0.0009
    146  CE1       32.7670  442.6180  701.3500 C.ar  115  TYR115      0.0417
    147  CE2       30.7990  443.3970  702.4670 C.ar  115  TYR115      0.0417
    148  CZ        31.7050  443.4960  701.4310 C.ar  115  TYR115      0.1957
    149  OH        31.5480  444.4750  700.4760 O.3   115  TYR115     -0.2866
    150  N         35.1380  445.2710  705.5780 N.3   119  LYS119     -0.1245
    151  CA        34.3110  446.4170  705.2120 C.3   119  LYS119      0.1561
    152  C         34.5480  447.5880  706.1560 C.2   119  LYS119      0.2260
    153  O         34.5080  448.7490  705.7340 O.2   119  LYS119     -0.2867
    154  CB        32.8330  446.0250  705.2010 C.3   119  LYS119      0.0271
    155  CG        31.9080  447.2090  704.7330 C.3   119  LYS119      0.0035
    156  CD        32.1770  447.4320  703.2120 C.3   119  LYS119      0.0206
    157  CE        32.3760  448.9170  702.9570 C.3   119  LYS119      0.1093
    158  NZ        32.6750  449.1260  701.4810 N.3   119  LYS119     -0.1314
    159  N         38.2570  449.1790  705.3760 N.3   122  LYS122     -0.1245
    160  CA        38.3210  450.1180  704.2620 C.3   122  LYS122      0.1561
    161  C         37.4790  451.3620  704.5120 C.2   122  LYS122      0.2260
    162  O         37.7820  452.4290  703.9660 O.2   122  LYS122     -0.2867
    163  CB        37.8730  449.4330  702.9690 C.3   122  LYS122      0.0271
    164  CG        38.9740  448.4070  702.5870 C.3   122  LYS122      0.0035
    165  CD        38.6170  447.8870  701.1980 C.3   122  LYS122      0.0206
    166  CE        38.7660  446.3630  701.2320 C.3   122  LYS122      0.1093
    167  NZ        37.9740  445.8970  702.4320 N.3   122  LYS122     -0.1314
@<TRIPOS>BOND
     1    28    29    2
     2    28    27    1
     3    27    26    1
     4    27    30    1
     5     8     9    2
     6     8     7    1
     7    30    31    1
     8    10     7    1
     9    10    11    1
    10    16    17    2
    11    16    15    1
    12     7     6    1
    13    13    12    1
    14    31    32    1
    15    12    11    1
    16     1     2    1
    17    14    15    1
    18     6     3   am
    19    15    18    1
    20     3     2    1
    21     3     4    2
    22     2     5    1
    23    32    33   ar
    24    32    34   ar
    25    18    19    1
    26    35    36    1
    27    37    36    1
    28    37    38    2
    29    19    20   ar
    30    19    21   ar
    31    20    22   ar
    32    39    36    1
    33    39    40    1
    34    42    43    1
    35    42    41    1
    36    56    54    1
    37    21    23   ar
    38    40    41    1
    39    22    24   ar
    40    55    53    1
    41    53    54    1
    42    53    50    1
    43    23    24   ar
    44    24    25    1
    45    44    45    1
    46    51    50    1
    47    51    52    2
    48    49    50    1
    49    49    46   am
    50    45    46    1
    51    45    48    1
    52    46    47    2
    53    74    73   ar
    54    70    69    2
    55    69    68    1
    56   137   135    1
    57    73    72    1
    58    73    75   ar
    59    57    58    1
    60    72    71    1
    61    68    71    1
    62    68    67    1
    63    82    81    1
    64   135   134    2
    65   135   136    1
    66    59    58    1
    67    59    60    2
    68    61    58    1
    69    61    62    1
    70   134   133    1
    71    63    62   ar
    72    63    65   ar
    73    81    83    1
    74    81    80    1
    75    62    64   ar
    76   133   132    1
    77    65    66   ar
    78    80    77    1
    79   132   131    1
    80    64    66   ar
    81   131   128    1
    82    97    96   ar
    83   125   124    1
    84    77    76    1
    85    77    78    1
    86    87    86    2
    87   123   122    2
    88    94    93    2
    89   124   126    1
    90   124   121    1
    91    96    95    1
    92    96    98   ar
    93    79    78    2
    94    78    84   am
    95    92    95    1
    96    92    93    1
    97    92    91    1
    98   128   127    1
    99   128   129    1
   100   122   121    1
   101    86    91   am
   102    86    85    1
   103   121   120    1
   104    84    90    1
   105    84    85    1
   106   120   118   am
   107   130   129    2
   108   149   148    1
   109   111   110    2
   110    90    89    1
   111    85    88    1
   112   106   105   ar
   113   107   105   ar
   114   165   166    1
   115   165   164    1
   116   114   112    1
   117   166   167    1
   118   146   148   ar
   119   146   144   ar
   120   148   147   ar
   121   112   113    1
   122   112   109    1
   123   158   157    1
   124   118   117    1
   125   118   119    2
   126    89    88    1
   127   110   109    1
   128   110   116   am
   129   105   104    1
   130   117   116    1
   131   113   115    1
   132   109   108    1
   133   144   143   ar
   134   108   101   am
   135   147   145   ar
   136   164   163    1
   137   157   156    1
   138   163   160    1
   139   104   103    1
   140   156   155    1
   141   143   145   ar
   142   143   142    1
   143   101   100    1
   144   101   102    2
   145   100   103    1
   146   100    99    1
   147   162   161    2
   148   160   161    1
   149   160   159    1
   150   142   139    1
   151   155   154    1
   152   154   151    1
   153   151   150    1
   154   151   152    1
   155   139   140    1
   156   139   138    1
   157   141   140    2
   158   153   152    2
