@<TRIPOS>MOLECULE
tmp/5wdyA01.pdb
 172 159 0 0 0
SMALL
GASTEIGER

@<TRIPOS>ATOM
      1  N        -13.5160   -5.0820   -5.4800 N.3    26  LYS26      -0.1245
      2  CA       -12.6600   -6.1610   -5.0120 C.3    26  LYS26       0.1561
      3  C        -13.3920   -6.9730   -3.9540 C.2    26  LYS26       0.2260
      4  O        -13.6680   -6.4820   -2.8520 O.2    26  LYS26      -0.2867
      5  CB       -11.3330   -5.6200   -4.4980 C.3    26  LYS26       0.0271
      6  CG       -10.4840   -6.6690   -3.8260 C.3    26  LYS26       0.0035
      7  CD        -9.0230   -6.3580   -4.0010 C.3    26  LYS26       0.0206
      8  CE        -8.7210   -4.9170   -3.7400 C.3    26  LYS26       0.1093
      9  NZ        -9.1970   -4.5080   -2.4290 N.3    26  LYS26      -0.1314
     10  N         -8.7680  -12.8530   -4.9460 N.3    43  CYS43      -0.1235
     11  CA        -9.4980  -11.6280   -5.2380 C.3    43  CYS43       0.1677
     12  C        -10.0980  -11.7050   -6.6330 C.2    43  CYS43       0.2270
     13  O         -9.4400  -12.1510   -7.5760 O.2    43  CYS43      -0.2867
     14  CB        -8.5880  -10.4000   -5.1400 C.3    43  CYS43       0.0956
     15  SG        -7.2970  -10.4900   -3.8750 S.3    43  CYS43      -0.0801
     16  N        -12.5180   -9.2590   -9.3650 N.3    45  LEU45      -0.1245
     17  CA       -13.1100   -7.9590   -9.6440 C.3    45  LEU45       0.1561
     18  C        -14.1540   -8.0780  -10.7470 C.2    45  LEU45       0.2260
     19  O        -14.2270   -9.0850  -11.4550 O.2    45  LEU45      -0.2867
     20  CB       -12.0380   -6.9280  -10.0240 C.3    45  LEU45       0.0270
     21  CG       -10.6660   -7.0170   -9.3490 C.3    45  LEU45       0.0019
     22  CD1       -9.6980   -6.0390   -9.9940 C.3    45  LEU45       0.0001
     23  CD2      -10.7600   -6.7740   -7.8580 C.3    45  LEU45       0.0001
     24  N        -14.1530   -6.9230  -16.6030 N.3    48  ARG48      -0.1245
     25  CA       -13.6590   -5.8280  -17.4180 C.3    48  ARG48       0.1563
     26  C        -13.9750   -6.1630  -18.8670 C.2    48  ARG48       0.2260
     27  O        -13.5080   -7.1800  -19.3900 O.2    48  ARG48      -0.2867
     28  CB       -12.1710   -5.6570  -17.1570 C.3    48  ARG48       0.0307
     29  CG       -11.8470   -5.9870  -15.7050 C.3    48  ARG48       0.0489
     30  CD       -10.3910   -5.7590  -15.3810 C.3    48  ARG48       0.2205
     31  NE        -9.9230   -4.4500  -15.8320 N.pl3  48  ARG48      -0.0865
     32  CZ       -10.4800   -3.2740  -15.5360 C.cat  48  ARG48       0.5346
     33  NH1      -11.5430   -3.1770  -14.7410 N.pl3  48  ARG48       0.1354
     34  NH2       -9.9450   -2.1700  -16.0340 N.pl3  48  ARG48       0.1354
     35  N         -3.2560   -6.5880  -20.3220 N.3    58  PHE58      -0.1241
     36  CA        -3.3880   -7.0920  -18.9590 C.3    58  PHE58       0.1605
     37  C         -2.5010   -8.3110  -18.7430 C.2    58  PHE58       0.2264
     38  O         -1.8850   -8.4610  -17.6810 O.2    58  PHE58      -0.2867
     39  CB        -4.8510   -7.4280  -18.6630 C.3    58  PHE58       0.0534
     40  CG        -5.0710   -8.0710  -17.3210 C.ar   58  PHE58      -0.0203
     41  CD1       -5.4550   -7.3080  -16.2320 C.ar   58  PHE58      -0.0042
     42  CD2       -4.9180   -9.4430  -17.1500 C.ar   58  PHE58      -0.0042
     43  CE1       -5.6620   -7.8910  -14.9980 C.ar   58  PHE58      -0.0003
     44  CE2       -5.1210  -10.0280  -15.9200 C.ar   58  PHE58      -0.0003
     45  CZ        -5.4920   -9.2510  -14.8420 C.ar   58  PHE58      -0.0000
     46  N          1.1160   -7.3410  -18.3640 N.3    61  GLU61      -0.1231
     47  CA         1.2740   -6.6540  -17.0860 C.3    61  GLU61       0.1699
     48  C          1.2900   -7.6340  -15.9200 C.2    61  GLU61       0.2592
     49  O          2.0120   -7.4140  -14.9400 O.2    61  GLU61      -0.2718
     50  CB         0.1570   -5.6240  -16.8980 C.3    61  GLU61       0.0402
     51  CG         0.2550   -4.4180  -17.8180 C.3    61  GLU61       0.1161
     52  CD        -0.9630   -3.5130  -17.7360 C.2    61  GLU61       0.3649
     53  OE1       -2.0390   -3.9970  -17.3270 O.co2  61  GLU61      -0.2457
     54  OE2       -0.8470   -2.3170  -18.0830 O.co2  61  GLU61      -0.2457
     55  N          0.5120   -8.7180  -16.0080 N.am   62  ALA62      -0.1980
     56  CA         0.4510   -9.6840  -14.9140 C.3    62  ALA62       0.1597
     57  C          1.7880  -10.3830  -14.7160 C.2    62  ALA62       0.2287
     58  O          2.1910  -10.6500  -13.5780 O.2    62  ALA62      -0.2864
     59  CB        -0.6530  -10.7070  -15.1740 C.3    62  ALA62       0.0319
     60  N          4.6650   -9.0360  -15.5610 N.3    64  MET64      -0.1230
     61  CA         5.5210   -8.0220  -14.9590 C.3    64  MET64       0.1702
     62  C          5.3850   -8.0520  -13.4430 C.2    64  MET64       0.2592
     63  O          6.3850   -8.1050  -12.7180 O.2    64  MET64      -0.2718
     64  CB         5.1780   -6.6370  -15.5080 C.3    64  MET64       0.0401
     65  CG         5.6950   -5.4830  -14.6510 C.3    64  MET64       0.0596
     66  SD         6.3080   -4.0960  -15.6310 S.3    64  MET64      -0.1393
     67  CE         5.1300   -4.0730  -16.9820 C.3    64  MET64       0.0692
     68  N          4.1420   -8.0590  -12.9500 N.am   65  LEU65      -0.1980
     69  CA         3.9060   -8.0610  -11.5100 C.3    65  LEU65       0.1596
     70  C          4.5240   -9.2750  -10.8280 C.2    65  LEU65       0.2287
     71  O          4.9070   -9.1960   -9.6560 O.2    65  LEU65      -0.2864
     72  CB         2.4070   -7.9970  -11.2250 C.3    65  LEU65       0.0297
     73  CG         1.6850   -6.7340  -11.6910 C.3    65  LEU65       0.0022
     74  CD1        0.1950   -6.8670  -11.4520 C.3    65  LEU65       0.0001
     75  CD2        2.2370   -5.5240  -10.9620 C.3    65  LEU65       0.0001
     76  N          8.1900   -8.6550   -9.6720 N.3    68  LEU68      -0.1245
     77  CA         8.3910   -7.9560   -8.4110 C.3    68  LEU68       0.1561
     78  C          8.4910   -8.9550   -7.2670 C.2    68  LEU68       0.2260
     79  O          7.7610   -9.9500   -7.2220 O.2    68  LEU68      -0.2867
     80  CB         7.2600   -6.9590   -8.1430 C.3    68  LEU68       0.0270
     81  CG         7.0240   -5.7260   -9.0310 C.3    68  LEU68       0.0019
     82  CD1        6.6670   -6.0480  -10.4680 C.3    68  LEU68       0.0001
     83  CD2        5.9460   -4.8450   -8.4130 C.3    68  LEU68       0.0001
     84  N          6.6230   -5.7280    0.0440 N.3    73  ILE73      -0.1231
     85  CA         5.5870   -5.6670   -0.9810 C.3    73  ILE73       0.1692
     86  C          4.8530   -6.9960   -0.9780 C.2    73  ILE73       0.2591
     87  O          5.4900   -8.0530   -0.9910 O.2    73  ILE73      -0.2718
     88  CB         6.1670   -5.4000   -2.3830 C.3    73  ILE73       0.0266
     89  CG1        7.0890   -4.1830   -2.3750 C.3    73  ILE73       0.0019
     90  CG2        5.0450   -5.2200   -3.3850 C.3    73  ILE73       0.0020
     91  CD1        6.3730   -2.8840   -2.5910 C.3    73  ILE73       0.0001
     92  N          3.5190   -6.9490   -0.9800 N.am   74  VAL74      -0.1980
     93  CA         2.7470   -8.1850   -0.9990 C.3    74  VAL74       0.1595
     94  C          2.9690   -8.8860   -2.3330 C.2    74  VAL74       0.2287
     95  O          2.9630   -8.2550   -3.4010 O.2    74  VAL74      -0.2864
     96  CB         1.2590   -7.9100   -0.7240 C.3    74  VAL74       0.0276
     97  CG1        1.1090   -6.9320    0.4200 C.3    74  VAL74       0.0022
     98  CG2        0.5300   -7.4100   -1.9550 C.3    74  VAL74       0.0022
     99  N          2.7100  -11.1420   -5.6810 N.3    76  PHE76      -0.1241
    100  CA         1.7340  -11.3790   -6.7360 C.3    76  PHE76       0.1605
    101  C          2.0550  -12.7100   -7.4040 C.2    76  PHE76       0.2264
    102  O          3.0990  -12.8450   -8.0520 O.2    76  PHE76      -0.2867
    103  CB         1.7660  -10.2450   -7.7610 C.3    76  PHE76       0.0534
    104  CG         0.8050  -10.4280   -8.8980 C.ar   76  PHE76      -0.0203
    105  CD1       -0.4810   -9.9310   -8.8110 C.ar   76  PHE76      -0.0042
    106  CD2        1.1850  -11.1010  -10.0510 C.ar   76  PHE76      -0.0042
    107  CE1       -1.3720  -10.0940   -9.8480 C.ar   76  PHE76      -0.0003
    108  CE2        0.2930  -11.2720  -11.0950 C.ar   76  PHE76      -0.0003
    109  CZ        -0.9880  -10.7660  -10.9930 C.ar   76  PHE76      -0.0000
    110  N         -7.6730  -12.0850   -9.3830 N.3    87  LEU87      -0.1245
    111  CA        -6.2790  -11.8560   -9.0350 C.3    87  LEU87       0.1561
    112  C         -5.9340  -12.7070   -7.8180 C.2    87  LEU87       0.2260
    113  O         -6.8070  -13.0410   -7.0120 O.2    87  LEU87      -0.2867
    114  CB        -6.0280  -10.3700   -8.7360 C.3    87  LEU87       0.0270
    115  CG        -5.7240   -9.3790   -9.8680 C.3    87  LEU87       0.0019
    116  CD1       -4.6160   -9.8410  -10.7960 C.3    87  LEU87       0.0001
    117  CD2       -6.9930   -9.0630  -10.6500 C.3    87  LEU87       0.0001
    118  N         -2.9010  -13.0700   -4.7800 N.3    89  THR89      -0.1218
    119  CA        -1.7470  -12.4640   -4.1220 C.3    89  THR89       0.1862
    120  C         -1.5910  -13.0410   -2.7200 C.2    89  THR89       0.2287
    121  O         -2.4550  -13.7640   -2.2180 O.2    89  THR89      -0.2866
    122  CB        -1.8730  -10.9310   -4.0370 C.3    89  THR89       0.1770
    123  OG1       -3.0380  -10.5830   -3.2750 O.3    89  THR89      -0.2211
    124  CG2       -1.9710  -10.3060   -5.4250 C.3    89  THR89       0.0375
    125  N          7.5590    1.8940  -11.3970 N.3   133  ILE133     -0.1245
    126  CA         6.1560    1.7330  -11.0330 C.3   133  ILE133      0.1561
    127  C          5.8030    2.7950  -10.0040 C.2   133  ILE133      0.2260
    128  O          6.5090    2.9550   -9.0010 O.2   133  ILE133     -0.2867
    129  CB         5.8770    0.3240  -10.4810 C.3   133  ILE133      0.0252
    130  CG1        6.3510   -0.7380  -11.4720 C.3   133  ILE133      0.0019
    131  CG2        4.3960    0.1540  -10.1930 C.3   133  ILE133      0.0019
    132  CD1        6.1180   -2.1530  -11.0070 C.3   133  ILE133      0.0001
    133  N         -2.0670   -3.7580   -3.0440 N.3   156  ASP156     -0.1225
    134  CA        -3.0760   -3.0660   -3.8370 C.3   156  ASP156      0.1805
    135  C         -2.4380   -2.0730   -4.8010 C.2   156  ASP156      0.2598
    136  O         -2.4070   -0.8670   -4.5340 O.2   156  ASP156     -0.2718
    137  CB        -4.0890   -2.3600   -2.9320 C.3   156  ASP156      0.1424
    138  CG        -5.2880   -1.8290   -3.7030 C.2   156  ASP156      0.3668
    139  OD1       -5.4860   -2.2540   -4.8620 O.co2 156  ASP156     -0.2456
    140  OD2       -6.0350   -0.9920   -3.1500 O.co2 156  ASP156     -0.2456
    141  N         -1.9260   -2.5740   -5.9240 N.am  157  LEU157     -0.1966
    142  CA        -1.3540   -1.7450   -6.9770 C.3   157  LEU157      0.1728
    143  C         -2.3530   -1.4800   -8.0970 C.2   157  LEU157      0.2616
    144  O         -1.9550   -1.2880   -9.2500 O.2   157  LEU157     -0.2715
    145  CB        -0.0890   -2.3960   -7.5360 C.3   157  LEU157      0.0311
    146  CG         1.2210   -2.2680   -6.7490 C.3   157  LEU157      0.0022
    147  CD1        1.1610   -2.9490   -5.3850 C.3   157  LEU157      0.0001
    148  CD2        2.3650   -2.8310   -7.5720 C.3   157  LEU157      0.0001
    149  N         -3.6480   -1.4660   -7.7740 N.am  158  GLY158     -0.1955
    150  CA        -4.6620   -1.3400   -8.8100 C.3   158  GLY158      0.1869
    151  C         -4.6040   -0.0150   -9.5450 C.2   158  GLY158      0.2309
    152  O         -4.7020    0.0270  -10.7750 O.2   158  GLY158     -0.2863
    153  N         -2.0280    1.8680   -9.9490 N.3   160  ALA160     -0.1231
    154  CA        -0.6410    2.1610  -10.2730 C.3   160  ALA160      0.1694
    155  C         -0.4530    2.2990  -11.7820 C.2   160  ALA160      0.2593
    156  O         -1.2720    1.8380  -12.5810 O.2   160  ALA160     -0.2718
    157  CB         0.2800    1.0690   -9.7270 C.3   160  ALA160      0.0304
    158  N          0.6490    2.9440  -12.1650 N.am  161  THR161     -0.1939
    159  CA         0.9610    3.1820  -13.5690 C.3   161  THR161      0.2028
    160  C          2.4580    3.0290  -13.7890 C.2   161  THR161      0.2642
    161  O          3.2540    3.0680  -12.8470 O.2   161  THR161     -0.2714
    162  CB         0.5410    4.5830  -14.0350 C.3   161  THR161      0.1808
    163  OG1        1.0900    4.8350  -15.3340 O.3   161  THR161     -0.2208
    164  CG2        1.0870    5.6310  -13.0820 C.3   161  THR161      0.0379
    165  N          2.8330    2.8640  -15.0520 N.am  162  LEU162     -0.1977
    166  CA         4.2320    2.8620  -15.4430 C.3   162  LEU162      0.1596
    167  C          4.7140    4.2930  -15.6410 C.2   162  LEU162      0.2287
    168  O          3.9610    5.1690  -16.0720 O.2   162  LEU162     -0.2864
    169  CB         4.4490    2.0640  -16.7310 C.3   162  LEU162      0.0297
    170  CG         4.2270    0.5480  -16.7270 C.3   162  LEU162      0.0022
    171  CD1        4.7980   -0.0640  -15.4580 C.3   162  LEU162      0.0001
    172  CD2        2.7510    0.1950  -16.8850 C.3   162  LEU162      0.0001
@<TRIPOS>BOND
     1    35    36    1
     2    27    26    2
     3    36    37    1
     4    36    39    1
     5    26    25    1
     6    37    38    2
     7    39    40    1
     8    46    47    1
     9    54    52   ar
    10    51    52    1
    11    51    50    1
    12    52    53   ar
    13    25    28    1
    14    25    24    1
    15    40    42   ar
    16    40    41   ar
    17    28    29    1
    18    42    44   ar
    19    47    50    1
    20    47    48    1
    21    67    66    1
    22   172   170    1
    23   169   170    1
    24   169   166    1
    25   170   171    1
    26    41    43   ar
    27   168   167    2
    28    34    32    1
    29    55    48   am
    30    55    56    1
    31    48    49    2
    32    44    45   ar
    33    31    32    2
    34    31    30    1
    35    29    30    1
    36   167   166    1
    37    66    65    1
    38    60    61    1
    39    32    33    1
    40    64    61    1
    41    64    65    1
    42   166   165    1
    43   163   162    1
    44    59    56    1
    45   165   160   am
    46    43    45   ar
    47    61    62    1
    48    56    57    1
    49    57    58    2
    50   162   159    1
    51   162   164    1
    52   160   159    1
    53   160   161    2
    54   159   158    1
    55    62    68   am
    56    62    63    2
    57    68    69    1
    58   156   155    2
    59   158   155   am
    60   155   154    1
    61    73    74    1
    62    73    72    1
    63    73    75    1
    64    69    72    1
    65    69    70    1
    66   130   132    1
    67   130   129    1
    68    19    18    2
    69   125   126    1
    70   108   109   ar
    71   108   106   ar
    72   126   129    1
    73   126   127    1
    74   109   107   ar
    75    70    71    2
    76   116   115    1
    77   152   151    2
    78    18    17    1
    79   117   115    1
    80   129   131    1
    81    82    81    1
    82   154   153    1
    83   154   157    1
    84   106   104   ar
    85    20    17    1
    86    20    21    1
    87   127   128    2
    88    22    21    1
    89   115   114    1
    90   107   105   ar
    91    76    77    1
    92    17    16    1
    93   151   150    1
    94   110   111    1
    95    21    23    1
    96   144   143    2
    97   111   114    1
    98   111   112    1
    99    81    83    1
   100    81    80    1
   101   104   105   ar
   102   104   103    1
   103   150   149    1
   104    77    80    1
   105    77    78    1
   106   143   149   am
   107   143   142    1
   108   102   101    2
   109   112   113    2
   110   103   100    1
   111    13    12    2
   112   148   146    1
   113   145   142    1
   114   145   146    1
   115   101   100    1
   116    78    79    2
   117   142   141    1
   118   146   147    1
   119   100    99    1
   120    12    11    1
   121   141   135   am
   122     1     2    1
   123   124   122    1
   124    11    14    1
   125    11    10    1
   126    14    15    1
   127     2     5    1
   128     2     3    1
   129   139   138   ar
   130   135   136    2
   131   135   134    1
   132   118   119    1
   133     5     6    1
   134   119   122    1
   135   119   120    1
   136   122   123    1
   137     7     6    1
   138     7     8    1
   139     3     4    2
   140   134   133    1
   141   134   137    1
   142     8     9    1
   143   138   140   ar
   144   138   137    1
   145    95    94    2
   146    90    88    1
   147   120   121    2
   148    91    89    1
   149    88    89    1
   150    88    85    1
   151    94    93    1
   152    98    96    1
   153    93    92    1
   154    93    96    1
   155    87    86    2
   156    85    86    1
   157    85    84    1
   158    92    86   am
   159    96    97    1
