@<TRIPOS>MOLECULE
tmp/5we7A00.pdb
 181 170 0 0 0
SMALL
GASTEIGER

@<TRIPOS>ATOM
      1  N         38.2330  -24.8510    8.4520 N.3    31  GLU31      -0.1245
      2  CA        36.8290  -25.0550    8.0930 C.3    31  GLU31       0.1567
      3  C         36.6160  -24.6140    6.6440 C.2    31  GLU31       0.2260
      4  O         35.9450  -23.6250    6.3410 O.2    31  GLU31      -0.2867
      5  CB        35.9180  -24.3020    9.0520 C.3    31  GLU31       0.0388
      6  CG        36.2510  -24.5230   10.5180 C.3    31  GLU31       0.1160
      7  CD        35.0300  -24.8620   11.3480 C.2    31  GLU31       0.3649
      8  OE1       34.5850  -26.0280   11.3030 O.co2  31  GLU31      -0.2457
      9  OE2       34.5160  -23.9630   12.0450 O.co2  31  GLU31      -0.2457
     10  N         35.0350  -26.0880    4.1130 N.3    33  ASN33      -0.1225
     11  CA        33.7050  -26.2360    3.5310 C.3    33  ASN33       0.1785
     12  C         32.8020  -25.0710    3.9130 C.2    33  ASN33       0.2597
     13  O         32.0480  -24.5620    3.0750 O.2    33  ASN33      -0.2718
     14  CB        33.0840  -27.5630    3.9640 C.3    33  ASN33       0.1169
     15  CG        33.6460  -28.7450    3.2010 C.2    33  ASN33       0.2627
     16  OD1       33.6080  -29.8790    3.6770 O.2    33  ASN33      -0.2716
     17  ND2       34.1710  -28.4850    2.0080 N.am   33  ASN33      -0.0877
     18  N         32.8620  -24.6360    5.1740 N.am   34  LYS34      -0.1980
     19  CA        32.0990  -23.4630    5.5880 C.3    34  LYS34       0.1596
     20  C         32.6040  -22.2060    4.8890 C.2    34  LYS34       0.2287
     21  O         31.8160  -21.3140    4.5570 O.2    34  LYS34      -0.2864
     22  CB        32.1710  -23.3010    7.1060 C.3    34  LYS34       0.0298
     23  CG        31.4490  -22.0750    7.6360 C.3    34  LYS34       0.0038
     24  CD        31.8620  -21.7710    9.0660 C.3    34  LYS34       0.0206
     25  CE        30.9800  -22.5040   10.0630 C.3    34  LYS34       0.1093
     26  NZ        29.9130  -21.6200   10.6110 N.3    34  LYS34      -0.1314
     27  N         31.0800  -22.2350    1.5590 N.3    37  ALA37      -0.1231
     28  CA        29.6350  -22.0750    1.6610 C.3    37  ALA37       0.1694
     29  C         29.2570  -20.6310    1.9760 C.2    37  ALA37       0.2591
     30  O         28.2430  -20.1270    1.4770 O.2    37  ALA37      -0.2718
     31  CB        29.0850  -23.0330    2.7150 C.3    37  ALA37       0.0304
     32  N         30.0600  -19.9480    2.7940 N.am   38  ILE38      -0.1980
     33  CA        29.8120  -18.5330    3.0620 C.3    38  ILE38       0.1595
     34  C         30.0300  -17.7040    1.8000 C.2    38  ILE38       0.2287
     35  O         29.2320  -16.8120    1.4820 O.2    38  ILE38      -0.2864
     36  CB        30.6970  -18.0440    4.2220 C.3    38  ILE38       0.0276
     37  CG1       30.2900  -18.7240    5.5280 C.3    38  ILE38       0.0022
     38  CG2       30.6050  -16.5350    4.3680 C.3    38  ILE38       0.0022
     39  CD1       31.1850  -18.3730    6.6930 C.3    38  ILE38       0.0001
     40  N         27.0390  -18.3540   -0.5960 N.3    41  HIS41      -0.1241
     41  CA        25.8220  -17.6890   -0.1490 C.3    41  HIS41       0.1621
     42  C         25.9140  -16.1810   -0.3440 C.2    41  HIS41       0.2264
     43  O         24.9310  -15.5360   -0.7270 O.2    41  HIS41      -0.2867
     44  CB        25.5580  -18.0320    1.3170 C.3    41  HIS41       0.0745
     45  CG        24.3720  -17.3300    1.8970 C.ar   41  HIS41       0.0817
     46  ND1       24.4800  -16.1640    2.6240 N.ar   41  HIS41      -0.2268
     47  CD2       23.0520  -17.6310    1.8610 C.ar   41  HIS41       0.1154
     48  CE1       23.2770  -15.7760    3.0090 C.ar   41  HIS41       0.1986
     49  NE2       22.3930  -16.6490    2.5590 N.ar   41  HIS41      -0.2212
     50  N         22.8240   -9.0400    4.2540 N.3    61  GLU61      -0.1245
     51  CA        23.9020  -10.0010    4.4420 C.3    61  GLU61       0.1567
     52  C         25.2510   -9.3710    4.1050 C.2    61  GLU61       0.2260
     53  O         25.3460   -8.4410    3.3010 O.2    61  GLU61      -0.2867
     54  CB        23.6590  -11.2320    3.5620 C.3    61  GLU61       0.0388
     55  CG        24.6590  -12.3710    3.7330 C.3    61  GLU61       0.1160
     56  CD        24.7700  -12.8460    5.1710 C.2    61  GLU61       0.3649
     57  OE1       25.6120  -12.3040    5.9160 O.co2  61  GLU61      -0.2457
     58  OE2       24.0110  -13.7590    5.5570 O.co2  61  GLU61      -0.2457
     59  N         26.8810   -7.2900   11.7920 N.3    65  ARG65      -0.1245
     60  CA        25.5470   -7.6820   12.2390 C.3    65  ARG65       0.1563
     61  C         24.9160   -6.6210   13.1240 C.2    65  ARG65       0.2260
     62  O         23.7110   -6.3590   13.0300 O.2    65  ARG65      -0.2867
     63  CB        25.6150   -9.0100   12.9820 C.3    65  ARG65       0.0307
     64  CG        25.8900  -10.1840   12.0850 C.3    65  ARG65       0.0489
     65  CD        25.2210  -11.4220   12.6180 C.3    65  ARG65       0.2205
     66  NE        25.3360  -12.5230   11.6750 N.pl3  65  ARG65      -0.0865
     67  CZ        24.3040  -13.0830   11.0560 C.cat  65  ARG65       0.5346
     68  NH1       24.5070  -14.0780   10.2100 N.pl3  65  ARG65       0.1354
     69  NH2       23.0720  -12.6510   11.2900 N.pl3  65  ARG65       0.1354
     70  N         18.0950  -11.8430   11.6590 N.3    87  LEU87      -0.1231
     71  CA        18.5930  -10.9550   10.6190 C.3    87  LEU87       0.1678
     72  C         18.3880  -11.5890    9.2460 C.2    87  LEU87       0.2434
     73  O         18.9530  -12.6600    8.9770 O.2    87  LEU87      -0.2733
     74  CB        20.0700  -10.6540   10.8510 C.3    87  LEU87       0.0284
     75  CG        20.6130   -9.3580   10.2500 C.3    87  LEU87       0.0019
     76  CD1       19.8820   -8.1530   10.8200 C.3    87  LEU87       0.0001
     77  CD2       22.1080   -9.2500   10.5010 C.3    87  LEU87       0.0001
     78  N         17.5890  -10.9830    8.3610 N.am   88  PRO88      -0.2718
     79  CA        17.3980  -11.5580    7.0220 C.3    88  PRO88       0.1535
     80  C         18.5660  -11.2430    6.1000 C.2    88  PRO88       0.2598
     81  O         19.6020  -10.7460    6.5550 O.2    88  PRO88      -0.2715
     82  CB        16.1000  -10.8970    6.5310 C.3    88  PRO88       0.0310
     83  CG        15.5740  -10.0860    7.7050 C.3    88  PRO88       0.0237
     84  CD        16.7580   -9.7890    8.5620 C.3    88  PRO88       0.0939
     85  N         18.4170  -11.5210    4.8040 N.am   89  ASP89      -0.1972
     86  CA        19.4840  -11.2570    3.8450 C.3    89  ASP89       0.1709
     87  C         19.2260  -10.0420    2.9670 C.2    89  ASP89       0.2293
     88  O         20.1780   -9.3550    2.5850 O.2    89  ASP89      -0.2864
     89  CB        19.7260  -12.4700    2.9410 C.3    89  ASP89       0.1436
     90  CG        20.2890  -13.6500    3.6920 C.2    89  ASP89       0.3671
     91  OD1       19.5380  -14.6150    3.9410 O.co2  89  ASP89      -0.2456
     92  OD2       21.4750  -13.5810    4.0860 O.co2  89  ASP89      -0.2456
     93  N         14.7640  -14.0400    3.0340 N.3   100  GLU100     -0.1231
     94  CA        15.8070  -14.9620    3.4630 C.3   100  GLU100      0.1699
     95  C         16.2490  -15.7850    2.2590 C.2   100  GLU100      0.2592
     96  O         15.4210  -16.4250    1.6020 O.2   100  GLU100     -0.2718
     97  CB        15.3180  -15.8760    4.5860 C.3   100  GLU100      0.0402
     98  CG        16.2790  -17.0170    4.9040 C.3   100  GLU100      0.1161
     99  CD        17.6410  -16.5250    5.3750 C.2   100  GLU100      0.3649
    100  OE1       17.7050  -15.4530    6.0130 O.co2 100  GLU100     -0.2457
    101  OE2       18.6530  -17.2030    5.0980 O.co2 100  GLU100     -0.2457
    102  N         17.5450  -15.7620    1.9670 N.am  101  ILE101     -0.1966
    103  CA        18.1130  -16.5240    0.8610 C.3   101  ILE101      0.1727
    104  C         18.7420  -17.7900    1.4180 C.2   101  ILE101      0.2617
    105  O         19.5500  -17.7330    2.3510 O.2   101  ILE101     -0.2715
    106  CB        19.1460  -15.6970    0.0810 C.3   101  ILE101      0.0290
    107  CG1       18.4800  -14.4680   -0.5280 C.3   101  ILE101      0.0022
    108  CG2       19.7840  -16.5400   -1.0160 C.3   101  ILE101      0.0023
    109  CD1       17.4620  -14.7890   -1.5990 C.3   101  ILE101      0.0001
    110  N         18.3700  -18.9290    0.8510 N.am  102  GLY102     -0.1940
    111  CA        18.9510  -20.2120    1.2130 C.3   102  GLY102      0.2014
    112  C         19.7230  -20.7840    0.0420 C.2   102  GLY102      0.2638
    113  O         19.2530  -20.7570   -1.0990 O.2   102  GLY102     -0.2714
    114  N         20.9230  -21.2840    0.3290 N.am  103  VAL103     -0.1977
    115  CA        21.7380  -22.0170   -0.6300 C.3   103  VAL103      0.1596
    116  C         22.1430  -23.3190    0.0390 C.2   103  VAL103      0.2287
    117  O         22.8350  -23.3010    1.0640 O.2   103  VAL103     -0.2864
    118  CB        22.9770  -21.2230   -1.0700 C.3   103  VAL103      0.0276
    119  CG1       23.8080  -22.0400   -2.0460 C.3   103  VAL103      0.0022
    120  CG2       22.5680  -19.8950   -1.6890 C.3   103  VAL103      0.0022
    121  N         23.0910  -27.7460   -0.2800 N.3   105  ARG105     -0.1245
    122  CA        23.4530  -28.9650   -0.9860 C.3   105  ARG105      0.1563
    123  C         22.5130  -30.1150   -0.6610 C.2   105  ARG105      0.2260
    124  O         22.6860  -31.2130   -1.1970 O.2   105  ARG105     -0.2867
    125  CB        24.8940  -29.3660   -0.6520 C.3   105  ARG105      0.0307
    126  CG        25.9460  -28.4130   -1.1880 C.3   105  ARG105      0.0489
    127  CD        26.2240  -27.2920   -0.2060 C.3   105  ARG105      0.2205
    128  NE        27.1000  -27.7180    0.8770 N.pl3 105  ARG105     -0.0865
    129  CZ        27.2900  -27.0230    1.9920 C.cat 105  ARG105      0.5346
    130  NH1       26.6590  -25.8700    2.1640 N.pl3 105  ARG105      0.1354
    131  NH2       28.1050  -27.4820    2.9310 N.pl3 105  ARG105      0.1354
    132  N         15.1140  -28.1170    3.0280 N.3   111  TYR111     -0.1241
    133  CA        15.7820  -26.9130    3.5070 C.3   111  TYR111      0.1605
    134  C         14.7870  -25.7810    3.7260 C.2   111  TYR111      0.2264
    135  O         14.8770  -25.0510    4.7210 O.2   111  TYR111     -0.2867
    136  CB        16.8670  -26.4930    2.5150 C.3   111  TYR111      0.0534
    137  CG        17.8950  -25.5340    3.0740 C.ar  111  TYR111     -0.0201
    138  CD1       17.8930  -24.1950    2.7070 C.ar  111  TYR111     -0.0009
    139  CD2       18.8720  -25.9690    3.9600 C.ar  111  TYR111     -0.0009
    140  CE1       18.8320  -23.3160    3.2070 C.ar  111  TYR111      0.0417
    141  CE2       19.8160  -25.0960    4.4670 C.ar  111  TYR111      0.0417
    142  CZ        19.7910  -23.7700    4.0870 C.ar  111  TYR111      0.1957
    143  OH        20.7270  -22.8950    4.5880 O.3   111  TYR111     -0.2866
    144  N         14.0920  -23.6970    7.3090 N.3   115  LYS115     -0.1245
    145  CA        14.0910  -22.2410    7.4030 C.3   115  LYS115      0.1561
    146  C         12.7290  -21.7230    7.8470 C.2   115  LYS115      0.2260
    147  O         12.6430  -20.8350    8.7030 O.2   115  LYS115     -0.2867
    148  CB        14.4830  -21.6240    6.0590 C.3   115  LYS115      0.0271
    149  CG        15.9230  -21.8790    5.6340 C.3   115  LYS115      0.0035
    150  CD        16.8830  -20.9110    6.3080 C.3   115  LYS115      0.0206
    151  CE        18.1910  -20.8170    5.5410 C.3   115  LYS115      0.1093
    152  NZ        19.3420  -20.5140    6.4330 N.3   115  LYS115     -0.1314
    153  N         12.3410  -22.2940   11.5110 N.3   118  LYS118     -0.1245
    154  CA        13.2570  -21.4890   12.3130 C.3   118  LYS118      0.1561
    155  C         12.9110  -20.0080   12.2210 C.2   118  LYS118      0.2260
    156  O         12.8570  -19.3110   13.2410 O.2   118  LYS118     -0.2867
    157  CB        14.7010  -21.7350   11.8730 C.3   118  LYS118      0.0271
    158  CG        15.7460  -20.8800   12.6560 C.3   118  LYS118      0.0035
    159  CD        17.1000  -21.5360   12.4640 C.3   118  LYS118      0.0206
    160  CE        18.2570  -20.6150   12.2010 C.3   118  LYS118      0.1093
    161  NZ        18.3270  -19.3090   12.8480 N.3   118  LYS118     -0.1314
    162  N         29.1920  -32.1520    4.2280 N.3   175  SER175     -0.1202
    163  CA        29.4830  -31.2950    5.3730 C.3   175  SER175      0.2020
    164  C         28.2200  -30.6290    5.9060 C.2   175  SER175      0.2618
    165  O         28.0610  -30.4720    7.1220 O.2   175  SER175     -0.2717
    166  CB        30.5250  -30.2430    4.9930 C.3   175  SER175      0.2103
    167  OG        29.9960  -29.3120    4.0650 O.3   175  SER175     -0.2182
    168  N         27.3120  -30.2260    5.0130 N.am  176  GLU176     -0.1979
    169  CA        26.0610  -29.6230    5.4630 C.3   176  GLU176      0.1602
    170  C         25.2210  -30.6260    6.2420 C.2   176  GLU176      0.2287
    171  O         24.5880  -30.2720    7.2440 O.2   176  GLU176     -0.2864
    172  CB        25.2770  -29.0750    4.2710 C.3   176  GLU176      0.0415
    173  CG        24.0010  -28.3440    4.6610 C.3   176  GLU176      0.1163
    174  CD        23.2840  -27.7440    3.4690 C.2   176  GLU176      0.3649
    175  OE1       23.7580  -27.9400    2.3300 O.co2 176  GLU176     -0.2457
    176  OE2       22.2450  -27.0770    3.6700 O.co2 176  GLU176     -0.2457
    177  N         26.8700  -30.8710    9.5610 N.3   179  ALA179     -0.1245
    178  CA        26.4890  -29.7160   10.3670 C.3   179  ALA179      0.1562
    179  C         25.0510  -29.8390   10.8550 C.2   179  ALA179      0.2260
    180  O         24.7310  -29.4340   11.9780 O.2   179  ALA179     -0.2867
    181  CB        26.6780  -28.4290    9.5650 C.3   179  ALA179      0.0290
@<TRIPOS>BOND
     1   119   118    1
     2   120   118    1
     3   109   107    1
     4   124   123    2
     5   126   125    1
     6   126   127    1
     7   113   112    2
     8   118   115    1
     9   108   106    1
    10   122   123    1
    11   122   125    1
    12   122   121    1
    13    43    42    2
    14   115   116    1
    15   115   114    1
    16    40    41    1
    17   107   106    1
    18    42    41    1
    19   127   128    1
    20    41    44    1
    21   116   117    2
    22   112   114   am
    23   112   111    1
    24   106   103    1
    25   110   111    1
    26   110   104   am
    27   103   104    1
    28   103   102    1
    29   128   129    2
    30    44    45    1
    31   104   105    2
    32    30    29    2
    33    35    34    2
    34    27    28    1
    35    96    95    2
    36    28    29    1
    37    28    31    1
    38    34    33    1
    39    47    45   ar
    40    47    49   ar
    41    45    46   ar
    42   102    95   am
    43    29    32   am
    44   129   130    1
    45   129   131    1
    46    17    15   am
    47    95    94    1
    48   175   174   ar
    49   136   137    1
    50   136   133    1
    51    49    48   ar
    52    88    87    2
    53    46    48   ar
    54   138   137   ar
    55   138   140   ar
    56    32    33    1
    57    89    90    1
    58    89    86    1
    59    87    86    1
    60   132   133    1
    61    93    94    1
    62    33    36    1
    63   137   139   ar
    64    13    12    2
    65    15    16    2
    66    15    14    1
    67   140   142   ar
    68    53    52    2
    69    94    97    1
    70   174   176   ar
    71   174   173    1
    72   133   134    1
    73    11    12    1
    74    11    14    1
    75    11    10    1
    76    54    55    1
    77    54    51    1
    78    90    91   ar
    79    90    92   ar
    80   134   135    2
    81    55    56    1
    82    86    85    1
    83    12    18   am
    84   139   141   ar
    85   167   166    1
    86   142   141   ar
    87   142   143    1
    88    52    51    1
    89    36    38    1
    90    36    37    1
    91   162   163    1
    92    50    51    1
    93   172   173    1
    94   172   169    1
    95    21    20    2
    96    97    98    1
    97    85    80   am
    98    20    19    1
    99    98    99    1
   100   166   163    1
   101   168   169    1
   102   168   164   am
   103   101    99   ar
   104    56    58   ar
   105    56    57   ar
   106    18    19    1
   107   163   164    1
   108    99   100   ar
   109   169   170    1
   110    37    39    1
   111   151   150    1
   112   151   152    1
   113    19    22    1
   114   149   148    1
   115   149   150    1
   116   164   165    2
   117   148   145    1
   118    80    81    2
   119    80    79    1
   120   170   171    2
   121     4     3    2
   122    82    79    1
   123    82    83    1
   124     3     2    1
   125    79    78    1
   126    22    23    1
   127   144   145    1
   128   145   146    1
   129    23    24    1
   130    83    84    1
   131   146   147    2
   132     2     1    1
   133     2     5    1
   134    78    84    1
   135    78    72   am
   136    73    72    2
   137     5     6    1
   138    24    25    1
   139    72    71    1
   140   177   178    1
   141   181   178    1
   142    25    26    1
   143    68    67    1
   144    75    77    1
   145    75    76    1
   146    75    74    1
   147   178   179    1
   148     6     7    1
   149    71    74    1
   150    71    70    1
   151   179   180    2
   152    67    69    1
   153    67    66    2
   154     8     7   ar
   155     7     9   ar
   156   153   154    1
   157    66    65    1
   158    59    60    1
   159   157   154    1
   160   157   158    1
   161    64    65    1
   162    64    63    1
   163   160   159    1
   164   160   161    1
   165   155   154    1
   166   155   156    2
   167    60    63    1
   168    60    61    1
   169   159   158    1
   170    62    61    2
