@<TRIPOS>MOLECULE
tmp/5we8B01.pdb
 201 186 0 0 0
SMALL
GASTEIGER

@<TRIPOS>ATOM
      1  N         55.7850    9.3340   13.3860 N.3    27  LYS27      -0.1245
      2  CA        56.1530   10.3720   14.3410 C.3    27  LYS27       0.1561
      3  C         57.6650   10.4720   14.4770 C.2    27  LYS27       0.2260
      4  O         58.4120    9.5410   14.1570 O.2    27  LYS27      -0.2867
      5  CB        55.5180   10.1280   15.7100 C.3    27  LYS27       0.0271
      6  CG        55.8620    8.8130   16.3670 C.3    27  LYS27       0.0035
      7  CD        55.1230    8.7600   17.6910 C.3    27  LYS27       0.0206
      8  CE        55.3880    7.4860   18.4690 C.3    27  LYS27       0.1093
      9  NZ        54.6720    7.5030   19.7790 N.3    27  LYS27      -0.1314
     10  N         56.6550   14.9710   20.8870 N.3    44  CYS44      -0.1235
     11  CA        56.2960   14.1410   19.7450 C.3    44  CYS44       0.1677
     12  C         55.6020   14.9790   18.6810 C.2    44  CYS44       0.2270
     13  O         54.6080   15.6550   18.9660 O.2    44  CYS44      -0.2867
     14  CB        55.3860   12.9880   20.1720 C.3    44  CYS44       0.0956
     15  SG        56.0470   11.9510   21.4890 S.3    44  CYS44      -0.0801
     16  N         53.7370   14.6030   15.0510 N.3    46  LEU46      -0.1245
     17  CA        53.0240   13.5980   14.2770 C.3    46  LEU46       0.1561
     18  C         52.7700   14.1180   12.8650 C.2    46  LEU46       0.2260
     19  O         52.4320   15.2900   12.6820 O.2    46  LEU46      -0.2867
     20  CB        51.7050   13.2470   14.9730 C.3    46  LEU46       0.0270
     21  CG        51.7070   12.3610   16.2280 C.3    46  LEU46       0.0019
     22  CD1       52.2180   10.9610   15.8910 C.3    46  LEU46       0.0001
     23  CD2       52.5030   12.9680   17.3960 C.3    46  LEU46       0.0001
     24  N         48.1040   15.5400    8.8230 N.3    49  ARG49      -0.1245
     25  CA        46.9130   14.7280    8.6450 C.3    49  ARG49       0.1563
     26  C         45.7380   15.6180    8.2800 C.2    49  ARG49       0.2260
     27  O         45.6360   16.7620    8.7330 O.2    49  ARG49      -0.2867
     28  CB        46.5880   13.9310    9.9070 C.3    49  ARG49       0.0307
     29  CG        45.6340   12.7710    9.6920 C.3    49  ARG49       0.0489
     30  CD        45.4850   11.9380   10.9570 C.3    49  ARG49       0.2205
     31  NE        45.5990   12.7360   12.1780 N.pl3  49  ARG49      -0.0865
     32  CZ        46.7100   12.8490   12.9030 C.cat  49  ARG49       0.5346
     33  NH1       47.8170   12.2230   12.5250 N.pl3  49  ARG49       0.1354
     34  NH2       46.7170   13.6010   13.9950 N.pl3  49  ARG49       0.1354
     35  N         36.9170   16.4470   18.1260 N.3    58  ARG58      -0.1231
     36  CA        37.0450   15.1870   18.8540 C.3    58  ARG58       0.1694
     37  C         38.4430   15.0330   19.4390 C.2    58  ARG58       0.2592
     38  O         38.6030   14.6270   20.5950 O.2    58  ARG58      -0.2718
     39  CB        36.7180   14.0090   17.9330 C.3    58  ARG58       0.0321
     40  CG        36.7980   12.6480   18.6170 C.3    58  ARG58       0.0489
     41  CD        36.3280   11.5230   17.7030 C.3    58  ARG58       0.2205
     42  NE        37.2950   11.2180   16.6530 N.pl3  58  ARG58      -0.0865
     43  CZ        38.2540   10.3020   16.7620 C.cat  58  ARG58       0.5346
     44  NH1       38.3780    9.5970   17.8790 N.pl3  58  ARG58       0.1354
     45  NH2       39.0890   10.0910   15.7530 N.pl3  58  ARG58       0.1354
     46  N         39.4690   15.3610   18.6500 N.am   59  PHE59      -0.1976
     47  CA        40.8460   15.2450   19.1230 C.3    59  PHE59       0.1639
     48  C         41.0970   16.1410   20.3300 C.2    59  PHE59       0.2290
     49  O         41.7080   15.7110   21.3140 O.2    59  PHE59      -0.2864
     50  CB        41.8150   15.5880   17.9940 C.3    59  PHE59       0.0560
     51  CG        42.2230   14.4060   17.1660 C.ar   59  PHE59      -0.0200
     52  CD1       43.5600   14.0720   17.0270 C.ar   59  PHE59      -0.0042
     53  CD2       41.2720   13.6290   16.5260 C.ar   59  PHE59      -0.0042
     54  CE1       43.9400   12.9850   16.2660 C.ar   59  PHE59      -0.0003
     55  CE2       41.6450   12.5410   15.7620 C.ar   59  PHE59      -0.0003
     56  CZ        42.9820   12.2180   15.6320 C.ar   59  PHE59      -0.0000
     57  N         39.3970   14.5680   23.2590 N.3    62  GLU62      -0.1231
     58  CA        40.1330   13.4070   23.7390 C.3    62  GLU62       0.1699
     59  C         41.4640   13.8120   24.3580 C.2    62  GLU62       0.2592
     60  O         41.9370   13.1530   25.2900 O.2    62  GLU62      -0.2718
     61  CB        40.3390   12.4130   22.5950 C.3    62  GLU62       0.0402
     62  CG        39.0370   11.8080   22.0720 C.3    62  GLU62       0.1161
     63  CD        39.2240   11.0090   20.7940 C.2    62  GLU62       0.3649
     64  OE1       40.1470   11.3310   20.0170 O.co2  62  GLU62      -0.2457
     65  OE2       38.4500   10.0530   20.5700 O.co2  62  GLU62      -0.2457
     66  N         42.0700   14.8960   23.8670 N.am   63  ALA63      -0.1980
     67  CA        43.2960   15.4050   24.4720 C.3    63  ALA63       0.1597
     68  C         43.0560   15.8260   25.9170 C.2    63  ALA63       0.2287
     69  O         43.8310   15.4760   26.8150 O.2    63  ALA63      -0.2864
     70  CB        43.8400   16.5760   23.6520 C.3    63  ALA63       0.0319
     71  N         40.7570   14.7790   27.8900 N.3    65  MET65      -0.1230
     72  CA        40.5390   13.5760   28.6870 C.3    65  MET65       0.1702
     73  C         41.8600   12.8950   29.0230 C.2    65  MET65       0.2592
     74  O         42.0450   12.4050   30.1430 O.2    65  MET65      -0.2718
     75  CB        39.6160   12.6150   27.9410 C.3    65  MET65       0.0401
     76  CG        39.0590   11.4870   28.7950 C.3    65  MET65       0.0596
     77  SD        37.8880   10.4680   27.8750 S.3    65  MET65      -0.1393
     78  CE        37.1120   11.7080   26.8400 C.3    65  MET65       0.0692
     79  N         42.7900   12.8580   28.0650 N.am   66  LEU66      -0.1980
     80  CA        44.0750   12.2050   28.2970 C.3    66  LEU66       0.1596
     81  C         44.8850   12.9320   29.3650 C.2    66  LEU66       0.2287
     82  O         45.5830   12.2970   30.1640 O.2    66  LEU66      -0.2864
     83  CB        44.8640   12.1230   26.9900 C.3    66  LEU66       0.0297
     84  CG        44.3620   11.0930   25.9760 C.3    66  LEU66       0.0022
     85  CD1       44.9930   11.3110   24.6060 C.3    66  LEU66       0.0001
     86  CD2       44.6390    9.6910   26.4830 C.3    66  LEU66       0.0001
     87  N         44.2240   11.9000   33.0450 N.3    69  LEU69      -0.1245
     88  CA        44.6340   10.5910   33.5300 C.3    69  LEU69       0.1561
     89  C         45.9270   10.7070   34.3300 C.2    69  LEU69       0.2260
     90  O         46.8850   11.3500   33.8910 O.2    69  LEU69      -0.2867
     91  CB        44.8270    9.6280   32.3590 C.3    69  LEU69       0.0270
     92  CG        43.6440    9.4420   31.4050 C.3    69  LEU69       0.0019
     93  CD1       44.0790    8.6660   30.1690 C.3    69  LEU69       0.0001
     94  CD2       42.5060    8.7290   32.1120 C.3    69  LEU69       0.0001
     95  N         50.5170    4.1140   33.9150 N.3    74  ILE74      -0.1231
     96  CA        50.1720    4.7000   32.6270 C.3    74  ILE74       0.1692
     97  C         51.1330    5.8500   32.3570 C.2    74  ILE74       0.2591
     98  O         51.3210    6.7190   33.2150 O.2    74  ILE74      -0.2718
     99  CB        48.7140    5.2000   32.5900 C.3    74  ILE74       0.0266
    100  CG1       47.7490    4.0900   33.0090 C.3    74  ILE74       0.0019
    101  CG2       48.3630    5.7160   31.2030 C.3    74  ILE74       0.0020
    102  CD1       47.7840    2.8830   32.1030 C.3    74  ILE74       0.0001
    103  N         51.7460    5.8460   31.1690 N.am   75  VAL75      -0.1980
    104  CA        52.5640    6.9750   30.7420 C.3    75  VAL75       0.1595
    105  C         51.7420    8.2570   30.8050 C.2    75  VAL75       0.2287
    106  O         50.5850    8.2990   30.3660 O.2    75  VAL75      -0.2864
    107  CB        53.1010    6.7310   29.3210 C.3    75  VAL75       0.0276
    108  CG1       53.7820    7.9830   28.7740 C.3    75  VAL75       0.0022
    109  CG2       54.0390    5.5370   29.2980 C.3    75  VAL75       0.0022
    110  N         50.3470   11.9320   29.9910 N.3    77  PHE77      -0.1241
    111  CA        50.0660   12.7870   28.8430 C.3    77  PHE77       0.1605
    112  C         49.9130   14.2140   29.3570 C.2    77  PHE77       0.2264
    113  O         49.0660   14.4770   30.2160 O.2    77  PHE77      -0.2867
    114  CB        48.7980   12.3120   28.1240 C.3    77  PHE77       0.0534
    115  CG        48.4790   13.0670   26.8580 C.ar   77  PHE77      -0.0203
    116  CD1       48.8840   12.5810   25.6240 C.ar   77  PHE77      -0.0042
    117  CD2       47.7410   14.2400   26.8990 C.ar   77  PHE77      -0.0042
    118  CE1       48.5820   13.2630   24.4590 C.ar   77  PHE77      -0.0003
    119  CE2       47.4340   14.9270   25.7360 C.ar   77  PHE77      -0.0003
    120  CZ        47.8550   14.4380   24.5150 C.ar   77  PHE77      -0.0000
    121  N         48.7370   18.9020   24.2300 N.3    80  SER80      -0.1217
    122  CA        48.7360   18.7200   22.7880 C.3    80  SER80       0.1889
    123  C         48.2980   20.0160   22.1220 C.2    80  SER80       0.2288
    124  O         47.4420   20.7330   22.6470 O.2    80  SER80      -0.2866
    125  CB        47.8100   17.5730   22.3710 C.3    80  SER80       0.2089
    126  OG        47.7430   17.4650   20.9610 O.3    80  SER80      -0.2183
    127  N         50.5980   17.9410   14.4960 N.3    89  ILE89      -0.1245
    128  CA        50.1340   17.8980   15.8780 C.3    89  ILE89       0.1561
    129  C         51.3190   17.5630   16.7730 C.2    89  ILE89       0.2260
    130  O         52.0910   16.6410   16.4790 O.2    89  ILE89      -0.2867
    131  CB        48.9870   16.8870   16.0660 C.3    89  ILE89       0.0252
    132  CG1       48.7320   16.6370   17.5540 C.3    89  ILE89       0.0019
    133  CG2       49.2800   15.5850   15.3460 C.3    89  ILE89       0.0019
    134  CD1       47.5000   15.8030   17.8240 C.3    89  ILE89       0.0001
    135  N         52.5220   16.4160   20.5810 N.3    91  LEU91      -0.1245
    136  CA        52.1210   15.7730   21.8250 C.3    91  LEU91       0.1561
    137  C         53.2950   15.7980   22.7910 C.2    91  LEU91       0.2260
    138  O         54.4110   15.4180   22.4220 O.2    91  LEU91      -0.2867
    139  CB        51.6760   14.3240   21.5970 C.3    91  LEU91       0.0270
    140  CG        50.6690   14.0270   20.4870 C.3    91  LEU91       0.0019
    141  CD1       50.4490   12.5310   20.3740 C.3    91  LEU91       0.0001
    142  CD2       49.3640   14.7290   20.7640 C.3    91  LEU91       0.0001
    143  N         54.5050   14.1600   26.2760 N.3    93  THR93      -0.1218
    144  CA        54.2290   13.0450   27.1680 C.3    93  THR93       0.1862
    145  C         55.4440   12.7690   28.0440 C.2    93  THR93       0.2287
    146  O         56.5600   13.2090   27.7610 O.2    93  THR93      -0.2866
    147  CB        53.8680   11.7620   26.4040 C.3    93  THR93       0.1770
    148  OG1       55.0180   11.2900   25.6930 O.3    93  THR93      -0.2211
    149  CG2       52.7220   12.0000   25.4220 C.3    93  THR93       0.0375
    150  N         38.0630    3.2370   28.7770 N.3   137  ILE137     -0.1245
    151  CA        39.0230    3.3500   27.6870 C.3   137  ILE137      0.1561
    152  C         39.5320    1.9560   27.3540 C.2   137  ILE137      0.2260
    153  O         39.9290    1.2000   28.2500 O.2   137  ILE137     -0.2867
    154  CB        40.1850    4.2860   28.0630 C.3   137  ILE137      0.0252
    155  CG1       39.6540    5.6320   28.5610 C.3   137  ILE137      0.0019
    156  CG2       41.1200    4.4840   26.8790 C.3   137  ILE137      0.0019
    157  CD1       40.6820    6.4320   29.3470 C.3   137  ILE137      0.0001
    158  N         51.9920    2.6800   27.5980 N.3   159  GLY159     -0.1210
    159  CA        52.0260    3.9100   26.8290 C.3   159  GLY159      0.1956
    160  C         51.3120    3.8140   25.4960 C.2   159  GLY159      0.2612
    161  O         50.6760    2.7990   25.1980 O.2   159  GLY159     -0.2717
    162  N         51.4110    4.8770   24.6940 N.am  160  ASP160     -0.1959
    163  CA        50.8930    4.9110   23.3300 C.3   160  ASP160      0.1840
    164  C         49.4040    4.5930   23.2790 C.2   160  ASP160      0.2622
    165  O         49.0100    3.4830   22.9050 O.2   160  ASP160     -0.2715
    166  CB        51.6760    3.9450   22.4360 C.3   160  ASP160      0.1450
    167  CG        53.0560    4.4710   22.0800 C.2   160  ASP160      0.3671
    168  OD1       53.6510    5.1910   22.9090 O.co2 160  ASP160     -0.2456
    169  OD2       53.5430    4.1740   20.9680 O.co2 160  ASP160     -0.2456
    170  N         48.5720    5.5630   23.6490 N.am  161  LEU161     -0.1963
    171  CA        47.1260    5.4070   23.6120 C.3   161  LEU161      0.1728
    172  C         46.5180    5.9140   22.3070 C.2   161  LEU161      0.2616
    173  O         45.3160    6.2000   22.2640 O.2   161  LEU161     -0.2715
    174  CB        46.4880    6.1230   24.8050 C.3   161  LEU161      0.0311
    175  CG        46.3570    5.3210   26.1070 C.3   161  LEU161      0.0022
    176  CD1       47.7030    4.7810   26.5730 C.3   161  LEU161      0.0001
    177  CD2       45.7190    6.1680   27.1910 C.3   161  LEU161      0.0001
    178  N         47.3200    6.0180   21.2450 N.am  162  GLY162     -0.1955
    179  CA        46.8220    6.5910   20.0030 C.3   162  GLY162      0.1869
    180  C         45.7220    5.7680   19.3570 C.2   162  GLY162      0.2309
    181  O         44.7990    6.3180   18.7530 O.2   162  GLY162     -0.2863
    182  N         43.6270    3.8250   20.9870 N.3   164  ALA164     -0.1231
    183  CA        42.5920    3.5150   21.9580 C.3   164  ALA164      0.1694
    184  C         41.2230    3.9980   21.4740 C.2   164  ALA164      0.2593
    185  O         41.0960    4.7250   20.4870 O.2   164  ALA164     -0.2718
    186  CB        42.9290    4.1370   23.3110 C.3   164  ALA164      0.0304
    187  N         40.1850    3.5740   22.1900 N.am  165  THR165     -0.1939
    188  CA        38.8270    4.0010   21.8900 C.3   165  THR165      0.2028
    189  C         38.0090    3.9900   23.1720 C.2   165  THR165      0.2642
    190  O         38.3590    3.3240   24.1510 O.2   165  THR165     -0.2714
    191  CB        38.1630    3.1120   20.8300 C.3   165  THR165      0.1808
    192  OG1       36.9100    3.6890   20.4410 O.3   165  THR165     -0.2208
    193  CG2       37.9120    1.7180   21.3820 C.3   165  THR165      0.0379
    194  N         36.9170    4.7480   23.1560 N.am  166  LEU166     -0.1977
    195  CA        35.9860    4.7930   24.2720 C.3   166  LEU166      0.1596
    196  C         34.9250    3.7170   24.0970 C.2   166  LEU166      0.2287
    197  O         34.3930    3.5260   23.0000 O.2   166  LEU166     -0.2864
    198  CB        35.3080    6.1600   24.3760 C.3   166  LEU166      0.0297
    199  CG        36.0780    7.3720   24.8990 C.3   166  LEU166      0.0022
    200  CD1       37.1820    7.7720   23.9520 C.3   166  LEU166      0.0001
    201  CD2       35.1250    8.5320   25.1110 C.3   166  LEU166      0.0001
@<TRIPOS>BOND
     1    26    25    1
     2    26    27    2
     3    25    24    1
     4    25    28    1
     5    29    28    1
     6    29    30    1
     7    30    31    1
     8    31    32    2
     9    33    32    1
    10    19    18    2
    11    18    17    1
    12    32    34    1
    13     1     2    1
    14     4     3    2
    15    17    20    1
    16    17    16    1
    17     2     3    1
    18     2     5    1
    19   127   128    1
    20    20    21    1
    21   133   131    1
    22    56    55   ar
    23    56    54   ar
    24     5     6    1
    25    45    43    1
    26    55    53   ar
    27   128   131    1
    28   128   129    1
    29    22    21    1
    30   131   132    1
    31    21    23    1
    32    54    52   ar
    33     6     7    1
    34   130   129    2
    35    53    51   ar
    36    42    43    2
    37    42    41    1
    38    43    44    1
    39    52    51   ar
    40    51    50    1
    41   132   134    1
    42     7     8    1
    43    41    40    1
    44    39    40    1
    45    39    36    1
    46    50    47    1
    47    35    36    1
    48     8     9    1
    49    46    47    1
    50    46    37   am
    51    12    13    2
    52    12    11    1
    53   181   180    2
    54    36    37    1
    55    47    48    1
    56   180   179    1
    57    37    38    2
    58    11    14    1
    59    11    10    1
    60   179   178    1
    61    64    63   ar
    62    14    15    1
    63    48    49    2
    64   141   140    1
    65   192   191    1
    66   140   142    1
    67   140   139    1
    68   185   184    2
    69    65    63   ar
    70   135   136    1
    71    63    62    1
    72   191   193    1
    73   191   188    1
    74   126   125    1
    75   169   167   ar
    76   182   183    1
    77   178   172   am
    78   184   183    1
    79   184   187   am
    80   139   136    1
    81   136   137    1
    82   188   187    1
    83   188   189    1
    84   183   186    1
    85    62    61    1
    86   167   166    1
    87   167   168   ar
    88   123   124    2
    89   123   122    1
    90   173   172    2
    91   172   171    1
    92   125   122    1
    93   138   137    2
    94   166   163    1
    95    61    58    1
    96   122   121    1
    97   165   164    2
    98   197   196    2
    99   194   189   am
   100   194   195    1
   101   189   190    2
   102    57    58    1
   103   164   163    1
   104   164   170   am
   105   163   162    1
   106   171   170    1
   107   171   174    1
   108    70    67    1
   109    58    59    1
   110    66    59   am
   111    66    67    1
   112   200   199    1
   113   196   195    1
   114   195   198    1
   115    59    60    2
   116   198   199    1
   117   118   120   ar
   118   118   116   ar
   119    67    68    1
   120   120   119   ar
   121    85    84    1
   122   162   160   am
   123   174   175    1
   124   199   201    1
   125   161   160    2
   126   149   147    1
   127   160   159    1
   128   116   115   ar
   129   148   147    1
   130   119   117   ar
   131    68    69    2
   132    84    86    1
   133    84    83    1
   134   175   176    1
   135   175   177    1
   136   143   144    1
   137   147   144    1
   138   159   158    1
   139    78    77    1
   140   115   117   ar
   141   115   114    1
   142   156   154    1
   143    83    80    1
   144   144   145    1
   145   152   151    1
   146   152   153    2
   147   151   154    1
   148   151   150    1
   149   146   145    2
   150    77    76    1
   151    71    72    1
   152    75    72    1
   153    75    76    1
   154   154   155    1
   155    79    80    1
   156    79    73   am
   157   114   111    1
   158    80    81    1
   159   155   157    1
   160    72    73    1
   161   108   107    1
   162   111   112    1
   163   111   110    1
   164    73    74    2
   165   109   107    1
   166   107   104    1
   167   112   113    2
   168    81    82    2
   169    93    92    1
   170   106   105    2
   171   104   105    1
   172   104   103    1
   173   103    97   am
   174   101    99    1
   175    92    94    1
   176    92    91    1
   177   102   100    1
   178    97    96    1
   179    97    98    2
   180    91    88    1
   181    99    96    1
   182    99   100    1
   183    96    95    1
   184    87    88    1
   185    88    89    1
   186    90    89    2
