@<TRIPOS>MOLECULE
tmp/5we9A00.pdb
 173 165 0 0 0
SMALL
GASTEIGER

@<TRIPOS>ATOM
      1  N        -14.1710   89.5400   13.2210 N.3    20  ALA20      -0.1245
      2  CA       -12.9440   88.9080   13.6870 C.3    20  ALA20       0.1562
      3  C        -11.7490   89.3850   12.8800 C.2    20  ALA20       0.2260
      4  O        -10.6930   89.6900   13.4430 O.2    20  ALA20      -0.2867
      5  CB       -13.0740   87.3880   13.6040 C.3    20  ALA20       0.0290
      6  N         -8.2020   92.4470   13.8290 N.3    24  TYR24      -0.1241
      7  CA        -6.7680   92.2470   13.6350 C.3    24  TYR24       0.1605
      8  C         -6.2360   93.0440   12.4500 C.2    24  TYR24       0.2264
      9  O         -5.1250   92.7910   11.9650 O.2    24  TYR24      -0.2867
     10  CB        -6.4860   90.7440   13.5100 C.3    24  TYR24       0.0534
     11  CG        -6.6660   90.0970   14.8590 C.ar   24  TYR24      -0.0201
     12  CD1       -5.6110   90.0290   15.7680 C.ar   24  TYR24      -0.0009
     13  CD2       -7.9140   89.6370   15.2670 C.ar   24  TYR24      -0.0009
     14  CE1       -5.7880   89.4910   17.0200 C.ar   24  TYR24       0.0417
     15  CE2       -8.1020   89.0890   16.5150 C.ar   24  TYR24       0.0417
     16  CZ        -7.0390   89.0200   17.3950 C.ar   24  TYR24       0.1957
     17  OH        -7.2350   88.4850   18.6590 O.3    24  TYR24      -0.2866
     18  N         -8.7810   83.6280    4.1690 N.3    34  LYS34      -0.1245
     19  CA        -8.9580   83.6850    5.6170 C.3    34  LYS34       0.1561
     20  C        -10.4210   83.9020    5.9790 C.2    34  LYS34       0.2260
     21  O        -10.9430   83.2640    6.9030 O.2    34  LYS34      -0.2867
     22  CB        -8.0890   84.8050    6.1990 C.3    34  LYS34       0.0271
     23  CG        -8.0500   84.8470    7.7270 C.3    34  LYS34       0.0035
     24  CD        -6.9390   85.7550    8.2300 C.3    34  LYS34       0.0206
     25  CE        -5.6490   85.5610    7.4280 C.3    34  LYS34       0.1093
     26  NZ        -4.5060   86.3330    8.0030 N.3    34  LYS34      -0.1314
     27  N        -12.1700   80.6810    5.6280 N.3    37  ALA37      -0.1231
     28  CA       -11.8200   79.7090    6.6630 C.3    37  ALA37       0.1694
     29  C        -12.4950   80.0400    7.9890 C.2    37  ALA37       0.2591
     30  O        -12.9620   79.1450    8.7070 O.2    37  ALA37      -0.2718
     31  CB       -10.3030   79.6660    6.8380 C.3    37  ALA37       0.0304
     32  N        -12.5310   81.3160    8.3510 N.am   38  ILE38      -0.1980
     33  CA       -13.1920   81.6980    9.5970 C.3    38  ILE38       0.1595
     34  C        -14.6770   81.3420    9.5470 C.2    38  ILE38       0.2287
     35  O        -15.2390   80.8300   10.5260 O.2    38  ILE38      -0.2864
     36  CB       -12.9750   83.1960    9.8770 C.3    38  ILE38       0.0276
     37  CG1      -11.4910   83.4600   10.1370 C.3    38  ILE38       0.0022
     38  CG2      -13.8470   83.6670   11.0530 C.3    38  ILE38       0.0022
     39  CD1      -11.1460   84.9360   10.1090 C.3    38  ILE38       0.0001
     40  N        -15.1450   77.4980    9.9960 N.3    41  HIS41      -0.1226
     41  CA       -14.9630   77.0380   11.3580 C.3    41  HIS41       0.1752
     42  C        -16.1610   77.4180   12.2170 C.2    41  HIS41       0.2595
     43  O        -16.6520   76.6030   12.9950 O.2    41  HIS41      -0.2718
     44  CB       -13.6540   77.6090   11.9040 C.3    41  HIS41       0.0759
     45  CG       -13.5120   77.5430   13.3970 C.ar   41  HIS41       0.0818
     46  ND1      -13.9740   78.5220   14.2440 N.ar   41  HIS41      -0.2268
     47  CD2      -12.9820   76.5810   14.1760 C.ar   41  HIS41       0.1154
     48  CE1      -13.7340   78.1650   15.5070 C.ar   41  HIS41       0.1986
     49  NE2      -13.1300   76.9920   15.4770 N.ar   41  HIS41      -0.2212
     50  N        -16.6660   78.6420   12.0560 N.am   42  LEU42      -0.1980
     51  CA       -17.8900   79.0360   12.7590 C.3    42  LEU42       0.1596
     52  C        -19.0510   78.1010   12.4170 C.2    42  LEU42       0.2287
     53  O        -19.7800   77.6330   13.3040 O.2    42  LEU42      -0.2864
     54  CB       -18.2460   80.4820   12.3980 C.3    42  LEU42       0.0297
     55  CG       -17.4880   81.5820   13.1200 C.3    42  LEU42       0.0022
     56  CD1      -17.6970   82.9490   12.4260 C.3    42  LEU42       0.0001
     57  CD2      -17.9460   81.6310   14.5760 C.3    42  LEU42       0.0001
     58  N        -17.4990   79.8620   21.0590 N.3    61  GLU61      -0.1245
     59  CA       -17.0330   80.5520   19.8610 C.3    61  GLU61       0.1567
     60  C        -18.1570   81.4390   19.3180 C.2    61  GLU61       0.2260
     61  O        -19.3370   81.1620   19.5180 O.2    61  GLU61      -0.2867
     62  CB       -16.5600   79.4870   18.8440 C.3    61  GLU61       0.0388
     63  CG       -15.9910   80.0050   17.5040 C.3    61  GLU61       0.1160
     64  CD       -14.7070   80.7810   17.7140 C.2    61  GLU61       0.3649
     65  OE1      -13.5870   80.1870   17.7710 O.co2  61  GLU61      -0.2457
     66  OE2      -14.8260   82.0260   17.8650 O.co2  61  GLU61      -0.2457
     67  N        -15.5100   88.7530   23.4290 N.3    65  ARG65      -0.1245
     68  CA       -14.5830   88.1860   24.4190 C.3    65  ARG65       0.1563
     69  C        -15.1340   88.2440   25.8410 C.2    65  ARG65       0.2260
     70  O        -14.9490   87.3010   26.6300 O.2    65  ARG65      -0.2867
     71  CB       -13.2560   88.9340   24.3640 C.3    65  ARG65       0.0307
     72  CG       -12.5550   88.7450   23.0150 C.3    65  ARG65       0.0489
     73  CD       -11.3800   89.7440   22.9300 C.3    65  ARG65       0.2205
     74  NE       -10.6310   89.5330   21.6790 N.pl3  65  ARG65      -0.0865
     75  CZ       -11.0820   89.8840   20.4730 C.cat  65  ARG65       0.5346
     76  NH1      -12.2570   90.4910   20.3590 N.pl3  65  ARG65       0.1354
     77  NH2      -10.3430   89.6520   19.3860 N.pl3  65  ARG65       0.1354
     78  N         -6.9310   79.5210   27.2030 N.3    86  PHE86      -0.1227
     79  CA        -7.4650   80.1950   26.0210 C.3    86  PHE86       0.1736
     80  C         -8.9480   79.8650   25.8730 C.2    86  PHE86       0.2595
     81  O         -9.4190   78.8500   26.3820 O.2    86  PHE86      -0.2718
     82  CB        -6.7540   79.7490   24.7450 C.3    86  PHE86       0.0547
     83  CG        -5.2670   79.8830   24.7940 C.ar   86  PHE86      -0.0202
     84  CD1       -4.6700   81.1360   24.8350 C.ar   86  PHE86      -0.0042
     85  CD2       -4.4600   78.7520   24.7880 C.ar   86  PHE86      -0.0042
     86  CE1       -3.2840   81.2620   24.8730 C.ar   86  PHE86      -0.0003
     87  CE2       -3.0790   78.8690   24.8310 C.ar   86  PHE86      -0.0003
     88  CZ        -2.4920   80.1280   24.8690 C.ar   86  PHE86      -0.0000
     89  N         -9.6800   80.6920   25.1430 N.am   87  LEU87      -0.1966
     90  CA       -11.1000   80.4000   24.9420 C.3    87  LEU87       0.1713
     91  C        -11.2660   79.1380   24.1150 C.2    87  LEU87       0.2458
     92  O        -10.7450   79.0830   22.9940 O.2    87  LEU87      -0.2730
     93  CB       -11.8020   81.5520   24.2290 C.3    87  LEU87       0.0310
     94  CG       -12.0860   82.7390   25.1160 C.3    87  LEU87       0.0022
     95  CD1      -12.6230   83.8690   24.2410 C.3    87  LEU87       0.0001
     96  CD2      -13.0610   82.3910   26.2360 C.3    87  LEU87       0.0001
     97  N        -11.9880   78.1120   24.5950 N.am   88  PRO88      -0.2716
     98  CA       -12.3130   76.9870   23.7160 C.3    88  PRO88       0.1536
     99  C        -13.5320   77.2860   22.8600 C.2    88  PRO88       0.2598
    100  O        -13.9980   78.4290   22.8310 O.2    88  PRO88      -0.2715
    101  CB       -12.5540   75.8290   24.6960 C.3    88  PRO88       0.0310
    102  CG       -13.0040   76.4910   25.9410 C.3    88  PRO88       0.0237
    103  CD       -12.5070   77.9170   25.9550 C.3    88  PRO88       0.0939
    104  N        -14.0740   76.2780   22.1850 N.am   89  ASP89      -0.1972
    105  CA       -15.1640   76.5010   21.2450 C.3    89  ASP89       0.1709
    106  C        -16.5220   76.0920   21.7850 C.2    89  ASP89       0.2293
    107  O        -17.5170   76.7870   21.5250 O.2    89  ASP89      -0.2864
    108  CB       -14.8940   75.7470   19.9370 C.3    89  ASP89       0.1436
    109  CG       -13.7540   76.3620   19.1470 C.2    89  ASP89       0.3671
    110  OD1      -13.6320   77.6030   19.1680 O.co2  89  ASP89      -0.2456
    111  OD2      -12.9650   75.6000   18.5510 O.co2  89  ASP89      -0.2456
    112  N        -12.2460   71.9630   21.8810 N.3   100  GLU100     -0.1231
    113  CA       -11.6370   72.8150   20.8710 C.3   100  GLU100      0.1699
    114  C        -11.8640   72.1560   19.5150 C.2   100  GLU100      0.2592
    115  O        -11.4900   70.9910   19.3240 O.2   100  GLU100     -0.2718
    116  CB       -10.1440   73.0160   21.1490 C.3   100  GLU100      0.0402
    117  CG        -9.4310   73.6540   19.9440 C.3   100  GLU100      0.1161
    118  CD        -9.9430   75.0700   19.6720 C.2   100  GLU100      0.3649
    119  OE1      -10.4240   75.7680   20.6170 O.co2 100  GLU100     -0.2457
    120  OE2       -9.9080   75.4820   18.4930 O.co2 100  GLU100     -0.2457
    121  N        -12.5120   72.8740   18.5900 N.am  101  ILE101     -0.1966
    122  CA       -12.8290   72.3660   17.2560 C.3   101  ILE101      0.1727
    123  C        -11.8310   72.9490   16.2750 C.2   101  ILE101      0.2616
    124  O        -11.5450   74.1520   16.3050 O.2   101  ILE101     -0.2715
    125  CB       -14.2720   72.7180   16.8410 C.3   101  ILE101      0.0290
    126  CG1      -15.2720   71.8470   17.5880 C.3   101  ILE101      0.0022
    127  CG2      -14.4910   72.5300   15.3340 C.3   101  ILE101      0.0023
    128  CD1      -16.6180   72.4610   17.6760 C.3   101  ILE101      0.0001
    129  N        -11.2510   72.1280   15.4310 N.am  102  GLY102     -0.1955
    130  CA       -10.3730   72.5980   14.3680 C.3   102  GLY102      0.1869
    131  C        -10.8890   72.1210   13.0230 C.2   102  GLY102      0.2309
    132  O        -11.4460   71.0340   12.9320 O.2   102  GLY102     -0.2863
    133  N         -7.2940   72.6530    6.1970 N.3   105  ARG105     -0.1245
    134  CA        -7.0280   72.4660    4.7760 C.3   105  ARG105      0.1563
    135  C         -5.8320   71.5560    4.5460 C.2   105  ARG105      0.2260
    136  O         -5.6070   71.1140    3.4130 O.2   105  ARG105     -0.2867
    137  CB        -6.7830   73.8300    4.0840 C.3   105  ARG105      0.0307
    138  CG        -7.9690   74.8600    4.1970 C.3   105  ARG105      0.0489
    139  CD        -7.5330   76.3370    4.3000 C.3   105  ARG105      0.2205
    140  NE        -7.5830   76.8230    5.6810 N.pl3 105  ARG105     -0.0865
    141  CZ        -7.1910   78.0240    6.0880 C.cat 105  ARG105      0.5346
    142  NH1       -6.7140   78.9060    5.2180 N.pl3 105  ARG105      0.1354
    143  NH2       -7.2700   78.3420    7.3780 N.pl3 105  ARG105      0.1354
    144  N         -2.5740   69.0450   12.2050 N.3   111  TYR111     -0.1241
    145  CA        -3.3650   70.0780   12.8620 C.3   111  TYR111      0.1605
    146  C         -3.6590   69.7060   14.3120 C.2   111  TYR111      0.2264
    147  O         -3.6020   70.5670   15.1990 O.2   111  TYR111     -0.2867
    148  CB        -4.6610   70.3010   12.0720 C.3   111  TYR111      0.0534
    149  CG        -5.3090   71.6670   12.2950 C.ar  111  TYR111     -0.0201
    150  CD1       -4.8200   72.7950   11.6670 C.ar  111  TYR111     -0.0009
    151  CD2       -6.4090   71.8040   13.1050 C.ar  111  TYR111     -0.0009
    152  CE1       -5.4090   74.0470   11.8660 C.ar  111  TYR111      0.0417
    153  CE2       -7.0070   73.0450   13.3050 C.ar  111  TYR111      0.0417
    154  CZ        -6.4980   74.1610   12.6850 C.ar  111  TYR111      0.1957
    155  OH        -7.0840   75.4000   12.8890 O.3   111  TYR111     -0.2866
    156  N         -2.6290   71.9310   17.5510 N.3   115  LYS115     -0.1245
    157  CA        -3.6250   72.3900   18.5150 C.3   115  LYS115      0.1561
    158  C         -3.3140   71.8920   19.9230 C.2   115  LYS115      0.2260
    159  O         -3.5140   72.6190   20.9050 O.2   115  LYS115     -0.2867
    160  CB        -5.0130   71.9210   18.0800 C.3   115  LYS115      0.0271
    161  CG        -6.1280   72.7660   18.6100 C.3   115  LYS115      0.0035
    162  CD        -6.1230   74.1300   17.9610 C.3   115  LYS115      0.0206
    163  CE        -7.1820   74.2700   16.8760 C.3   115  LYS115      0.1093
    164  NZ        -7.4950   75.7320   16.7340 N.3   115  LYS115     -0.1314
    165  N         -0.3880   74.0160   21.2500 N.3   118  LYS118     -0.1245
    166  CA        -0.7570   75.3900   21.5660 C.3   118  LYS118      0.1561
    167  C         -1.5830   75.4540   22.8390 C.2   118  LYS118      0.2260
    168  O         -1.1660   76.0530   23.8370 O.2   118  LYS118     -0.2867
    169  CB        -1.5290   76.0060   20.3990 C.3   118  LYS118      0.0271
    170  CG        -1.9720   77.4410   20.6270 C.3   118  LYS118      0.0035
    171  CD        -2.4220   78.0860   19.3210 C.3   118  LYS118      0.0206
    172  CE        -2.3280   79.6120   19.3770 C.3   118  LYS118      0.1093
    173  NZ        -2.6120   80.2480   18.0500 N.3   118  LYS118     -0.1314
@<TRIPOS>BOND
     1   136   135    2
     2   137   138    1
     3   137   134    1
     4    18    19    1
     5   138   139    1
     6   139   140    1
     7   135   134    1
     8   134   133    1
     9   142   141    1
    10    19    20    1
    11    19    22    1
    12    27    28    1
    13   140   141    2
    14    20    21    2
    15   141   143    1
    16    22    23    1
    17    28    31    1
    18    28    29    1
    19    25    26    1
    20    25    24    1
    21    23    24    1
    22    29    32   am
    23    29    30    2
    24    32    33    1
    25    34    33    1
    26    34    35    2
    27    33    36    1
    28    36    37    1
    29    36    38    1
    30    40    41    1
    31    39    37    1
    32    41    44    1
    33    41    42    1
    34   150   152   ar
    35   150   149   ar
    36   152   154   ar
    37    44    45    1
    38     9     8    2
    39    50    42   am
    40    50    51    1
    41   148   149    1
    42   148   145    1
    43   144   145    1
    44    42    43    2
    45   149   151   ar
    46    54    51    1
    47    54    55    1
    48    52    51    1
    49    52    53    2
    50    56    55    1
    51     8     7    1
    52   154   155    1
    53   154   153   ar
    54   145   146    1
    55     3     4    2
    56     3     2    1
    57   132   131    2
    58   131   130    1
    59   151   153   ar
    60    55    57    1
    61     1     2    1
    62    45    47   ar
    63    45    46   ar
    64    10     7    1
    65    10    11    1
    66     5     2    1
    67     7     6    1
    68    47    49   ar
    69    46    48   ar
    70   146   147    2
    71   130   129    1
    72    11    13   ar
    73    11    12   ar
    74    13    15   ar
    75   127   125    1
    76   129   123   am
    77    49    48   ar
    78    12    14   ar
    79   123   124    2
    80   123   122    1
    81    15    16   ar
    82   164   163    1
    83   125   122    1
    84   125   126    1
    85   163   162    1
    86    14    16   ar
    87   122   121    1
    88    16    17    1
    89    63    64    1
    90    63    62    1
    91   156   157    1
    92   126   128    1
    93    64    65   ar
    94    64    66   ar
    95   162   161    1
    96   173   172    1
    97   160   157    1
    98   160   161    1
    99   120   118   ar
   100   157   158    1
   101   111   109   ar
   102   121   114   am
   103    62    59    1
   104   109   110   ar
   105   109   108    1
   106    60    61    2
   107    60    59    1
   108   171   172    1
   109   171   170    1
   110   115   114    2
   111    77    75    1
   112   114   113    1
   113   118   117    1
   114   118   119   ar
   115    59    58    1
   116   158   159    2
   117   108   105    1
   118   117   116    1
   119    76    75    1
   120   169   170    1
   121   169   166    1
   122    75    74    2
   123   113   116    1
   124   113   112    1
   125   105   106    1
   126   105   104    1
   127   165   166    1
   128   107   106    2
   129   166   167    1
   130    74    73    1
   131   104    99   am
   132   100    99    2
   133   167   168    2
   134    99    98    1
   135    73    72    1
   136    92    91    2
   137    72    71    1
   138    67    68    1
   139    98    97    1
   140    98   101    1
   141    91    97   am
   142    91    90    1
   143    93    90    1
   144    93    94    1
   145    95    94    1
   146    71    68    1
   147    68    69    1
   148    97   103    1
   149   101   102    1
   150    82    83    1
   151    82    79    1
   152    85    83   ar
   153    85    87   ar
   154    83    84   ar
   155    87    88   ar
   156    84    86   ar
   157    88    86   ar
   158    90    89    1
   159    94    96    1
   160    89    80   am
   161    69    70    2
   162    80    79    1
   163    80    81    2
   164   102   103    1
   165    79    78    1
