@<TRIPOS>MOLECULE
tmp/5webA00.pdb
 166 158 0 0 0
SMALL
GASTEIGER

@<TRIPOS>ATOM
      1  N        199.5920 -315.5020  681.5260 N.3    24  ALA24      -0.1231
      2  CA       198.5990 -315.5410  682.5960 C.3    24  ALA24       0.1694
      3  C        197.3150 -314.8320  682.1840 C.2    24  ALA24       0.2591
      4  O        196.2080 -315.3430  682.4090 O.2    24  ALA24      -0.2718
      5  CB       199.1690 -314.9120  683.8680 C.3    24  ALA24       0.0304
      6  N        197.4380 -313.6600  681.5650 N.am   25  MET25      -0.1979
      7  CA       196.2400 -312.9160  681.2010 C.3    25  MET25       0.1605
      8  C        195.4320 -313.6710  680.1630 C.2    25  MET25       0.2287
      9  O        194.2200 -313.8630  680.3260 O.2    25  MET25      -0.2864
     10  CB       196.6120 -311.5220  680.7060 C.3    25  MET25       0.0413
     11  CG       196.8660 -310.5670  681.8650 C.3    25  MET25       0.0598
     12  SD       197.1860 -308.8680  681.3700 S.3    25  MET25      -0.1393
     13  CE       195.5230 -308.2200  681.1410 C.3    25  MET25       0.0692
     14  N        193.4990 -316.6150  681.5830 N.3    28  TYR28      -0.1241
     15  CA       192.2520 -316.2180  682.2340 C.3    28  TYR28       0.1605
     16  C        191.3230 -315.4450  681.3040 C.2    28  TYR28       0.2264
     17  O        190.2300 -315.0590  681.7290 O.2    28  TYR28      -0.2867
     18  CB       192.5430 -315.3900  683.5000 C.3    28  TYR28       0.0534
     19  CG       193.0360 -316.2300  684.6690 C.ar   28  TYR28      -0.0201
     20  CD1      192.1840 -316.5870  685.7140 C.ar   28  TYR28      -0.0009
     21  CD2      194.3530 -316.6810  684.7140 C.ar   28  TYR28      -0.0009
     22  CE1      192.6370 -317.3700  686.7750 C.ar   28  TYR28       0.0417
     23  CE2      194.8140 -317.4610  685.7640 C.ar   28  TYR28       0.0417
     24  CZ       193.9550 -317.8030  686.7920 C.ar   28  TYR28       0.1957
     25  OH       194.4280 -318.5810  687.8290 O.3    28  TYR28      -0.2866
     26  N        191.9860 -312.5140  679.3410 N.3    30  GLU30      -0.1245
     27  CA       192.1510 -311.0720  679.2250 C.3    30  GLU30       0.1567
     28  C        193.1980 -310.7140  678.1700 C.2    30  GLU30       0.2260
     29  O        194.0580 -311.5220  677.8070 O.2    30  GLU30      -0.2867
     30  CB       192.5410 -310.4670  680.5770 C.3    30  GLU30       0.0388
     31  CG       191.7830 -311.0510  681.7560 C.3    30  GLU30       0.1160
     32  CD       190.8950 -310.0260  682.4400 C.2    30  GLU30       0.3649
     33  OE1      190.9220 -308.8500  682.0210 O.co2  30  GLU30      -0.2457
     34  OE2      190.1660 -310.3950  683.3870 O.co2  30  GLU30      -0.2457
     35  N        195.8070 -303.6450  684.1110 N.3    38  LYS38      -0.1245
     36  CA       195.9310 -304.9890  684.6660 C.3    38  LYS38       0.1561
     37  C        197.2480 -305.6350  684.2510 C.2    38  LYS38       0.2260
     38  O        197.9280 -306.2680  685.0670 O.2    38  LYS38      -0.2867
     39  CB       194.7480 -305.8380  684.2030 C.3    38  LYS38       0.0271
     40  CG       194.3220 -306.9170  685.1760 C.3    38  LYS38       0.0035
     41  CD       192.9220 -307.4440  684.8460 C.3    38  LYS38       0.0206
     42  CE       192.5590 -308.6060  685.7610 C.3    38  LYS38       0.1093
     43  NZ       193.7120 -308.8880  686.6750 N.3    38  LYS38      -0.1314
     44  N        199.8940 -307.1490  686.9090 N.3    42  ILE42      -0.1245
     45  CA       200.3530 -308.5320  686.9600 C.3    42  ILE42       0.1561
     46  C        201.8660 -308.5930  686.9080 C.2    42  ILE42       0.2260
     47  O        202.4890 -309.3700  687.6450 O.2    42  ILE42      -0.2867
     48  CB       199.7050 -309.3540  685.8380 C.3    42  ILE42       0.0252
     49  CG1      198.2630 -309.6380  686.2350 C.3    42  ILE42       0.0019
     50  CG2      200.4950 -310.6340  685.5930 C.3    42  ILE42       0.0019
     51  CD1      197.2810 -309.4490  685.1210 C.3    42  ILE42       0.0001
     52  N        203.2640 -307.5040  690.4120 N.3    45  HIS45      -0.1241
     53  CA       203.1100 -308.6370  691.3270 C.3    45  HIS45       0.1621
     54  C        204.1260 -309.7290  691.0080 C.2    45  HIS45       0.2264
     55  O        204.8620 -310.2020  691.8880 O.2    45  HIS45      -0.2867
     56  CB       201.6690 -309.1740  691.2300 C.3    45  HIS45       0.0745
     57  CG       201.3520 -310.2910  692.1890 C.ar   45  HIS45       0.0817
     58  ND1      201.4830 -311.6270  691.8560 N.ar   45  HIS45      -0.2268
     59  CD2      200.8700 -310.2680  693.4580 C.ar   45  HIS45       0.1154
     60  CE1      201.1180 -312.3750  692.8840 C.ar   45  HIS45       0.1986
     61  NE2      200.7420 -311.5750  693.8720 N.ar   45  HIS45      -0.2212
     62  N        203.4100 -318.9340  691.8090 N.3    65  GLU65      -0.1245
     63  CA       202.9350 -317.9360  690.8680 C.3    65  GLU65       0.1567
     64  C        203.8230 -317.9530  689.6390 C.2    65  GLU65       0.2260
     65  O        205.0110 -318.2820  689.7130 O.2    65  GLU65      -0.2867
     66  CB       202.9420 -316.5520  691.5400 C.3    65  GLU65       0.0388
     67  CG       202.5500 -315.3480  690.6790 C.3    65  GLU65       0.1160
     68  CD       201.1220 -315.4350  690.1540 C.2    65  GLU65       0.3649
     69  OE1      200.1670 -315.1380  690.9160 O.co2  65  GLU65      -0.2457
     70  OE2      200.9580 -315.8150  688.9620 O.co2  65  GLU65      -0.2457
     71  N        199.1320 -326.1620  690.6780 N.3    73  TRP73      -0.1241
     72  CA       198.4040 -327.0620  691.5620 C.3    73  TRP73       0.1605
     73  C        199.1610 -328.3670  691.7940 C.2    73  TRP73       0.2264
     74  O        199.0770 -328.9520  692.8830 O.2    73  TRP73      -0.2867
     75  CB       197.0170 -327.3300  690.9830 C.3    73  TRP73       0.0550
     76  CG       196.0590 -326.2580  691.3790 C.ar   73  TRP73       0.0003
     77  CD1      195.4460 -325.3580  690.5590 C.ar   73  TRP73       0.0946
     78  CD2      195.6250 -325.9540  692.7050 C.ar   73  TRP73       0.0152
     79  NE1      194.6380 -324.5200  691.2940 N.ar   73  TRP73      -0.2442
     80  CE2      194.7330 -324.8660  692.6150 C.ar   73  TRP73       0.0810
     81  CE3      195.8880 -326.5070  693.9610 C.ar   73  TRP73       0.0012
     82  CZ2      194.1190 -324.3140  693.7320 C.ar   73  TRP73       0.0191
     83  CZ3      195.2800 -325.9510  695.0720 C.ar   73  TRP73       0.0001
     84  CH2      194.4040 -324.8720  694.9470 C.ar   73  TRP73       0.0015
     85  N        192.7120 -321.7110  697.3470 N.3    90  PHE90      -0.1227
     86  CA       193.1480 -321.0100  696.1480 C.3    90  PHE90       0.1736
     87  C        194.6640 -321.0500  696.0480 C.2    90  PHE90       0.2595
     88  O        195.3670 -321.2390  697.0450 O.2    90  PHE90      -0.2718
     89  CB       192.6820 -319.5530  696.1340 C.3    90  PHE90       0.0547
     90  CG       191.2380 -319.3780  696.4820 C.ar   90  PHE90      -0.0202
     91  CD1      190.8250 -319.3630  697.8080 C.ar   90  PHE90      -0.0042
     92  CD2      190.2890 -319.2320  695.4810 C.ar   90  PHE90      -0.0042
     93  CE1      189.4950 -319.2070  698.1310 C.ar   90  PHE90      -0.0003
     94  CE2      188.9550 -319.0690  695.7980 C.ar   90  PHE90      -0.0003
     95  CZ       188.5570 -319.0580  697.1260 C.ar   90  PHE90      -0.0000
     96  N        195.1530 -320.8440  694.8250 N.am   91  LEU91      -0.1980
     97  CA       196.5830 -320.8400  694.5340 C.3    91  LEU91       0.1596
     98  C        197.2970 -319.7770  695.3740 C.2    91  LEU91       0.2287
     99  O        196.9440 -318.5920  695.2880 O.2    91  LEU91      -0.2864
    100  CB       196.8060 -320.5760  693.0400 C.3    91  LEU91       0.0297
    101  CG       197.0260 -321.7240  692.0370 C.3    91  LEU91       0.0022
    102  CD1      197.8240 -321.2400  690.7930 C.3    91  LEU91       0.0001
    103  CD2      197.7400 -322.9020  692.6840 C.3    91  LEU91       0.0001
    104  N        201.0860 -317.8000  696.1810 N.3    93  ASP93      -0.1239
    105  CA       202.1950 -317.3910  695.3230 C.3    93  ASP93       0.1674
    106  C        203.5030 -318.1200  695.6220 C.2    93  ASP93       0.2266
    107  O        204.2780 -318.3600  694.6940 O.2    93  ASP93      -0.2867
    108  CB       202.4290 -315.8780  695.4150 C.3    93  ASP93       0.1410
    109  CG       201.2000 -315.0670  695.0410 C.2    93  ASP93       0.3668
    110  OD1      200.7310 -315.2150  693.8920 O.co2  93  ASP93      -0.2456
    111  OD2      200.7010 -314.2860  695.9010 O.co2  93  ASP93      -0.2456
    112  N        200.7180 -315.7180  700.4270 N.3   104  GLU104     -0.1231
    113  CA       200.0260 -314.9240  699.4140 C.3   104  GLU104      0.1699
    114  C        200.6180 -313.5130  699.4110 C.2   104  GLU104      0.2592
    115  O        200.4580 -312.7710  700.3890 O.2   104  GLU104     -0.2718
    116  CB       198.5150 -314.8940  699.6790 C.3   104  GLU104      0.0402
    117  CG       197.7750 -313.8770  698.8130 C.3   104  GLU104      0.1161
    118  CD       197.8790 -314.2040  697.3250 C.2   104  GLU104      0.3649
    119  OE1      198.1210 -315.3750  696.9760 O.co2 104  GLU104     -0.2457
    120  OE2      197.7920 -313.2790  696.4890 O.co2 104  GLU104     -0.2457
    121  N        201.2900 -313.1380  698.3140 N.am  105  ILE105     -0.1980
    122  CA       201.8460 -311.7920  698.1680 C.3   105  ILE105      0.1595
    123  C        200.7500 -310.8630  697.6740 C.2   105  ILE105      0.2287
    124  O        200.0380 -311.1910  696.7220 O.2   105  ILE105     -0.2864
    125  CB       203.0350 -311.7660  697.1960 C.3   105  ILE105      0.0276
    126  CG1      204.1940 -312.6520  697.6720 C.3   105  ILE105      0.0022
    127  CG2      203.4810 -310.3170  696.9630 C.3   105  ILE105      0.0022
    128  CD1      204.6480 -312.3290  699.0670 C.3   105  ILE105      0.0001
    129  N        193.1330 -303.7070  701.8970 N.3   115  TYR115     -0.1241
    130  CA       193.4400 -304.8560  701.0410 C.3   115  TYR115      0.1605
    131  C        193.6860 -306.1100  701.8700 C.2   115  TYR115      0.2264
    132  O        193.2190 -307.1970  701.5080 O.2   115  TYR115     -0.2867
    133  CB       194.6470 -304.5670  700.1350 C.3   115  TYR115      0.0534
    134  CG       194.9640 -305.6460  699.0790 C.ar  115  TYR115     -0.0201
    135  CD1      194.1470 -305.8290  697.9600 C.ar  115  TYR115     -0.0009
    136  CD2      196.0990 -306.4580  699.1890 C.ar  115  TYR115     -0.0009
    137  CE1      194.4540 -306.8140  696.9670 C.ar  115  TYR115      0.0417
    138  CE2      196.4120 -307.4450  698.2030 C.ar  115  TYR115      0.0417
    139  CZ       195.5790 -307.6190  697.1050 C.ar  115  TYR115      0.1957
    140  OH       195.8770 -308.5880  696.1360 O.3   115  TYR115     -0.2866
    141  N        191.8320 -309.7740  701.4430 N.3   119  LYS119     -0.1245
    142  CA       192.5830 -310.9850  701.1030 C.3   119  LYS119      0.1561
    143  C        192.3640 -312.1040  702.1190 C.2   119  LYS119      0.2260
    144  O        192.4890 -313.2830  701.7690 O.2   119  LYS119     -0.2867
    145  CB       194.0750 -310.6670  700.9800 C.3   119  LYS119      0.0271
    146  CG       194.4660 -309.9080  699.7240 C.3   119  LYS119      0.0035
    147  CD       194.0490 -310.6260  698.4390 C.3   119  LYS119      0.0206
    148  CE       194.9240 -311.8390  698.1400 C.3   119  LYS119      0.1093
    149  NZ       194.5160 -312.4090  696.8220 N.3   119  LYS119     -0.1314
    150  N        188.8010 -313.5010  701.6220 N.3   122  LYS122     -0.1231
    151  CA       188.7520 -314.1640  700.3230 C.3   122  LYS122      0.1693
    152  C        189.3150 -315.5760  700.3790 C.2   122  LYS122      0.2591
    153  O        188.8400 -316.4550  699.6550 O.2   122  LYS122     -0.2718
    154  CB       189.5130 -313.3490  699.2750 C.3   122  LYS122      0.0285
    155  CG       189.5820 -314.1510  697.9510 C.3   122  LYS122      0.0035
    156  CD       189.9070 -313.2060  696.8360 C.3   122  LYS122      0.0206
    157  CE       189.9620 -313.8270  695.4970 C.3   122  LYS122      0.1093
    158  NZ       190.6690 -315.1410  695.4780 N.3   122  LYS122     -0.1314
    159  N        190.3260 -315.8170  701.2050 N.am  123  ILE123     -0.1980
    160  CA       190.8970 -317.1560  701.2890 C.3   123  ILE123      0.1595
    161  C        190.2600 -317.9530  702.4170 C.2   123  ILE123      0.2287
    162  O        189.8740 -319.1100  702.2290 O.2   123  ILE123     -0.2864
    163  CB       192.4310 -317.0770  701.4450 C.3   123  ILE123      0.0276
    164  CG1      192.7880 -316.1350  702.5890 C.3   123  ILE123      0.0022
    165  CG2      193.0680 -316.6890  700.1580 C.3   123  ILE123      0.0022
    166  CD1      194.2550 -316.2010  702.9550 C.3   123  ILE123      0.0001
@<TRIPOS>BOND
     1    29    28    2
     2    28    27    1
     3    27    26    1
     4    27    30    1
     5     8     9    2
     6     8     7    1
     7    30    31    1
     8    10     7    1
     9    10    11    1
    10    13    12    1
    11     7     6    1
    12    16    17    2
    13    16    15    1
    14    12    11    1
    15     1     2    1
    16     6     3   am
    17    14    15    1
    18    31    32    1
    19    33    32   ar
    20     3     4    2
    21     3     2    1
    22    15    18    1
    23    32    34   ar
    24     2     5    1
    25    18    19    1
    26    35    36    1
    27    39    36    1
    28    39    40    1
    29    37    36    1
    30    37    38    2
    31    19    21   ar
    32    19    20   ar
    33    21    23   ar
    34    41    40    1
    35    41    42    1
    36    51    49    1
    37    50    48    1
    38    20    22   ar
    39    42    43    1
    40    23    24   ar
    41    48    49    1
    42    48    45    1
    43    22    24   ar
    44    24    25    1
    45    46    45    1
    46    46    47    2
    47    44    45    1
    48    70    68   ar
    49    64    65    2
    50    64    63    1
    51    68    67    1
    52    68    69   ar
    53    52    53    1
    54    77    79   ar
    55    77    76   ar
    56    71    72    1
    57    67    66    1
    58   102   101    1
    59    63    66    1
    60    63    62    1
    61    75    76    1
    62    75    72    1
    63    54    53    1
    64    54    55    2
    65    56    53    1
    66    56    57    1
    67    79    80   ar
    68    76    78   ar
    69    72    73    1
    70    73    74    2
    71    58    57   ar
    72    58    60   ar
    73   101   103    1
    74   101   100    1
    75    57    59   ar
    76    80    78   ar
    77    80    82   ar
    78    78    81   ar
    79    60    61   ar
    80   100    97    1
    81    59    61   ar
    82    82    84   ar
    83   110   109   ar
    84    81    83   ar
    85    97    96    1
    86    97    98    1
    87   107   106    2
    88    96    87   am
    89    84    83   ar
    90   109   108    1
    91   109   111   ar
    92    99    98    2
    93   105   108    1
    94   105   106    1
    95   105   104    1
    96   158   157    1
    97    92    94   ar
    98    92    90   ar
    99   157   156    1
   100    94    95   ar
   101    87    86    1
   102    87    88    2
   103    89    86    1
   104    89    90    1
   105   140   139    1
   106    86    85    1
   107    90    91   ar
   108   120   118   ar
   109   124   123    2
   110   149   148    1
   111   156   155    1
   112   127   125    1
   113   137   139   ar
   114   137   135   ar
   115   119   118   ar
   116   139   138   ar
   117    95    93   ar
   118   125   126    1
   119   125   122    1
   120   118   117    1
   121   126   128    1
   122   123   122    1
   123    91    93   ar
   124   155   154    1
   125   135   134   ar
   126   148   147    1
   127   122   121    1
   128   138   136   ar
   129   121   114   am
   130   147   146    1
   131   117   116    1
   132   134   136   ar
   133   134   133    1
   134   154   151    1
   135   114   113    1
   136   114   115    2
   137   113   116    1
   138   113   112    1
   139   153   152    2
   140   146   145    1
   141   133   130    1
   142   165   163    1
   143   151   152    1
   144   151   150    1
   145   152   159   am
   146   145   142    1
   147   130   131    1
   148   130   129    1
   149   142   141    1
   150   142   143    1
   151   159   160    1
   152   160   163    1
   153   160   161    1
   154   163   164    1
   155   132   131    2
   156   144   143    2
   157   162   161    2
   158   164   166    1
