@<TRIPOS>MOLECULE
tmp/5wefA00.pdb
 151 142 0 0 0
SMALL
GASTEIGER

@<TRIPOS>ATOM
      1  N        -14.1170   89.3050   13.0780 N.3    20  ALA20      -0.1231
      2  CA       -12.9020   88.6430   13.5450 C.3    20  ALA20       0.1694
      3  C        -11.7150   89.0970   12.7470 C.2    20  ALA20       0.2591
      4  O        -10.6600   89.4480   13.3100 O.2    20  ALA20      -0.2718
      5  CB       -13.0280   87.1140   13.4050 C.3    20  ALA20       0.0304
      6  N        -11.8910   89.1980   11.4220 N.am   21  MET21      -0.1979
      7  CA       -10.7930   89.6580   10.6010 C.3    21  MET21       0.1605
      8  C        -10.4660   91.1070   10.8930 C.2    21  MET21       0.2287
      9  O         -9.2820   91.4810   10.9810 O.2    21  MET21      -0.2864
     10  CB       -11.1670   89.4640    9.1390 C.3    21  MET21       0.0413
     11  CG       -11.1710   87.9320    8.7950 C.3    21  MET21       0.0598
     12  SD       -11.4780   87.7300    7.0570 S.3    21  MET21      -0.1393
     13  CE        -9.8890   88.0710    6.2660 C.3    21  MET21       0.0692
     14  N         -8.2090   92.1330   13.7010 N.3    24  TYR24      -0.1241
     15  CA        -6.7800   91.9450   13.5380 C.3    24  TYR24       0.1605
     16  C         -6.2700   92.7240   12.3360 C.2    24  TYR24       0.2264
     17  O         -5.1720   92.4800   11.8810 O.2    24  TYR24      -0.2867
     18  CB        -6.4670   90.4370   13.4720 C.3    24  TYR24       0.0534
     19  CG        -6.6160   89.8080   14.8480 C.ar   24  TYR24      -0.0201
     20  CD1       -7.8510   89.3420   15.2930 C.ar   24  TYR24      -0.0009
     21  CD2       -5.5560   89.7820   15.7490 C.ar   24  TYR24      -0.0009
     22  CE1       -8.0180   88.8210   16.5820 C.ar   24  TYR24       0.0417
     23  CE2       -5.7100   89.2620   17.0300 C.ar   24  TYR24       0.0417
     24  CZ        -6.9460   88.7890   17.4450 C.ar   24  TYR24       0.1957
     25  OH        -7.1390   88.2850   18.7160 O.3    24  TYR24      -0.2866
     26  N         -7.2420   92.8400    9.2130 N.3    26  GLU26      -0.1245
     27  CA        -7.3210   92.1910    7.9080 C.3    26  GLU26       0.1567
     28  C         -8.6350   92.5260    7.2200 C.2    26  GLU26       0.2260
     29  O         -9.6730   92.5750    7.8670 O.2    26  GLU26      -0.2867
     30  CB        -7.1730   90.6730    8.0570 C.3    26  GLU26       0.0388
     31  CG        -5.8500   90.2940    8.7330 C.3    26  GLU26       0.1160
     32  CD        -5.8070   88.8780    9.2660 C.2    26  GLU26       0.3649
     33  OE1       -4.7060   88.3240    9.4230 O.co2  26  GLU26      -0.2457
     34  OE2       -6.8800   88.3170    9.5450 O.co2  26  GLU26      -0.2457
     35  N         -8.8590   83.3410    3.8460 N.3    34  LYS34      -0.1245
     36  CA        -9.0050   83.4170    5.2990 C.3    34  LYS34       0.1561
     37  C        -10.4510   83.6600    5.7020 C.2    34  LYS34       0.2260
     38  O        -10.9420   83.0700    6.6720 O.2    34  LYS34      -0.2867
     39  CB        -8.1050   84.5320    5.8420 C.3    34  LYS34       0.0271
     40  CG        -7.8950   84.5380    7.3620 C.3    34  LYS34       0.0035
     41  CD        -6.7890   85.5780    7.8330 C.3    34  LYS34       0.0206
     42  CE        -5.4580   85.4130    7.0750 C.3    34  LYS34       0.1093
     43  NZ        -4.2930   86.0050    7.8090 N.3    34  LYS34      -0.1314
     44  N        -12.5450   81.0020    8.0940 N.3    38  ILE38      -0.1245
     45  CA       -13.1380   81.3640    9.3730 C.3    38  ILE38       0.1561
     46  C        -14.6230   81.1050    9.3440 C.2    38  ILE38       0.2260
     47  O        -15.2160   80.6130   10.3240 O.2    38  ILE38      -0.2867
     48  CB       -12.8270   82.8470    9.6540 C.3    38  ILE38       0.0252
     49  CG1      -11.3170   83.0310    9.8920 C.3    38  ILE38       0.0019
     50  CG2      -13.7650   83.4710   10.7900 C.3    38  ILE38       0.0019
     51  CD1      -10.9620   84.5910    9.9100 C.3    38  ILE38       0.0001
     52  N        -15.0910   77.3340    9.9070 N.3    41  HIS41      -0.1241
     53  CA       -14.8740   76.8760   11.2740 C.3    41  HIS41       0.1621
     54  C        -16.0770   77.2330   12.1240 C.2    41  HIS41       0.2264
     55  O        -16.6020   76.3830   12.8620 O.2    41  HIS41      -0.2867
     56  CB       -13.5570   77.4700   11.8240 C.3    41  HIS41       0.0745
     57  CG       -13.3430   77.2870   13.3030 C.ar   41  HIS41       0.0817
     58  ND1      -13.7520   78.2240   14.2290 N.ar   41  HIS41      -0.2268
     59  CD2      -12.7680   76.2820   14.0200 C.ar   41  HIS41       0.1154
     60  CE1      -13.4510   77.8010   15.4510 C.ar   41  HIS41       0.1986
     61  NE2      -12.8050   76.6470   15.3500 N.ar   41  HIS41      -0.2212
     62  N        -17.3980   79.6450   21.0120 N.3    61  GLU61      -0.1245
     63  CA       -16.8950   80.3400   19.8300 C.3    61  GLU61       0.1567
     64  C        -18.0140   81.2580   19.3240 C.2    61  GLU61       0.2260
     65  O        -19.2050   80.9770   19.5100 O.2    61  GLU61      -0.2867
     66  CB       -16.4650   79.2880   18.7610 C.3    61  GLU61       0.0388
     67  CG       -15.9640   79.8170   17.4840 C.3    61  GLU61       0.1160
     68  CD       -14.6780   80.6470   17.6660 C.2    61  GLU61       0.3649
     69  OE1      -13.5440   80.0680   17.6960 O.co2  61  GLU61      -0.2457
     70  OE2      -14.8530   81.8940   17.7820 O.co2  61  GLU61      -0.2457
     71  N        -15.5050   88.5790   23.3530 N.3    65  ARG65      -0.1245
     72  CA       -14.5720   88.0080   24.3160 C.3    65  ARG65       0.1563
     73  C        -15.1100   88.0290   25.7440 C.2    65  ARG65       0.2260
     74  O        -14.8790   87.0780   26.5210 O.2    65  ARG65      -0.2867
     75  CB       -13.2710   88.7620   24.2990 C.3    65  ARG65       0.0307
     76  CG       -12.4680   88.5240   23.0360 C.3    65  ARG65       0.0489
     77  CD       -11.3900   89.5920   22.8990 C.3    65  ARG65       0.2205
     78  NE       -10.5560   89.3160   21.7160 N.pl3  65  ARG65      -0.0865
     79  CZ       -10.9640   89.5810   20.4630 C.cat  65  ARG65       0.5346
     80  NH1      -12.1770   90.1110   20.2650 N.pl3  65  ARG65       0.1354
     81  NH2      -10.1950   89.2540   19.4030 N.pl3  65  ARG65       0.1354
     82  N         -9.5260   80.4770   25.1150 N.3    87  LEU87      -0.1231
     83  CA       -10.9320   80.2360   24.8670 C.3    87  LEU87       0.1678
     84  C        -11.1190   78.9750   24.0330 C.2    87  LEU87       0.2434
     85  O        -10.4960   78.8760   22.9700 O.2    87  LEU87      -0.2733
     86  CB       -11.5400   81.4380   24.1310 C.3    87  LEU87       0.0284
     87  CG       -12.0060   82.5650   25.0230 C.3    87  LEU87       0.0019
     88  CD1      -12.5960   83.7450   24.1590 C.3    87  LEU87       0.0001
     89  CD2      -13.0150   82.1130   26.1130 C.3    87  LEU87       0.0001
     90  N        -11.8950   77.9550   24.5060 N.am   88  PRO88      -0.2718
     91  CA       -12.1980   76.7810   23.6650 C.3    88  PRO88       0.1535
     92  C        -13.3790   77.0820   22.7710 C.2    88  PRO88       0.2598
     93  O        -13.8960   78.1960   22.8310 O.2    88  PRO88      -0.2715
     94  CB       -12.5520   75.6840   24.6810 C.3    88  PRO88       0.0310
     95  CG       -12.2240   76.2010   26.0230 C.3    88  PRO88       0.0237
     96  CD       -12.3510   77.7330   25.8750 C.3    88  PRO88       0.0939
     97  N        -13.9150   76.1060   22.0470 N.am   89  ASP89      -0.1972
     98  CA       -15.0610   76.3420   21.1620 C.3    89  ASP89       0.1709
     99  C        -16.4380   76.0010   21.7470 C.2    89  ASP89       0.2293
    100  O        -17.4360   76.6870   21.4190 O.2    89  ASP89      -0.2864
    101  CB       -14.8580   75.5330   19.9030 C.3    89  ASP89       0.1436
    102  CG       -13.6590   76.0700   19.1100 C.2    89  ASP89       0.3671
    103  OD1      -13.4660   77.2780   19.1550 O.co2  89  ASP89      -0.2456
    104  OD2      -12.9870   75.2980   18.4650 O.co2  89  ASP89      -0.2456
    105  N        -12.1370   71.7640   21.7630 N.3   100  GLU100     -0.1231
    106  CA       -11.5330   72.6090   20.7470 C.3   100  GLU100      0.1699
    107  C        -11.8490   72.0100   19.3790 C.2   100  GLU100      0.2592
    108  O        -11.5510   70.8490   19.1430 O.2   100  GLU100     -0.2718
    109  CB       -10.0220   72.7170   20.9720 C.3   100  GLU100      0.0402
    110  CG        -9.2660   73.4260   19.8230 C.3   100  GLU100      0.1161
    111  CD        -9.8490   74.8250   19.4930 C.2   100  GLU100      0.3649
    112  OE1       -9.9680   75.1690   18.2820 O.co2 100  GLU100     -0.2457
    113  OE2      -10.1640   75.5790   20.4410 O.co2 100  GLU100     -0.2457
    114  N        -12.4840   72.7640   18.4950 N.am  101  ILE101     -0.1980
    115  CA       -12.8240   72.2400   17.1760 C.3   101  ILE101      0.1595
    116  C        -11.7810   72.7480   16.1860 C.2   101  ILE101      0.2287
    117  O        -11.4180   73.9250   16.2200 O.2   101  ILE101     -0.2864
    118  CB       -14.2310   72.6750   16.7210 C.3   101  ILE101      0.0276
    119  CG1      -15.3600   72.0970   17.5860 C.3   101  ILE101      0.0022
    120  CG2      -14.3830   72.3800   15.2420 C.3   101  ILE101      0.0022
    121  CD1      -15.3810   70.5670   17.5570 C.3   101  ILE101      0.0001
    122  N         -2.5870   68.8440   11.9470 N.3   111  TYR111     -0.1241
    123  CA        -3.3430   69.8690   12.6560 C.3   111  TYR111      0.1605
    124  C         -3.6200   69.4650   14.1050 C.2   111  TYR111      0.2264
    125  O         -3.6470   70.3310   14.9950 O.2   111  TYR111     -0.2867
    126  CB        -4.6630   70.1750   11.9200 C.3   111  TYR111      0.0534
    127  CG        -5.3510   71.5170   12.2560 C.ar  111  TYR111     -0.0201
    128  CD1       -5.1720   72.6330   11.4540 C.ar  111  TYR111     -0.0009
    129  CD2       -6.1970   71.6500   13.3460 C.ar  111  TYR111     -0.0009
    130  CE1       -5.8060   73.8580   11.7350 C.ar  111  TYR111      0.0417
    131  CE2       -6.8150   72.8720   13.6450 C.ar  111  TYR111      0.0417
    132  CZ        -6.6110   73.9920   12.8460 C.ar  111  TYR111      0.1957
    133  OH        -7.2450   75.2250   13.1280 O.3   111  TYR111     -0.2866
    134  N         -2.5940   71.8620   17.3080 N.3   115  LYS115     -0.1245
    135  CA        -3.4890   72.3440   18.3560 C.3   115  LYS115      0.1561
    136  C         -3.2020   71.6870   19.7040 C.2   115  LYS115      0.2260
    137  O         -3.4690   72.2840   20.7460 O.2   115  LYS115     -0.2867
    138  CB        -4.9550   72.1510   17.9420 C.3   115  LYS115      0.0271
    139  CG        -5.8150   73.3910   18.3100 C.3   115  LYS115      0.0035
    140  CD        -6.9750   73.6680   17.3320 C.3   115  LYS115      0.0206
    141  CE        -7.3540   75.1710   17.2190 C.3   115  LYS115      0.1093
    142  NZ        -6.6750   75.8560   16.1030 N.3   115  LYS115     -0.1314
    143  N         -0.4290   73.9690   20.6410 N.3   118  LYS118     -0.1245
    144  CA        -0.9290   75.3340   20.7670 C.3   118  LYS118      0.1561
    145  C         -1.7510   75.4920   22.0340 C.2   118  LYS118      0.2260
    146  O         -1.5270   76.4160   22.8210 O.2   118  LYS118     -0.2867
    147  CB        -1.7580   75.7190   19.5370 C.3   118  LYS118      0.0271
    148  CG        -0.9330   76.1420   18.3740 C.3   118  LYS118      0.0035
    149  CD        -1.8670   76.5410   17.2620 C.3   118  LYS118      0.0206
    150  CE        -1.3380   76.0630   15.9390 C.3   118  LYS118      0.1093
    151  NZ        -1.9470   76.8680   14.8520 N.3   118  LYS118     -0.1314
@<TRIPOS>BOND
     1    35    36    1
     2    36    37    1
     3    36    39    1
     4    37    38    2
     5    39    40    1
     6    13    12    1
     7    12    11    1
     8    42    43    1
     9    42    41    1
    10    28    29    2
    11    28    27    1
    12    40    41    1
    13    27    30    1
    14    27    26    1
    15    30    31    1
    16    44    45    1
    17    31    32    1
    18    11    10    1
    19    10     7    1
    20    32    33   ar
    21    32    34   ar
    22    46    45    1
    23    46    47    2
    24    45    48    1
    25    48    49    1
    26    48    50    1
    27    49    51    1
    28    52    53    1
    29     7     8    1
    30     7     6    1
    31     8     9    2
    32    53    56    1
    33    53    54    1
    34     6     3   am
    35   128   130   ar
    36   128   127   ar
    37   130   132   ar
    38    56    57    1
    39    17    16    2
    40   126   127    1
    41   126   123    1
    42   122   123    1
    43    54    55    2
    44   127   129   ar
    45    16    15    1
    46   123   124    1
    47     3     4    2
    48     3     2    1
    49   132   133    1
    50   132   131   ar
    51     1     2    1
    52    57    59   ar
    53    57    58   ar
    54   129   131   ar
    55     5     2    1
    56    18    15    1
    57    18    19    1
    58    15    14    1
    59    59    61   ar
    60   124   125    2
    61    58    60   ar
    62    19    20   ar
    63    19    21   ar
    64   151   150    1
    65   120   118    1
    66    20    22   ar
    67    61    60   ar
    68    21    23   ar
    69   150   149    1
    70   142   141    1
    71   116   117    2
    72   116   115    1
    73    22    24   ar
    74   118   115    1
    75   118   119    1
    76    23    24   ar
    77   115   114    1
    78   141   140    1
    79   149   148    1
    80   134   135    1
    81   140   139    1
    82    24    25    1
    83    67    68    1
    84    67    66    1
    85   121   119    1
    86    68    69   ar
    87    68    70   ar
    88   138   139    1
    89   138   135    1
    90   112   111   ar
    91   135   136    1
    92   148   147    1
    93   104   102   ar
    94   114   107   am
    95    66    63    1
    96   102   103   ar
    97   102   101    1
    98   108   107    2
    99    64    65    2
   100    64    63    1
   101   107   106    1
   102    81    79    1
   103   111   110    1
   104   111   113   ar
   105   147   144    1
   106   136   137    2
   107   110   109    1
   108    63    62    1
   109   101    98    1
   110    80    79    1
   111    79    78    2
   112   143   144    1
   113   106   109    1
   114   106   105    1
   115   144   145    1
   116    98    99    1
   117    98    97    1
   118   100    99    2
   119    78    77    1
   120   145   146    2
   121    97    92   am
   122    92    93    2
   123    92    91    1
   124    77    76    1
   125    85    84    2
   126    76    75    1
   127    71    72    1
   128    91    90    1
   129    91    94    1
   130    84    90   am
   131    84    83    1
   132    86    83    1
   133    86    87    1
   134    88    87    1
   135    75    72    1
   136    72    73    1
   137    90    96    1
   138    94    95    1
   139    83    82    1
   140    87    89    1
   141    73    74    2
   142    96    95    1
