@<TRIPOS>MOLECULE
tmp/5wehD03.pdb
 104 105 0 0 0
SMALL
GASTEIGER

@<TRIPOS>ATOM
      1  N         -7.9340  152.7280  -21.9160 N.3   184  TYR184     -0.1227
      2  CA        -8.7570  151.8120  -21.1340 C.3   184  TYR184      0.1736
      3  C         -8.3450  150.3650  -21.3740 C.2   184  TYR184      0.2596
      4  O         -8.2570  149.5760  -20.4270 O.2   184  TYR184     -0.2718
      5  CB       -10.2340  151.9980  -21.4900 C.3   184  TYR184      0.0548
      6  CG       -10.9350  153.1260  -20.7660 C.ar  184  TYR184     -0.0200
      7  CD1      -10.2540  154.2840  -20.4110 C.ar  184  TYR184     -0.0009
      8  CD2      -12.2870  153.0360  -20.4480 C.ar  184  TYR184     -0.0009
      9  CE1      -10.8950  155.3180  -19.7540 C.ar  184  TYR184      0.0417
     10  CE2      -12.9370  154.0650  -19.7900 C.ar  184  TYR184      0.0417
     11  CZ       -12.2360  155.2020  -19.4460 C.ar  184  TYR184      0.1957
     12  OH       -12.8790  156.2260  -18.7920 O.3   184  TYR184     -0.2866
     13  N         -8.1020  150.0010  -22.6360 N.am  185  SER185     -0.1952
     14  CA        -7.5570  148.6830  -22.9540 C.3   185  SER185      0.1924
     15  C         -6.2450  148.4300  -22.2180 C.2   185  SER185      0.2314
     16  O         -6.0550  147.3730  -21.6070 O.2   185  SER185     -0.2863
     17  CB        -7.3700  148.5480  -24.4650 C.3   185  SER185      0.2116
     18  OG        -6.2770  147.7000  -24.7740 O.3   185  SER185     -0.2180
     19  N         -5.0860  149.5560  -19.4640 N.3   187  ALA187     -0.1231
     20  CA        -5.1720  150.0110  -18.0820 C.3   187  ALA187      0.1694
     21  C         -4.4450  149.0430  -17.1550 C.2   187  ALA187      0.2592
     22  O         -4.6870  147.8310  -17.1870 O.2   187  ALA187     -0.2718
     23  CB        -6.6310  150.1640  -17.6560 C.3   187  ALA187      0.0304
     24  N         -3.5520  149.5840  -16.3280 N.am  188  ALA188     -0.1966
     25  CA        -2.7450  148.8130  -15.3940 C.3   188  ALA188      0.1728
     26  C         -3.4870  148.4560  -14.0990 C.2   188  ALA188      0.2616
     27  O         -2.8330  148.1290  -13.1000 O.2   188  ALA188     -0.2715
     28  CB        -1.4560  149.5700  -15.0710 C.3   188  ALA188      0.0334
     29  N         -4.8180  148.4960  -14.0950 N.am  189  PHE189     -0.1960
     30  CA        -5.5990  148.2510  -12.8880 C.3   189  PHE189      0.1771
     31  C         -7.0490  148.0160  -13.2810 C.2   189  PHE189      0.2620
     32  O         -7.4900  148.4130  -14.3640 O.2   189  PHE189     -0.2715
     33  CB        -5.4940  149.4170  -11.8960 C.3   189  PHE189      0.0574
     34  CG        -5.7690  150.7620  -12.5060 C.ar  189  PHE189     -0.0200
     35  CD1       -7.0710  151.1980  -12.6920 C.ar  189  PHE189     -0.0042
     36  CD2       -4.7270  151.5840  -12.9070 C.ar  189  PHE189     -0.0042
     37  CE1       -7.3290  152.4300  -13.2550 C.ar  189  PHE189     -0.0003
     38  CE2       -4.9800  152.8180  -13.4740 C.ar  189  PHE189     -0.0003
     39  CZ        -6.2840  153.2420  -13.6470 C.ar  189  PHE189     -0.0000
     40  N         -7.7820  147.3560  -12.3870 N.am  190  GLY190     -0.1940
     41  CA        -9.1400  146.9520  -12.6810 C.3   190  GLY190      0.2014
     42  C        -10.1810  148.0300  -12.4250 C.2   190  GLY190      0.2639
     43  O         -9.9350  149.0550  -11.7940 O.2   190  GLY190     -0.2714
     44  N        -11.3830  147.7610  -12.9320 N.am  191  PHE191     -0.1959
     45  CA       -12.5440  148.6090  -12.6850 C.3   191  PHE191      0.1771
     46  C        -13.1940  148.2600  -11.3520 C.2   191  PHE191      0.2619
     47  O        -13.4580  149.1440  -10.5260 O.2   191  PHE191     -0.2715
     48  CB       -13.5400  148.4590  -13.8390 C.3   191  PHE191      0.0574
     49  CG       -14.8510  149.1620  -13.6250 C.ar  191  PHE191     -0.0200
     50  CD1      -14.9250  150.5460  -13.6270 C.ar  191  PHE191     -0.0042
     51  CD2      -16.0190  148.4340  -13.4540 C.ar  191  PHE191     -0.0042
     52  CE1      -16.1380  151.1900  -13.4430 C.ar  191  PHE191     -0.0003
     53  CE2      -17.2350  149.0710  -13.2700 C.ar  191  PHE191     -0.0003
     54  CZ       -17.2940  150.4520  -13.2660 C.ar  191  PHE191     -0.0000
     55  N        -13.4560  146.9730  -11.1340 N.am  192  ALA192     -0.1977
     56  CA       -14.1150  146.4800   -9.9330 C.3   192  ALA192      0.1597
     57  C        -13.1130  146.2200   -8.8120 C.2   192  ALA192      0.2287
     58  O        -11.9720  145.8160   -9.0570 O.2   192  ALA192     -0.2864
     59  CB       -14.8860  145.1970  -10.2470 C.3   192  ALA192      0.0319
     60  N        -12.1910  155.1220  -13.6100 N.3   201  PHE201     -0.1227
     61  CA       -12.9960  154.7280  -14.7630 C.3   201  PHE201      0.1736
     62  C        -14.3590  155.4150  -14.7980 C.2   201  PHE201      0.2595
     63  O        -14.9530  155.5390  -15.8740 O.2   201  PHE201     -0.2718
     64  CB       -13.1600  153.2120  -14.7920 C.3   201  PHE201      0.0547
     65  CG       -11.9300  152.4870  -15.2360 C.ar  201  PHE201     -0.0202
     66  CD1      -11.4770  152.6080  -16.5410 C.ar  201  PHE201     -0.0042
     67  CD2      -11.2250  151.6840  -14.3600 C.ar  201  PHE201     -0.0042
     68  CE1      -10.3400  151.9450  -16.9590 C.ar  201  PHE201     -0.0003
     69  CE2      -10.0880  151.0130  -14.7720 C.ar  201  PHE201     -0.0003
     70  CZ        -9.6450  151.1450  -16.0750 C.ar  201  PHE201     -0.0000
     71  N        -14.8830  155.8490  -13.6500 N.am  202  MET202     -0.1979
     72  CA       -16.1450  156.5830  -13.6720 C.3   202  MET202      0.1605
     73  C        -15.9550  158.0520  -14.0350 C.2   202  MET202      0.2287
     74  O        -16.8140  158.6300  -14.7100 O.2   202  MET202     -0.2864
     75  CB       -16.8600  156.4590  -12.3240 C.3   202  MET202      0.0413
     76  CG       -17.3530  155.0510  -12.0050 C.3   202  MET202      0.0598
     77  SD       -18.3020  154.2960  -13.3390 S.3   202  MET202     -0.1393
     78  CE       -19.7820  155.3060  -13.3460 C.3   202  MET202      0.0692
     79  N        -14.7120  158.1000  -17.5030 N.3   205  GLY205     -0.1210
     80  CA       -15.8050  157.4510  -18.2090 C.3   205  GLY205      0.1956
     81  C        -16.9250  158.4010  -18.5900 C.2   205  GLY205      0.2611
     82  O        -17.3670  158.4260  -19.7410 O.2   205  GLY205     -0.2717
     83  N        -17.3990  159.2010  -17.6300 N.am  206  PHE206     -0.1976
     84  CA       -18.4740  160.1460  -17.9310 C.3   206  PHE206      0.1639
     85  C        -17.9840  161.2690  -18.8370 C.2   206  PHE206      0.2290
     86  O        -18.7140  161.7180  -19.7300 O.2   206  PHE206     -0.2864
     87  CB       -19.0770  160.7010  -16.6410 C.3   206  PHE206      0.0560
     88  CG       -20.2030  159.8700  -16.1000 C.ar  206  PHE206     -0.0200
     89  CD1      -21.3590  159.6940  -16.8460 C.ar  206  PHE206     -0.0042
     90  CD2      -20.1150  159.2680  -14.8590 C.ar  206  PHE206     -0.0042
     91  CE1      -22.4020  158.9280  -16.3620 C.ar  206  PHE206     -0.0003
     92  CE2      -21.1580  158.5020  -14.3680 C.ar  206  PHE206     -0.0003
     93  CZ       -22.3040  158.3330  -15.1220 C.ar  206  PHE206     -0.0000
     94  N        -18.1390  160.0040  -22.1840 N.3   209  PHE209     -0.1241
     95  CA       -19.5260  160.0490  -22.6280 C.3   209  PHE209      0.1605
     96  C        -19.9190  161.4680  -23.0080 C.2   209  PHE209      0.2264
     97  O        -20.6820  161.6660  -23.9600 O.2   209  PHE209     -0.2867
     98  CB       -20.4230  159.4800  -21.5160 C.3   209  PHE209      0.0534
     99  CG       -21.9110  159.5830  -21.7770 C.ar  209  PHE209     -0.0203
    100  CD1      -22.5940  160.7870  -21.6490 C.ar  209  PHE209     -0.0042
    101  CD2      -22.6320  158.4500  -22.1230 C.ar  209  PHE209     -0.0042
    102  CE1      -23.9580  160.8580  -21.8780 C.ar  209  PHE209     -0.0003
    103  CE2      -23.9980  158.5140  -22.3520 C.ar  209  PHE209     -0.0003
    104  CZ       -24.6600  159.7210  -22.2290 C.ar  209  PHE209     -0.0000
@<TRIPOS>BOND
     1    18    17    1
     2    17    14    1
     3    97    96    2
     4    96    95    1
     5    14    13    1
     6    14    15    1
     7    13     3   am
     8    95    94    1
     9    95    98    1
    10   103   104   ar
    11   103   101   ar
    12   104   102   ar
    13    15    16    2
    14   101    99   ar
    15     1     2    1
    16   102   100   ar
    17    99   100   ar
    18    99    98    1
    19     5     2    1
    20     5     6    1
    21     3     2    1
    22     3     4    2
    23     6     8   ar
    24     6     7   ar
    25     8    10   ar
    26     7     9   ar
    27    10    11   ar
    28     9    11   ar
    29    82    81    2
    30    86    85    2
    31    19    20    1
    32    11    12    1
    33    85    84    1
    34    81    80    1
    35    81    83   am
    36    80    79    1
    37    20    23    1
    38    20    21    1
    39    84    83    1
    40    84    87    1
    41    22    21    2
    42    21    24   am
    43    68    66   ar
    44    68    70   ar
    45    89    91   ar
    46    89    88   ar
    47    87    88    1
    48    66    65   ar
    49    91    93   ar
    50    24    25    1
    51    88    90   ar
    52    70    69   ar
    53    63    62    2
    54    25    28    1
    55    25    26    1
    56    65    64    1
    57    65    67   ar
    58    93    92   ar
    59    90    92   ar
    60    62    61    1
    61    62    71   am
    62    64    61    1
    63    69    67   ar
    64    61    60    1
    65    74    73    2
    66    32    31    2
    67    26    29   am
    68    26    27    2
    69    29    30    1
    70    73    72    1
    71    48    49    1
    72    48    45    1
    73    72    71    1
    74    72    75    1
    75    39    38   ar
    76    39    37   ar
    77    50    49   ar
    78    50    52   ar
    79    49    51   ar
    80    38    36   ar
    81    51    53   ar
    82    52    54   ar
    83    78    77    1
    84    77    76    1
    85    31    30    1
    86    31    40   am
    87    53    54   ar
    88    37    35   ar
    89    44    45    1
    90    44    42   am
    91    36    34   ar
    92    30    33    1
    93    35    34   ar
    94    45    46    1
    95    41    42    1
    96    41    40    1
    97    34    33    1
    98    42    43    2
    99    75    76    1
   100    46    55   am
   101    46    47    2
   102    55    56    1
   103    59    56    1
   104    56    57    1
   105    58    57    2
