@<TRIPOS>MOLECULE
tmp/5wehG03.pdb
 93 88 0 0 0
SMALL
GASTEIGER

@<TRIPOS>ATOM
      1  N        -11.6740  133.3880    2.0310 N.3    75  LEU75      -0.1245
      2  CA       -11.0960  132.9020    0.7830 C.3    75  LEU75       0.1561
      3  C        -10.1470  131.7370    1.0370 C.2    75  LEU75       0.2260
      4  O        -10.2540  130.6860    0.3930 O.2    75  LEU75      -0.2867
      5  CB       -10.3830  134.0460    0.0580 C.3    75  LEU75       0.0270
      6  CG        -9.5980  133.7060   -1.2090 C.3    75  LEU75       0.0019
      7  CD1      -10.5220  133.2070   -2.3050 C.3    75  LEU75       0.0001
      8  CD2       -8.7990  134.9130   -1.6740 C.3    75  LEU75       0.0001
      9  N        -11.7760  128.6070    1.6500 N.3    78  ARG78      -0.1245
     10  CA       -12.3060  128.0260    0.4230 C.3    78  ARG78       0.1563
     11  C        -11.2710  127.1360   -0.2760 C.2    78  ARG78       0.2260
     12  O        -11.6120  126.0410   -0.7390 O.2    78  ARG78      -0.2867
     13  CB       -12.8650  129.1240   -0.4890 C.3    78  ARG78       0.0307
     14  CG       -14.2510  129.6140    0.0010 C.3    78  ARG78       0.0489
     15  CD       -14.9980  130.5600   -0.9570 C.3    78  ARG78       0.2205
     16  NE       -14.3640  131.8510   -1.2230 N.pl3  78  ARG78      -0.0865
     17  CZ       -14.5230  132.9340   -0.4600 C.cat  78  ARG78       0.5346
     18  NH1      -15.3110  132.8850    0.6020 N.pl3  78  ARG78       0.1354
     19  NH2      -13.9160  134.0720   -0.7780 N.pl3  78  ARG78       0.1354
     20  N        -11.1360  122.8870   -0.9280 N.3    82  ILE82      -0.1245
     21  CA       -10.9620  122.3660   -2.2830 C.3    82  ILE82       0.1561
     22  C         -9.7630  121.4230   -2.3410 C.2    82  ILE82       0.2260
     23  O         -9.8410  120.3290   -2.9140 O.2    82  ILE82      -0.2867
     24  CB       -10.8340  123.5150   -3.3020 C.3    82  ILE82       0.0252
     25  CG1      -12.1520  124.2840   -3.4200 C.3    82  ILE82       0.0019
     26  CG2      -10.4250  122.9890   -4.6700 C.3    82  ILE82       0.0019
     27  CD1      -11.9940  125.6800   -3.9850 C.3    82  ILE82       0.0001
     28  N        -10.9820  118.2910   -0.9560 N.3    85  ILE85      -0.1245
     29  CA       -11.7810  117.5720   -1.9500 C.3    85  ILE85       0.1561
     30  C        -10.8860  116.8870   -2.9780 C.2    85  ILE85       0.2260
     31  O        -11.1370  115.7430   -3.3810 O.2    85  ILE85      -0.2867
     32  CB       -12.7860  118.5330   -2.6180 C.3    85  ILE85       0.0252
     33  CG1      -13.9880  118.7670   -1.7020 C.3    85  ILE85       0.0019
     34  CG2      -13.2610  117.9890   -3.9600 C.3    85  ILE85       0.0019
     35  CD1      -14.9440  119.8320   -2.2060 C.3    85  ILE85       0.0001
     36  N        -28.6540  122.8830   -4.3730 N.3   147  THR147     -0.1218
     37  CA       -28.2450  124.0200   -5.1920 C.3   147  THR147      0.1862
     38  C        -29.2970  125.1240   -5.1760 C.2   147  THR147      0.2287
     39  O        -28.9510  126.3090   -5.1380 O.2   147  THR147     -0.2866
     40  CB       -27.9700  123.5620   -6.6250 C.3   147  THR147      0.1770
     41  OG1      -27.1420  122.3940   -6.6050 O.3   147  THR147     -0.2211
     42  CG2      -27.2620  124.6550   -7.4130 C.3   147  THR147      0.0375
     43  N        -28.5450  126.9210   -2.1610 N.3   150  HIS150     -0.1241
     44  CA       -27.4280  127.8490   -2.3260 C.3   150  HIS150      0.1621
     45  C        -27.8720  129.1000   -3.0720 C.2   150  HIS150      0.2264
     46  O        -27.7170  130.2250   -2.5810 O.2   150  HIS150     -0.2867
     47  CB       -26.2790  127.1640   -3.0670 C.3   150  HIS150      0.0745
     48  CG       -24.9860  127.9200   -3.0160 C.ar  150  HIS150      0.0817
     49  ND1      -24.3200  128.1720   -1.8360 N.ar  150  HIS150     -0.2268
     50  CD2      -24.2330  128.4720   -3.9970 C.ar  150  HIS150      0.1154
     51  CE1      -23.2140  128.8490   -2.0900 C.ar  150  HIS150      0.1986
     52  NE2      -23.1370  129.0450   -3.3940 N.ar  150  HIS150     -0.2212
     53  N        -21.0410  127.0060    1.9400 N.3   239  GLU239     -0.1245
     54  CA       -20.4410  126.8510    0.6180 C.3   239  GLU239      0.1567
     55  C        -19.8070  125.4740    0.4690 C.2   239  GLU239      0.2260
     56  O        -20.0330  124.7790   -0.5280 O.2   239  GLU239     -0.2867
     57  CB       -19.4010  127.9500    0.3960 C.3   239  GLU239      0.0388
     58  CG       -19.2980  128.4730   -1.0230 C.3   239  GLU239      0.1160
     59  CD       -19.0780  129.9760   -1.0590 C.2   239  GLU239      0.3649
     60  OE1      -18.1300  130.4600   -0.4000 O.co2 239  GLU239     -0.2457
     61  OE2      -19.8610  130.6770   -1.7310 O.co2 239  GLU239     -0.2457
     62  N        -22.2490  122.3730   -0.1160 N.3   242  ILE242     -0.1231
     63  CA       -22.7460  122.1170   -1.4620 C.3   242  ILE242      0.1692
     64  C        -21.6150  121.6450   -2.3710 C.2   242  ILE242      0.2592
     65  O        -21.8380  120.8400   -3.2820 O.2   242  ILE242     -0.2718
     66  CB       -23.4480  123.3850   -1.9810 C.3   242  ILE242      0.0266
     67  CG1      -24.7730  123.5650   -1.2390 C.3   242  ILE242      0.0019
     68  CG2      -23.7070  123.3130   -3.4790 C.3   242  ILE242      0.0020
     69  CD1      -24.9690  124.9420   -0.6690 C.3   242  ILE242      0.0001
     70  N        -20.3870  122.1060   -2.1220 N.am  243  TRP243     -0.1976
     71  CA       -19.2270  121.5620   -2.8220 C.3   243  TRP243      0.1640
     72  C        -19.0330  120.0860   -2.4980 C.2   243  TRP243      0.2290
     73  O        -18.9690  119.2410   -3.3970 O.2   243  TRP243     -0.2864
     74  CB       -17.9750  122.3500   -2.4490 C.3   243  TRP243      0.0576
     75  CG       -17.9050  123.7130   -3.0430 C.ar  243  TRP243      0.0006
     76  CD1      -18.6950  124.2250   -4.0330 C.ar  243  TRP243      0.0946
     77  CD2      -16.9820  124.7450   -2.6880 C.ar  243  TRP243      0.0152
     78  NE1      -18.3180  125.5170   -4.3130 N.ar  243  TRP243     -0.2442
     79  CE2      -17.2690  125.8590   -3.5000 C.ar  243  TRP243      0.0810
     80  CE3      -15.9410  124.8360   -1.7590 C.ar  243  TRP243      0.0012
     81  CZ2      -16.5520  127.0500   -3.4110 C.ar  243  TRP243      0.0191
     82  CZ3      -15.2310  126.0170   -1.6730 C.ar  243  TRP243      0.0001
     83  CH2      -15.5390  127.1080   -2.4940 C.ar  243  TRP243      0.0015
     84  N        -21.7810  118.1000   -3.9560 N.3   246  HIS246     -0.1241
     85  CA       -21.6190  117.9820   -5.4020 C.3   246  HIS246      0.1621
     86  C        -20.4730  117.0460   -5.7560 C.2   246  HIS246      0.2264
     87  O        -20.5240  116.3580   -6.7800 O.2   246  HIS246     -0.2867
     88  CB       -21.3790  119.3570   -6.0210 C.3   246  HIS246      0.0745
     89  CG       -22.6320  120.0580   -6.4380 C.ar  246  HIS246      0.0817
     90  ND1      -22.8400  120.5130   -7.7220 N.ar  246  HIS246     -0.2268
     91  CD2      -23.7420  120.3890   -5.7380 C.ar  246  HIS246      0.1154
     92  CE1      -24.0260  121.0910   -7.7960 C.ar  246  HIS246      0.1986
     93  NE2      -24.5930  121.0290   -6.6050 N.ar  246  HIS246     -0.2212
@<TRIPOS>BOND
     1    92    90   ar
     2    92    93   ar
     3    90    89   ar
     4    42    40    1
     5    87    86    2
     6    40    41    1
     7    40    37    1
     8    93    91   ar
     9    89    88    1
    10    89    91   ar
    11    88    85    1
    12    86    85    1
    13    85    84    1
    14    37    38    1
    15    37    36    1
    16    38    39    2
    17    26    24    1
    18    78    76   ar
    19    78    79   ar
    20    76    75   ar
    21    50    52   ar
    22    50    48   ar
    23    27    25    1
    24    34    32    1
    25    79    81   ar
    26    79    77   ar
    27    68    66    1
    28    25    24    1
    29    81    83   ar
    30    73    72    2
    31    52    51   ar
    32    31    30    2
    33    24    21    1
    34    65    64    2
    35    45    46    2
    36    45    44    1
    37    47    48    1
    38    47    44    1
    39    75    77   ar
    40    75    74    1
    41    48    49   ar
    42    30    29    1
    43    23    22    2
    44    71    72    1
    45    71    74    1
    46    71    70    1
    47    77    80   ar
    48    32    29    1
    49    32    33    1
    50    83    82   ar
    51    64    70   am
    52    64    63    1
    53    22    21    1
    54    44    43    1
    55     7     6    1
    56    21    20    1
    57    35    33    1
    58    51    49   ar
    59    66    63    1
    60    66    67    1
    61    29    28    1
    62    80    82   ar
    63    61    59   ar
    64     8     6    1
    65    63    62    1
    66    67    69    1
    67    16    15    1
    68    16    17    2
    69     6     5    1
    70    59    58    1
    71    59    60   ar
    72    58    57    1
    73    15    14    1
    74    19    17    1
    75    12    11    2
    76    56    55    2
    77    13    14    1
    78    13    10    1
    79    17    18    1
    80    11    10    1
    81     5     2    1
    82     4     3    2
    83    57    54    1
    84    10     9    1
    85    55    54    1
    86    54    53    1
    87     2     3    1
    88     2     1    1
