@<TRIPOS>MOLECULE
tmp/5wehA03.pdb
 155 152 0 0 0
SMALL
GASTEIGER

@<TRIPOS>ATOM
      1  N        -36.1150  185.1480  -15.3190 N.3   200  LEU200     -0.1245
      2  CA       -35.1080  186.1490  -15.6510 C.3   200  LEU200      0.1561
      3  C        -35.3750  186.8350  -16.9860 C.2   200  LEU200      0.2260
      4  O        -35.0180  188.0060  -17.1550 O.2   200  LEU200     -0.2867
      5  CB       -33.7230  185.5020  -15.6490 C.3   200  LEU200      0.0270
      6  CG       -33.2020  185.1510  -14.2530 C.3   200  LEU200      0.0019
      7  CD1      -32.0550  184.1670  -14.3280 C.3   200  LEU200      0.0001
      8  CD2      -32.7710  186.4080  -13.5170 C.3   200  LEU200      0.0001
      9  N        -40.1540  188.5220  -17.8180 N.3   203  ARG203     -0.1245
     10  CA       -40.9530  189.4010  -16.9770 C.3   203  ARG203      0.1563
     11  C        -41.7080  190.4340  -17.8150 C.2   203  ARG203      0.2260
     12  O        -41.4000  190.6850  -18.9850 O.2   203  ARG203     -0.2867
     13  CB       -40.0770  190.1060  -15.9440 C.3   203  ARG203      0.0307
     14  CG       -39.9720  189.3670  -14.6220 C.3   203  ARG203      0.0489
     15  CD       -38.6630  189.6940  -13.9330 C.3   203  ARG203      0.2205
     16  NE       -37.5170  189.4930  -14.8130 N.pl3 203  ARG203     -0.0865
     17  CZ       -36.5250  190.3650  -14.9540 C.cat 203  ARG203      0.5346
     18  NH1      -36.5290  191.4960  -14.2610 N.pl3 203  ARG203      0.1354
     19  NH2      -35.5240  190.1010  -15.7810 N.pl3 203  ARG203      0.1354
     20  N        -41.3120  195.5430  -14.8710 N.3   207  MET207     -0.1230
     21  CA       -41.1710  194.7440  -13.6580 C.3   207  MET207      0.1702
     22  C        -39.7080  194.3590  -13.4770 C.2   207  MET207      0.2593
     23  O        -39.2290  193.3940  -14.0780 O.2   207  MET207     -0.2718
     24  CB       -42.0500  193.5010  -13.7240 C.3   207  MET207      0.0401
     25  CG       -42.0830  192.7230  -12.4210 C.3   207  MET207      0.0596
     26  SD       -43.1460  191.2760  -12.5120 S.3   207  MET207     -0.1393
     27  CE       -44.7620  192.0410  -12.5870 C.3   207  MET207      0.0692
     28  N        -38.9900  195.1150  -12.6480 N.am  208  THR208     -0.1939
     29  CA       -37.6640  194.6830  -12.2370 C.3   208  THR208      0.2028
     30  C        -37.7940  193.5350  -11.2380 C.2   208  THR208      0.2642
     31  O        -38.8810  193.2360  -10.7350 O.2   208  THR208     -0.2714
     32  CB       -36.8680  195.8400  -11.6260 C.3   208  THR208      0.1808
     33  OG1      -35.6240  195.3490  -11.1110 O.3   208  THR208     -0.2208
     34  CG2      -37.6440  196.5070  -10.4970 C.3   208  THR208      0.0379
     35  N        -36.6680  192.8780  -10.9540 N.am  209  MET209     -0.1962
     36  CA       -36.7000  191.7560  -10.0210 C.3   209  MET209      0.1736
     37  C        -37.1010  192.2050   -8.6230 C.2   209  MET209      0.2616
     38  O        -37.6380  191.4090   -7.8450 O.2   209  MET209     -0.2715
     39  CB       -35.3450  191.0490  -10.0050 C.3   209  MET209      0.0427
     40  CG       -35.0710  190.2460  -11.2700 C.3   209  MET209      0.0599
     41  SD       -33.3410  189.7740  -11.4750 S.3   209  MET209     -0.1393
     42  CE       -33.2000  188.4720  -10.2540 C.3   209  MET209      0.0692
     43  N        -36.8570  193.4710   -8.2890 N.am  210  HIS210     -0.1973
     44  CA       -37.3390  194.0450   -7.0400 C.3   210  HIS210      0.1656
     45  C        -38.8000  194.4700   -7.1180 C.2   210  HIS210      0.2291
     46  O        -39.3110  195.0680   -6.1650 O.2   210  HIS210     -0.2864
     47  CB       -36.4540  195.2270   -6.6340 C.3   210  HIS210      0.0771
     48  CG       -35.0600  194.8280   -6.2560 C.ar  210  HIS210      0.0820
     49  ND1      -34.2930  195.5490   -5.3680 N.ar  210  HIS210     -0.2267
     50  CD2      -34.3000  193.7730   -6.6380 C.ar  210  HIS210      0.1154
     51  CE1      -33.1170  194.9620   -5.2240 C.ar  210  HIS210      0.1986
     52  NE2      -33.0970  193.8820   -5.9840 N.ar  210  HIS210     -0.2212
     53  N        -40.4350  184.8750   -6.5740 N.3   217  TRP217     -0.1241
     54  CA       -39.1160  184.7960   -5.9460 C.3   217  TRP217      0.1605
     55  C        -38.9060  183.4490   -5.2650 C.2   217  TRP217      0.2264
     56  O        -37.8550  182.8180   -5.4210 O.2   217  TRP217     -0.2867
     57  CB       -38.9340  185.9310   -4.9350 C.3   217  TRP217      0.0550
     58  CG       -38.2220  187.1310   -5.4770 C.ar  217  TRP217      0.0003
     59  CD1      -38.7510  188.3670   -5.7010 C.ar  217  TRP217      0.0946
     60  CD2      -36.8430  187.2110   -5.8570 C.ar  217  TRP217      0.0152
     61  NE1      -37.7890  189.2110   -6.2010 N.ar  217  TRP217     -0.2442
     62  CE2      -36.6090  188.5250   -6.3070 C.ar  217  TRP217      0.0810
     63  CE3      -35.7840  186.2970   -5.8630 C.ar  217  TRP217      0.0012
     64  CZ2      -35.3590  188.9490   -6.7570 C.ar  217  TRP217      0.0191
     65  CZ3      -34.5440  186.7200   -6.3110 C.ar  217  TRP217      0.0001
     66  CH2      -34.3430  188.0340   -6.7520 C.ar  217  TRP217      0.0015
     67  N        -38.2440  181.0080   -7.7860 N.3   220  PHE220     -0.1227
     68  CA       -36.9580  181.2800   -8.4220 C.3   220  PHE220      0.1736
     69  C        -35.8060  180.7230   -7.5950 C.2   220  PHE220      0.2595
     70  O        -34.9030  180.0670   -8.1280 O.2   220  PHE220     -0.2718
     71  CB       -36.8010  182.7870   -8.6340 C.3   220  PHE220      0.0547
     72  CG       -35.5570  183.1750   -9.3770 C.ar  220  PHE220     -0.0202
     73  CD1      -35.3210  182.7040  -10.6590 C.ar  220  PHE220     -0.0042
     74  CD2      -34.6340  184.0320   -8.8010 C.ar  220  PHE220     -0.0042
     75  CE1      -34.1780  183.0710  -11.3440 C.ar  220  PHE220     -0.0003
     76  CE2      -33.4900  184.4030   -9.4790 C.ar  220  PHE220     -0.0003
     77  CZ       -33.2620  183.9240  -10.7530 C.ar  220  PHE220     -0.0000
     78  N        -35.8250  180.9730   -6.2820 N.am  221  VAL221     -0.1980
     79  CA       -34.7920  180.4350   -5.4000 C.3   221  VAL221      0.1595
     80  C        -34.8520  178.9120   -5.3790 C.2   221  VAL221      0.2287
     81  O        -33.8170  178.2360   -5.4360 O.2   221  VAL221     -0.2864
     82  CB       -34.9280  181.0350   -3.9870 C.3   221  VAL221      0.0276
     83  CG1      -33.9730  180.3520   -3.0190 C.3   221  VAL221      0.0022
     84  CG2      -34.6830  182.5390   -4.0220 C.3   221  VAL221      0.0022
     85  N        -33.1010  177.4430   -8.3290 N.3   224  TRP224     -0.1227
     86  CA       -31.6410  177.4830   -8.2340 C.3   224  TRP224      0.1737
     87  C        -31.1050  176.3650   -7.3490 C.2   224  TRP224      0.2595
     88  O        -30.1080  175.7210   -7.6950 O.2   224  TRP224     -0.2718
     89  CB       -31.1760  178.8460   -7.7250 C.3   224  TRP224      0.0564
     90  CG       -30.9750  179.8400   -8.8240 C.ar  224  TRP224      0.0003
     91  CD1      -31.7770  180.8990   -9.1310 C.ar  224  TRP224      0.0946
     92  CD2      -29.9060  179.8580   -9.7790 C.ar  224  TRP224      0.0152
     93  NE1      -31.2700  181.5790  -10.2120 N.ar  224  TRP224     -0.2442
     94  CE2      -30.1220  180.9600  -10.6290 C.ar  224  TRP224      0.0810
     95  CE3      -28.7830  179.0510   -9.9960 C.ar  224  TRP224      0.0012
     96  CZ2      -29.2610  181.2760  -11.6790 C.ar  224  TRP224      0.0191
     97  CZ3      -27.9280  179.3670  -11.0390 C.ar  224  TRP224      0.0001
     98  CH2      -28.1720  180.4700  -11.8670 C.ar  224  TRP224      0.0015
     99  N        -31.7360  176.1330   -6.1950 N.am  225  LEU225     -0.1980
    100  CA       -31.3600  174.9940   -5.3620 C.3   225  LEU225      0.1596
    101  C        -31.4410  173.6910   -6.1500 C.2   225  LEU225      0.2287
    102  O        -30.5010  172.8900   -6.1440 O.2   225  LEU225     -0.2864
    103  CB       -32.2480  174.9220   -4.1220 C.3   225  LEU225      0.0297
    104  CG       -32.1690  176.0060   -3.0470 C.3   225  LEU225      0.0022
    105  CD1      -32.8570  175.5200   -1.7790 C.3   225  LEU225      0.0001
    106  CD2      -30.7340  176.4070   -2.7610 C.3   225  LEU225      0.0001
    107  N        -28.6480  173.1230   -8.7660 N.3   228  LEU228     -0.1245
    108  CA       -27.3160  172.8260   -8.2510 C.3   228  LEU228      0.1561
    109  C        -27.2550  171.5860   -7.3690 C.2   228  LEU228      0.2260
    110  O        -26.2010  170.9470   -7.2990 O.2   228  LEU228     -0.2867
    111  CB       -26.7880  174.0290   -7.4650 C.3   228  LEU228      0.0270
    112  CG       -26.5900  175.2930   -8.3020 C.3   228  LEU228      0.0019
    113  CD1      -26.6730  176.5610   -7.4500 C.3   228  LEU228      0.0001
    114  CD2      -25.2850  175.2260   -9.0770 C.3   228  LEU228      0.0001
    115  N        -34.2260  188.6070    0.3270 N.3   305  TYR305     -0.1241
    116  CA       -32.8320  188.3330    0.6630 C.3   305  TYR305      0.1605
    117  C        -32.7000  187.2610    1.7360 C.2   305  TYR305      0.2264
    118  O        -31.7000  186.5380    1.7580 O.2   305  TYR305     -0.2867
    119  CB       -32.1350  189.6280    1.0640 C.3   305  TYR305      0.0534
    120  CG       -31.8430  190.4750   -0.1470 C.ar  305  TYR305     -0.0201
    121  CD1      -31.4510  189.8770   -1.3410 C.ar  305  TYR305     -0.0009
    122  CD2      -31.9870  191.8550   -0.1190 C.ar  305  TYR305     -0.0009
    123  CE1      -31.1920  190.6270   -2.4670 C.ar  305  TYR305      0.0417
    124  CE2      -31.7290  192.6190   -1.2460 C.ar  305  TYR305      0.0417
    125  CZ       -31.3320  191.9940   -2.4160 C.ar  305  TYR305      0.1957
    126  OH       -31.0720  192.7350   -3.5450 O.3   305  TYR305     -0.2866
    127  N        -32.7790  184.2900   -0.3660 N.3   308  VAL308     -0.1245
    128  CA       -31.4510  184.1370   -0.9560 C.3   308  VAL308      0.1561
    129  C        -30.4550  183.6560    0.0900 C.2   308  VAL308      0.2260
    130  O        -29.6050  182.8010   -0.1900 O.2   308  VAL308     -0.2867
    131  CB       -30.9860  185.4500   -1.6130 C.3   308  VAL308      0.0252
    132  CG1      -29.8070  185.1800   -2.5280 C.3   308  VAL308      0.0019
    133  CG2      -32.1130  186.0780   -2.4080 C.3   308  VAL308      0.0019
    134  N        -31.0860  180.1370    0.8190 N.3   311  GLY311     -0.1210
    135  CA       -30.6890  179.3920   -0.3680 C.3   311  GLY311      0.1956
    136  C        -29.1900  179.1870   -0.5010 C.2   311  GLY311      0.2611
    137  O        -28.7390  178.0970   -0.8560 O.2   311  GLY311     -0.2717
    138  N        -28.3930  180.2200   -0.2090 N.am  312  VAL312     -0.1979
    139  CA       -26.9410  180.0790   -0.3120 C.3   312  VAL312      0.1595
    140  C        -26.4100  179.2060    0.8150 C.2   312  VAL312      0.2287
    141  O        -25.6810  178.2330    0.5820 O.2   312  VAL312     -0.2864
    142  CB       -26.2630  181.4610   -0.3160 C.3   312  VAL312      0.0276
    143  CG1      -24.7500  181.3100   -0.1810 C.3   312  VAL312      0.0022
    144  CG2      -26.6250  182.2220   -1.5720 C.3   312  VAL312      0.0022
    145  N        -26.3860  174.9620    1.2560 N.3   315  PHE315     -0.1241
    146  CA       -25.4540  173.9460    0.7760 C.3   315  PHE315      0.1605
    147  C        -24.3930  173.6150    1.8210 C.2   315  PHE315      0.2264
    148  O        -23.9590  172.4620    1.9220 O.2   315  PHE315     -0.2867
    149  CB       -24.7940  174.4070   -0.5250 C.3   315  PHE315      0.0534
    150  CG       -25.7230  174.4170   -1.7030 C.ar  315  PHE315     -0.0203
    151  CD1      -25.9610  173.2540   -2.4210 C.ar  315  PHE315     -0.0042
    152  CD2      -26.3590  175.5820   -2.0920 C.ar  315  PHE315     -0.0042
    153  CE1      -26.8150  173.2580   -3.5060 C.ar  315  PHE315     -0.0003
    154  CE2      -27.2150  175.5920   -3.1770 C.ar  315  PHE315     -0.0003
    155  CZ       -27.4430  174.4250   -3.8850 C.ar  315  PHE315     -0.0000
@<TRIPOS>BOND
     1    12    11    2
     2     9    10    1
     3    11    10    1
     4     4     3    2
     5     3     2    1
     6    10    13    1
     7    13    14    1
     8    19    17    1
     9     2     5    1
    10     2     1    1
    11     5     6    1
    12    17    16    2
    13    17    18    1
    14    20    21    1
    15    16    15    1
    16    14    15    1
    17     7     6    1
    18     6     8    1
    19    23    22    2
    20    24    21    1
    21    24    25    1
    22    21    22    1
    23    22    28   am
    24    28    29    1
    25    27    26    1
    26    26    25    1
    27    29    32    1
    28    29    30    1
    29    98    96   ar
    30    98    97   ar
    31    96    94   ar
    32    32    33    1
    33    32    34    1
    34    41    40    1
    35    41    42    1
    36    75    77   ar
    37    75    73   ar
    38    40    39    1
    39    30    35   am
    40    30    31    2
    41    97    95   ar
    42    35    36    1
    43    77    76   ar
    44    73    72   ar
    45    94    93   ar
    46    94    92   ar
    47    93    91   ar
    48    36    39    1
    49    36    37    1
    50    95    92   ar
    51    92    90   ar
    52    76    74   ar
    53    72    74   ar
    54    72    71    1
    55    91    90   ar
    56   114   112    1
    57    90    89    1
    58   107   108    1
    59    71    68    1
    60    37    43   am
    61    37    38    2
    62    68    67    1
    63    68    69    1
    64    85    86    1
    65   112   111    1
    66   112   113    1
    67    43    44    1
    68   108   111    1
    69   108   109    1
    70    86    89    1
    71    86    87    1
    72    70    69    2
    73    88    87    2
    74    69    78   am
    75   109   110    2
    76    87    99   am
    77    45    44    1
    78    45    46    2
    79    44    47    1
    80    64    66   ar
    81    64    62   ar
    82    66    65   ar
    83    50    48   ar
    84    50    52   ar
    85    47    48    1
    86    53    54    1
    87    65    63   ar
    88    62    61   ar
    89    62    60   ar
    90    78    79    1
    91    48    49   ar
    92    61    59   ar
    93    99   100    1
    94   101   102    2
    95   101   100    1
    96    52    51   ar
    97    54    55    1
    98    54    57    1
    99    63    60   ar
   100    60    58   ar
   101    59    58   ar
   102    58    57    1
   103    81    80    2
   104    56    55    2
   105    79    80    1
   106    79    82    1
   107    49    51   ar
   108   100   103    1
   109   103   104    1
   110    84    82    1
   111    82    83    1
   112   155   153   ar
   113   155   154   ar
   114   126   125    1
   115   153   151   ar
   116   154   152   ar
   117   104   106    1
   118   104   105    1
   119   132   131    1
   120   123   125   ar
   121   123   121   ar
   122   151   150   ar
   123   125   124   ar
   124   133   131    1
   125   152   150   ar
   126   150   149    1
   127   131   128    1
   128   144   142    1
   129   121   120   ar
   130   124   122   ar
   131   128   127    1
   132   128   129    1
   133   137   136    2
   134   149   146    1
   135   136   135    1
   136   136   138   am
   137   135   134    1
   138   142   139    1
   139   142   143    1
   140   139   138    1
   141   139   140    1
   142   130   129    2
   143   120   122   ar
   144   120   119    1
   145   115   116    1
   146   141   140    2
   147   116   119    1
   148   116   117    1
   149   146   145    1
   150   146   147    1
   151   117   118    2
   152   147   148    2
