@<TRIPOS>MOLECULE
tmp/5wehD00.pdb
 121 118 0 0 0
SMALL
GASTEIGER

@<TRIPOS>ATOM
      1  N        -41.9340  182.8960  -27.9410 N.3     8  HIS8       -0.1241
      2  CA       -42.2940  181.7090  -28.7100 C.3     8  HIS8        0.1621
      3  C        -43.4070  180.9330  -28.0100 C.2     8  HIS8        0.2264
      4  O        -43.2170  180.4290  -26.8980 O.2     8  HIS8       -0.2867
      5  CB       -41.0630  180.8220  -28.9080 C.3     8  HIS8        0.0745
      6  CG       -41.2720  179.6970  -29.8750 C.ar    8  HIS8        0.0817
      7  ND1      -40.4250  178.6130  -29.9480 N.ar    8  HIS8       -0.2268
      8  CD2      -42.2350  179.4850  -30.8030 C.ar    8  HIS8        0.1154
      9  CE1      -40.8540  177.7830  -30.8820 C.ar    8  HIS8        0.1986
     10  NE2      -41.9510  178.2880  -31.4150 N.ar    8  HIS8       -0.2212
     11  N        -45.8030  177.5660  -28.3920 N.3    10  LEU10      -0.1245
     12  CA       -45.6550  176.3220  -29.1340 C.3    10  LEU10       0.1561
     13  C        -46.9850  175.5980  -29.3380 C.2    10  LEU10       0.2260
     14  O        -47.8680  175.6370  -28.4770 O.2    10  LEU10      -0.2867
     15  CB       -44.6820  175.3720  -28.4300 C.3    10  LEU10       0.0270
     16  CG       -43.2150  175.6340  -28.7710 C.3    10  LEU10       0.0019
     17  CD1      -42.2890  174.9730  -27.7650 C.3    10  LEU10       0.0001
     18  CD2      -42.9340  175.1360  -30.1760 C.3    10  LEU10       0.0001
     19  N        -35.7020  162.2820  -29.1790 N.3    53  MET53      -0.1245
     20  CA       -34.7030  163.3520  -29.1870 C.3    53  MET53       0.1570
     21  C        -34.4960  163.9150  -30.5880 C.2    53  MET53       0.2261
     22  O        -34.4640  165.1340  -30.7890 O.2    53  MET53      -0.2867
     23  CB       -33.3700  162.8300  -28.6450 C.3    53  MET53       0.0387
     24  CG       -33.3520  162.4460  -27.1790 C.3    53  MET53       0.0595
     25  SD       -31.6700  161.9990  -26.6930 S.3    53  MET53      -0.1393
     26  CE       -31.8260  161.8880  -24.9140 C.3    53  MET53       0.0692
     27  N        -37.7620  165.9040  -31.6870 N.3    56  TRP56      -0.1227
     28  CA       -37.6840  167.1210  -30.8870 C.3    56  TRP56       0.1737
     29  C        -36.7540  168.1580  -31.5050 C.2    56  TRP56       0.2595
     30  O        -37.2020  169.2210  -31.9460 O.2    56  TRP56      -0.2718
     31  CB       -37.2010  166.7750  -29.4760 C.3    56  TRP56       0.0564
     32  CG       -37.4420  167.8300  -28.4360 C.ar   56  TRP56       0.0003
     33  CD1      -37.1750  169.1660  -28.5350 C.ar   56  TRP56       0.0946
     34  CD2      -37.9660  167.6230  -27.1200 C.ar   56  TRP56       0.0152
     35  NE1      -37.5190  169.8040  -27.3690 N.ar   56  TRP56      -0.2442
     36  CE2      -38.0060  168.8790  -26.4840 C.ar   56  TRP56       0.0810
     37  CE3      -38.4130  166.4970  -26.4220 C.ar   56  TRP56       0.0012
     38  CZ2      -38.4740  169.0400  -25.1830 C.ar   56  TRP56       0.0191
     39  CZ3      -38.8780  166.6590  -25.1310 C.ar   56  TRP56       0.0001
     40  CH2      -38.9050  167.9210  -24.5260 C.ar   56  TRP56       0.0015
     41  N        -35.4540  167.8500  -31.5380 N.am   57  TRP57      -0.1976
     42  CA       -34.4540  168.8140  -31.9830 C.3    57  TRP57       0.1640
     43  C        -34.5970  169.1780  -33.4540 C.2    57  TRP57       0.2290
     44  O        -34.1240  170.2450  -33.8600 O.2    57  TRP57      -0.2864
     45  CB       -33.0530  168.2700  -31.7120 C.3    57  TRP57       0.0576
     46  CG       -32.6450  168.3620  -30.2750 C.ar   57  TRP57       0.0006
     47  CD1      -32.8960  169.3900  -29.4140 C.ar   57  TRP57       0.0946
     48  CD2      -31.9180  167.3810  -29.5270 C.ar   57  TRP57       0.0152
     49  NE1      -32.3640  169.1140  -28.1780 N.ar   57  TRP57      -0.2442
     50  CE2      -31.7590  167.8840  -28.2210 C.ar   57  TRP57       0.0810
     51  CE3      -31.3860  166.1250  -29.8350 C.ar   57  TRP57       0.0012
     52  CZ2      -31.0880  167.1760  -27.2250 C.ar   57  TRP57       0.0191
     53  CZ3      -30.7190  165.4250  -28.8470 C.ar   57  TRP57       0.0001
     54  CH2      -30.5770  165.9520  -27.5570 C.ar   57  TRP57       0.0015
     55  N        -36.7870  172.2260  -33.3640 N.3    60  VAL60      -0.1245
     56  CA       -36.1060  173.4280  -32.8900 C.3    60  VAL60       0.1561
     57  C        -35.2310  174.0440  -33.9720 C.2    60  VAL60       0.2260
     58  O        -34.7770  175.1830  -33.8250 O.2    60  VAL60      -0.2867
     59  CB       -35.2820  173.1160  -31.6210 C.3    60  VAL60       0.0252
     60  CG1      -34.9760  174.3920  -30.8420 C.3    60  VAL60       0.0019
     61  CG2      -36.0260  172.1270  -30.7350 C.3    60  VAL60       0.0019
     62  N        -38.4530  175.4470  -36.3480 N.3    63  GLU63      -0.1245
     63  CA       -38.9640  176.6950  -35.7870 C.3    63  GLU63       0.1567
     64  C        -37.9930  177.8490  -36.0150 C.2    63  GLU63       0.2260
     65  O        -38.4170  178.9820  -36.2690 O.2    63  GLU63      -0.2867
     66  CB       -39.2580  176.5140  -34.2990 C.3    63  GLU63       0.0388
     67  CG       -40.5550  175.7670  -34.0280 C.3    63  GLU63       0.1160
     68  CD       -40.4060  174.6840  -32.9750 C.2    63  GLU63       0.3649
     69  OE1      -39.3880  174.6920  -32.2510 O.co2  63  GLU63      -0.2457
     70  OE2      -41.3030  173.8190  -32.8790 O.co2  63  GLU63      -0.2457
     71  N        -37.4400  182.0710  -33.6550 N.3    69  HIS69      -0.1241
     72  CA       -36.3040  182.4270  -32.8080 C.3    69  HIS69       0.1621
     73  C        -36.0120  183.9240  -32.9340 C.2    69  HIS69       0.2264
     74  O        -35.0660  184.3640  -33.5890 O.2    69  HIS69      -0.2867
     75  CB       -35.1000  181.5780  -33.1860 C.3    69  HIS69       0.0745
     76  CG       -35.1670  180.1770  -32.6640 C.ar   69  HIS69       0.0817
     77  ND1      -34.0650  179.3520  -32.6030 N.ar   69  HIS69      -0.2268
     78  CD2      -36.2050  179.4530  -32.1790 C.ar   69  HIS69       0.1154
     79  CE1      -34.4200  178.1810  -32.1050 C.ar   69  HIS69       0.1986
     80  NE2      -35.7140  178.2160  -31.8390 N.ar   69  HIS69      -0.2212
     81  N        -36.2550  185.0580  -27.6770 N.3    73  VAL73      -0.1245
     82  CA       -36.2550  183.5920  -27.6860 C.3    73  VAL73       0.1561
     83  C        -34.8320  183.0570  -27.7900 C.2    73  VAL73       0.2260
     84  O        -34.4030  182.2190  -26.9880 O.2    73  VAL73      -0.2867
     85  CB       -37.1460  183.0550  -28.8240 C.3    73  VAL73       0.0252
     86  CG1      -37.2440  181.5420  -28.7540 C.3    73  VAL73       0.0019
     87  CG2      -38.5380  183.6540  -28.7310 C.3    73  VAL73       0.0019
     88  N        -32.8620  180.8530  -25.0440 N.3    77  LEU77      -0.1245
     89  CA       -32.2350  179.5690  -25.3320 C.3    77  LEU77       0.1561
     90  C        -30.7690  179.5540  -24.9170 C.2    77  LEU77       0.2260
     91  O        -30.2130  178.4850  -24.6470 O.2    77  LEU77      -0.2867
     92  CB       -32.3800  179.2390  -26.8170 C.3    77  LEU77       0.0270
     93  CG       -33.8200  179.1120  -27.3220 C.3    77  LEU77       0.0019
     94  CD1      -33.9510  179.5640  -28.7750 C.3    77  LEU77       0.0001
     95  CD2      -34.3480  177.6920  -27.1510 C.3    77  LEU77       0.0001
     96  N        -30.8660  178.8660  -20.9920 N.3    80  GLY80      -0.1210
     97  CA       -31.2440  177.4740  -20.8680 C.3    80  GLY80       0.1956
     98  C        -30.0710  176.5290  -20.9890 C.2    80  GLY80       0.2611
     99  O        -29.9250  175.5950  -20.1960 O.2    80  GLY80      -0.2717
    100  N        -29.2200  176.7720  -21.9870 N.am   81  PHE81      -0.1976
    101  CA       -28.0560  175.9170  -22.1690 C.3    81  PHE81       0.1639
    102  C        -26.9720  176.1980  -21.1370 C.2    81  PHE81       0.2290
    103  O        -26.2620  175.2710  -20.7290 O.2    81  PHE81      -0.2864
    104  CB       -27.4950  176.0720  -23.5780 C.3    81  PHE81       0.0560
    105  CG       -26.6160  174.9350  -23.9910 C.ar   81  PHE81      -0.0200
    106  CD1      -27.1730  173.7350  -24.4030 C.ar   81  PHE81      -0.0042
    107  CD2      -25.2380  175.0510  -23.9380 C.ar   81  PHE81      -0.0042
    108  CE1      -26.3700  172.6780  -24.7750 C.ar   81  PHE81      -0.0003
    109  CE2      -24.4300  173.9970  -24.3100 C.ar   81  PHE81      -0.0003
    110  CZ       -24.9980  172.8100  -24.7290 C.ar   81  PHE81      -0.0000
    111  N        -27.9860  174.5730  -17.9680 N.3    84  PHE84      -0.1241
    112  CA       -27.6860  173.1590  -18.1730 C.3    84  PHE84       0.1605
    113  C        -26.2090  172.8670  -17.9300 C.2    84  PHE84       0.2264
    114  O        -25.8640  171.9640  -17.1590 O.2    84  PHE84      -0.2867
    115  CB       -28.1130  172.7530  -19.5870 C.3    84  PHE84       0.0534
    116  CG       -27.8520  171.3090  -19.9240 C.ar   84  PHE84      -0.0203
    117  CD1      -26.6160  170.8990  -20.4040 C.ar   84  PHE84      -0.0042
    118  CD2      -28.8510  170.3610  -19.7640 C.ar   84  PHE84      -0.0042
    119  CE1      -26.3850  169.5730  -20.7190 C.ar   84  PHE84      -0.0003
    120  CE2      -28.6250  169.0340  -20.0740 C.ar   84  PHE84      -0.0003
    121  CZ       -27.3910  168.6390  -20.5510 C.ar   84  PHE84      -0.0000
@<TRIPOS>BOND
     1    62    63    1
     2    65    64    2
     3    64    63    1
     4    63    66    1
     5    66    67    1
     6    67    68    1
     7    57    58    2
     8    57    56    1
     9    44    43    2
    10    71    72    1
    11    74    73    2
    12    43    42    1
    13    55    56    1
    14    75    72    1
    15    75    76    1
    16    68    70   ar
    17    68    69   ar
    18    73    72    1
    19    56    59    1
    20    76    77   ar
    21    76    78   ar
    22    77    79   ar
    23    78    80   ar
    24    79    80   ar
    25    42    45    1
    26    42    41    1
    27    30    29    2
    28    45    46    1
    29    27    28    1
    30    59    60    1
    31    59    61    1
    32    41    29   am
    33    29    28    1
    34    10     9   ar
    35    10     8   ar
    36    28    31    1
    37     9     7   ar
    38     8     6   ar
    39    22    21    2
    40    21    20    1
    41    46    48   ar
    42    46    47   ar
    43    18    16    1
    44     7     6   ar
    45     6     5    1
    46    51    48   ar
    47    51    53   ar
    48    48    50   ar
    49    31    32    1
    50    47    49   ar
    51    13    12    1
    52    13    14    2
    53    20    19    1
    54    20    23    1
    55    12    15    1
    56    12    11    1
    57     5     2    1
    58    53    54   ar
    59    85    86    1
    60    85    87    1
    61    85    82    1
    62    94    93    1
    63    16    15    1
    64    16    17    1
    65     2     3    1
    66     2     1    1
    67    23    24    1
    68    33    32   ar
    69    33    35   ar
    70    32    34   ar
    71    50    49   ar
    72    50    52   ar
    73     3     4    2
    74    83    82    1
    75    83    84    2
    76    82    81    1
    77    54    52   ar
    78    35    36   ar
    79    93    95    1
    80    93    92    1
    81    24    25    1
    82    34    36   ar
    83    34    37   ar
    84    92    89    1
    85    25    26    1
    86    36    38   ar
    87    37    39   ar
    88    89    88    1
    89    89    90    1
    90    38    40   ar
    91    39    40   ar
    92    90    91    2
    93   108   110   ar
    94   108   106   ar
    95   110   109   ar
    96   106   105   ar
    97   109   107   ar
    98   105   107   ar
    99   105   104    1
   100   104   101    1
   101   101   100    1
   102   101   102    1
   103   100    98   am
   104   102   103    2
   105    96    97    1
   106    98    97    1
   107    98    99    2
   108   119   121   ar
   109   119   117   ar
   110   121   120   ar
   111   117   116   ar
   112   120   118   ar
   113   116   118   ar
   114   116   115    1
   115   115   112    1
   116   112   111    1
   117   112   113    1
   118   113   114    2
