@<TRIPOS>MOLECULE
tmp/5wehB02.pdb
 87 82 0 0 0
SMALL
GASTEIGER

@<TRIPOS>ATOM
      1  N         -2.1980  129.4780    7.0200 N.3   121  ALA121     -0.1231
      2  CA        -3.6220  129.5850    6.7090 C.3   121  ALA121      0.1694
      3  C         -4.4950  128.9970    7.8140 C.2   121  ALA121      0.2592
      4  O         -5.4780  129.6170    8.2370 O.2   121  ALA121     -0.2718
      5  CB        -3.9160  128.9000    5.3740 C.3   121  ALA121      0.0304
      6  N         -4.1520  127.8080    8.2980 N.am  122  PHE122     -0.1963
      7  CA        -4.9730  127.0850    9.2690 C.3   122  PHE122      0.1756
      8  C         -4.0930  126.6620   10.4370 C.2   122  PHE122      0.2461
      9  O         -3.7550  125.4820   10.5860 O.2   122  PHE122     -0.2730
     10  CB        -5.6580  125.8880    8.6090 C.3   122  PHE122      0.0574
     11  CG        -6.1950  126.1870    7.2350 C.ar  122  PHE122     -0.0200
     12  CD1       -7.3500  126.9370    7.0740 C.ar  122  PHE122     -0.0042
     13  CD2       -5.5300  125.7390    6.1050 C.ar  122  PHE122     -0.0042
     14  CE1       -7.8390  127.2210    5.8110 C.ar  122  PHE122     -0.0003
     15  CE2       -6.0130  126.0210    4.8390 C.ar  122  PHE122     -0.0003
     16  CZ        -7.1690  126.7630    4.6920 C.ar  122  PHE122     -0.0000
     17  N         -3.7080  127.6120   11.2960 N.am  123  PRO123     -0.2716
     18  CA        -2.6550  127.3310   12.2830 C.3   123  PRO123      0.1536
     19  C         -3.1090  126.4400   13.4280 C.2   123  PRO123      0.2598
     20  O         -2.2530  125.9460   14.1730 O.2   123  PRO123     -0.2715
     21  CB        -2.2560  128.7270   12.7770 C.3   123  PRO123      0.0310
     22  CG        -3.4550  129.5980   12.5210 C.3   123  PRO123      0.0237
     23  CD        -4.3810  128.8970   11.5530 C.3   123  PRO123      0.0939
     24  N         -4.4170  126.2150   13.5880 N.am  124  ARG124     -0.1964
     25  CA        -4.8880  125.2310   14.5570 C.3   124  ARG124      0.1729
     26  C         -4.7530  123.8250   13.9900 C.2   124  ARG124      0.2616
     27  O         -4.2930  122.9110   14.6830 O.2   124  ARG124     -0.2715
     28  CB        -6.3540  125.4840   14.9160 C.3   124  ARG124      0.0348
     29  CG        -6.8290  124.7980   16.1930 C.3   124  ARG124      0.0492
     30  CD        -8.3130  125.0430   16.4100 C.3   124  ARG124      0.2205
     31  NE        -8.7290  126.3470   15.9160 N.pl3 124  ARG124     -0.0865
     32  CZ        -9.9810  126.6660   15.6060 C.cat 124  ARG124      0.5346
     33  NH1      -10.9480  125.7700   15.7400 N.pl3 124  ARG124      0.1354
     34  NH2      -10.2680  127.8780   15.1500 N.pl3 124  ARG124      0.1354
     35  N         -5.1460  123.6520   12.7250 N.am  125  MET125     -0.1977
     36  CA        -4.9210  122.3960   12.0200 C.3   125  MET125      0.1605
     37  C         -3.4390  122.0830   11.8910 C.2   125  MET125      0.2287
     38  O         -3.0550  120.9100   11.8300 O.2   125  MET125     -0.2864
     39  CB        -5.5610  122.4590   10.6350 C.3   125  MET125      0.0413
     40  CG        -5.5700  121.1420    9.8970 C.3   125  MET125      0.0598
     41  SD        -5.3260  121.4160    8.1340 S.3   125  MET125     -0.1393
     42  CE        -6.9150  122.0740    7.6680 C.3   125  MET125      0.0692
     43  N         -2.5020  120.0400   14.6790 N.3   128  LEU128     -0.1245
     44  CA        -3.0420  118.6920   14.5100 C.3   128  LEU128      0.1561
     45  C         -2.1210  117.8220   13.6640 C.2   128  LEU128      0.2260
     46  O         -1.9880  116.6180   13.9170 O.2   128  LEU128     -0.2867
     47  CB        -4.4330  118.7520   13.8800 C.3   128  LEU128      0.0270
     48  CG        -5.1380  117.4120   13.6540 C.3   128  LEU128      0.0019
     49  CD1       -5.3640  116.6980   14.9760 C.3   128  LEU128      0.0001
     50  CD2       -6.4490  117.5910   12.9050 C.3   128  LEU128      0.0001
     51  N         -0.8810  114.4060   15.2640 N.3   132  LEU132     -0.1245
     52  CA        -1.1580  113.1800   14.5210 C.3   132  LEU132      0.1561
     53  C          0.1340  112.4750   14.1340 C.2   132  LEU132      0.2260
     54  O          0.1830  111.2410   14.1030 O.2   132  LEU132     -0.2867
     55  CB        -1.9920  113.4760   13.2740 C.3   132  LEU132      0.0270
     56  CG        -3.5010  113.6360   13.4550 C.3   132  LEU132      0.0019
     57  CD1       -4.1080  114.2490   12.2070 C.3   132  LEU132      0.0001
     58  CD2       -4.1680  112.3110   13.7890 C.3   132  LEU132      0.0001
     59  N         -1.7800  107.5390    9.8620 N.3   183  LEU183     -0.1245
     60  CA        -1.7000  108.8180   10.5590 C.3   183  LEU183      0.1561
     61  C         -0.5600  109.6780   10.0210 C.2   183  LEU183      0.2260
     62  O         -0.6810  110.9070    9.9590 O.2   183  LEU183     -0.2867
     63  CB        -1.5440  108.5890   12.0600 C.3   183  LEU183      0.0270
     64  CG        -2.7550  107.9710   12.7600 C.3   183  LEU183      0.0019
     65  CD1       -2.6860  108.2270   14.2500 C.3   183  LEU183      0.0001
     66  CD2       -4.0570  108.5060   12.1830 C.3   183  LEU183      0.0001
     67  N         -2.0780  111.2590    7.2400 N.3   186  ALA186     -0.1245
     68  CA        -3.0380  112.2510    7.7150 C.3   186  ALA186      0.1562
     69  C         -2.3310  113.5090    8.2030 C.2   186  ALA186      0.2260
     70  O         -2.7700  114.6280    7.9150 O.2   186  ALA186     -0.2867
     71  CB        -3.9120  111.6590    8.8150 C.3   186  ALA186      0.0290
     72  N         -2.7060  117.1420    5.8250 N.3   190  LEU190     -0.1245
     73  CA        -3.1210  118.3840    6.4720 C.3   190  LEU190      0.1561
     74  C         -2.0170  119.4300    6.4050 C.2   190  LEU190      0.2260
     75  O         -2.2690  120.5900    6.0600 O.2   190  LEU190     -0.2867
     76  CB        -3.5180  118.1210    7.9240 C.3   190  LEU190      0.0270
     77  CG        -4.7430  117.2570    8.2070 C.3   190  LEU190      0.0019
     78  CD1       -4.8420  116.9980    9.7000 C.3   190  LEU190      0.0001
     79  CD2       -5.9980  117.9300    7.6830 C.3   190  LEU190      0.0001
     80  N         -2.0900  120.7160    2.7510 N.3   193  ILE193     -0.1245
     81  CA        -3.2150  121.6250    2.5190 C.3   193  ILE193      0.1561
     82  C         -2.8900  123.0080    3.0640 C.2   193  ILE193      0.2260
     83  O         -3.0280  124.0260    2.3750 O.2   193  ILE193     -0.2867
     84  CB        -4.4960  121.0700    3.1740 C.3   193  ILE193      0.0252
     85  CG1       -5.0710  119.8970    2.3770 C.3   193  ILE193      0.0019
     86  CG2       -5.5400  122.1710    3.3300 C.3   193  ILE193      0.0019
     87  CD1       -6.1750  119.1500    3.1130 C.3   193  ILE193      0.0001
@<TRIPOS>BOND
     1    83    82    2
     2    85    87    1
     3    85    84    1
     4    81    80    1
     5    81    82    1
     6    81    84    1
     7    84    86    1
     8    16    15   ar
     9    16    14   ar
    10    15    13   ar
    11     5     2    1
    12    14    12   ar
    13    72    73    1
    14    75    74    2
    15    13    11   ar
    16    74    73    1
    17    73    76    1
    18     2     1    1
    19     2     3    1
    20    12    11   ar
    21    11    10    1
    22    67    68    1
    23    42    41    1
    24    79    77    1
    25    68    69    1
    26    68    71    1
    27     3     4    2
    28     3     6   am
    29    70    69    2
    30    76    77    1
    31    41    40    1
    32    77    78    1
    33     6     7    1
    34    10     7    1
    35     7     8    1
    36    59    60    1
    37    40    39    1
    38    62    61    2
    39    61    60    1
    40     8     9    2
    41     8    17   am
    42    60    63    1
    43    39    36    1
    44    17    23    1
    45    17    18    1
    46    23    22    1
    47    38    37    2
    48    37    36    1
    49    36    35    1
    50    63    64    1
    51    66    64    1
    52    57    56    1
    53    18    21    1
    54    18    19    1
    55    22    21    1
    56    35    26   am
    57    64    65    1
    58    50    48    1
    59    55    56    1
    60    55    52    1
    61    19    24   am
    62    19    20    2
    63    56    58    1
    64    24    25    1
    65    48    47    1
    66    48    49    1
    67    45    46    2
    68    45    44    1
    69    47    44    1
    70    26    25    1
    71    26    27    2
    72    54    53    2
    73    53    52    1
    74    44    43    1
    75    52    51    1
    76    25    28    1
    77    28    29    1
    78    34    32    1
    79    32    33    1
    80    32    31    2
    81    31    30    1
    82    29    30    1
