@<TRIPOS>MOLECULE
tmp/5wehB05.pdb
 103 101 0 0 0
SMALL
GASTEIGER

@<TRIPOS>ATOM
      1  N         -1.4160  114.8250   -3.3880 N.3   228  LEU228     -0.1245
      2  CA        -1.9530  113.8710   -4.3510 C.3   228  LEU228      0.1561
      3  C         -1.4380  112.4490   -4.1570 C.2   228  LEU228      0.2260
      4  O         -2.1380  111.4980   -4.5160 O.2   228  LEU228     -0.2867
      5  CB        -1.6540  114.3500   -5.7760 C.3   228  LEU228      0.0270
      6  CG        -2.2180  115.7330   -6.1270 C.3   228  LEU228      0.0019
      7  CD1       -1.6020  116.2400   -7.4190 C.3   228  LEU228      0.0001
      8  CD2       -3.7450  115.7450   -6.2230 C.3   228  LEU228      0.0001
      9  N          2.9520  104.1470   -6.8880 N.3   268  PHE268     -0.1241
     10  CA         2.3770  105.4030   -7.3520 C.3   268  PHE268      0.1605
     11  C          2.5170  106.4740   -6.2820 C.2   268  PHE268      0.2264
     12  O          2.7090  107.6540   -6.5930 O.2   268  PHE268     -0.2867
     13  CB         0.9120  105.2240   -7.7350 C.3   268  PHE268      0.0534
     14  CG         0.3390  106.4030   -8.4560 C.ar  268  PHE268     -0.0203
     15  CD1        0.6150  106.6040   -9.7970 C.ar  268  PHE268     -0.0042
     16  CD2       -0.4680  107.3180   -7.7940 C.ar  268  PHE268     -0.0042
     17  CE1        0.0980  107.6910  -10.4690 C.ar  268  PHE268     -0.0003
     18  CE2       -0.9930  108.4090   -8.4610 C.ar  268  PHE268     -0.0003
     19  CZ        -0.7090  108.5950   -9.8010 C.ar  268  PHE268     -0.0000
     20  N          5.7430  117.0860  -11.5660 N.3   312  VAL312     -0.1245
     21  CA         4.7100  116.5120  -12.4280 C.3   312  VAL312      0.1561
     22  C          5.1180  115.1220  -12.8930 C.2   312  VAL312      0.2260
     23  O          4.3630  114.1510  -12.7520 O.2   312  VAL312     -0.2867
     24  CB         4.4260  117.4460  -13.6190 C.3   312  VAL312      0.0252
     25  CG1        3.5260  116.7580  -14.6310 C.3   312  VAL312      0.0019
     26  CG2        3.7990  118.7350  -13.1380 C.3   312  VAL312      0.0019
     27  N          4.9580  111.3770  -10.8550 N.3   315  PHE315     -0.1227
     28  CA         3.8780  110.4080  -10.7190 C.3   315  PHE315      0.1736
     29  C          3.9410  109.3220  -11.7870 C.2   315  PHE315      0.2595
     30  O          3.5750  108.1740  -11.5160 O.2   315  PHE315     -0.2718
     31  CB         2.5240  111.1170  -10.7720 C.3   315  PHE315      0.0547
     32  CG         2.2290  111.9520   -9.5590 C.ar  315  PHE315     -0.0202
     33  CD1        1.7120  111.3700   -8.4110 C.ar  315  PHE315     -0.0042
     34  CD2        2.4620  113.3150   -9.5660 C.ar  315  PHE315     -0.0042
     35  CE1        1.4380  112.1340   -7.2940 C.ar  315  PHE315     -0.0003
     36  CE2        2.1900  114.0860   -8.4520 C.ar  315  PHE315     -0.0003
     37  CZ         1.6760  113.4920   -7.3130 C.ar  315  PHE315     -0.0000
     38  N          4.3950  109.6660  -12.9920 N.am  316  VAL316     -0.1980
     39  CA         4.3030  108.7900  -14.1580 C.3   316  VAL316      0.1595
     40  C          5.6210  108.0950  -14.4920 C.2   316  VAL316      0.2287
     41  O          5.9600  107.9310  -15.6700 O.2   316  VAL316     -0.2864
     42  CB         3.7770  109.5800  -15.3720 C.3   316  VAL316      0.0276
     43  CG1        2.3910  110.0980  -15.0830 C.3   316  VAL316      0.0022
     44  CG2        4.7020  110.7480  -15.6970 C.3   316  VAL316      0.0022
     45  N          6.4800  105.5140  -11.9740 N.3   318  TRP318     -0.1241
     46  CA         6.4750  104.7270  -10.7410 C.3   318  TRP318      0.1605
     47  C          6.9300  103.2790  -10.9240 C.2   318  TRP318      0.2264
     48  O          7.5080  102.6990   -9.9970 O.2   318  TRP318     -0.2867
     49  CB         5.0820  104.7800  -10.1100 C.3   318  TRP318      0.0550
     50  CG         4.1000  103.7920  -10.6600 C.ar  318  TRP318      0.0003
     51  CD1        4.0000  102.4630  -10.3660 C.ar  318  TRP318      0.0946
     52  CD2        3.0530  104.0730  -11.5980 C.ar  318  TRP318      0.0152
     53  NE1        2.9670  101.8970  -11.0730 N.ar  318  TRP318     -0.2442
     54  CE2        2.3680  102.8650  -11.8340 C.ar  318  TRP318      0.0810
     55  CE3        2.6320  105.2300  -12.2640 C.ar  318  TRP318      0.0012
     56  CZ2        1.2850  102.7810  -12.7080 C.ar  318  TRP318      0.0191
     57  CZ3        1.5580  105.1450  -13.1290 C.ar  318  TRP318      0.0001
     58  CH2        0.8960  103.9290  -13.3450 C.ar  318  TRP318      0.0015
     59  N          4.4720   93.8460  -19.0760 N.3   328  SER328     -0.1217
     60  CA         4.5630   93.6940  -20.5180 C.3   328  SER328      0.1889
     61  C          5.8210   94.3910  -21.0180 C.2   328  SER328      0.2288
     62  O          6.2580   95.3960  -20.4550 O.2   328  SER328     -0.2866
     63  CB         3.3260   94.2740  -21.1960 C.3   328  SER328      0.2089
     64  OG         3.4470   94.1980  -22.6000 O.3   328  SER328     -0.2183
     65  N          6.2290   96.1720  -23.5500 N.3   330  THR330     -0.1203
     66  CA         5.8280   97.5470  -23.8230 C.3   330  THR330      0.1994
     67  C          5.9580   98.4530  -22.5970 C.2   330  THR330      0.2617
     68  O          6.5290   99.5470  -22.6820 O.2   330  THR330     -0.2717
     69  CB         4.3900   97.5500  -24.3460 C.3   330  THR330      0.1784
     70  OG1        3.5120   97.0280  -23.3350 O.3   330  THR330     -0.2211
     71  CG2        4.2880   96.6840  -25.5970 C.3   330  THR330      0.0376
     72  N          5.4150   98.0230  -21.4530 N.am  331  GLN331     -0.1979
     73  CA         5.4550   98.8470  -20.2430 C.3   331  GLN331      0.1601
     74  C          6.8830   99.0980  -19.7680 C.2   331  GLN331      0.2287
     75  O          7.3070  100.2550  -19.6420 O.2   331  GLN331     -0.2864
     76  CB         4.6170   98.2280  -19.1230 C.3   331  GLN331      0.0394
     77  CG         3.4470   97.3610  -19.5490 C.3   331  GLN331      0.0908
     78  CD         2.9470   96.5210  -18.3930 C.2   331  GLN331      0.2608
     79  OE1        3.3810   96.7190  -17.2640 O.2   331  GLN331     -0.2717
     80  NE2        2.0000   95.6260  -18.6510 N.am  331  GLN331     -0.0878
     81  N          8.2230  101.7790  -21.5170 N.3   334  TYR334     -0.1227
     82  CA         7.7070  103.1050  -21.1720 C.3   334  TYR334      0.1736
     83  C          8.3380  103.6380  -19.8920 C.2   334  TYR334      0.2595
     84  O          8.8920  104.7430  -19.8700 O.2   334  TYR334     -0.2718
     85  CB         6.1840  103.0890  -21.0140 C.3   334  TYR334      0.0548
     86  CG         5.7100  104.2950  -20.2230 C.ar  334  TYR334     -0.0200
     87  CD1        5.7160  105.5630  -20.7930 C.ar  334  TYR334     -0.0009
     88  CD2        5.2960  104.1740  -18.8970 C.ar  334  TYR334     -0.0009
     89  CE1        5.3090  106.6760  -20.0770 C.ar  334  TYR334      0.0417
     90  CE2        4.8860  105.2860  -18.1710 C.ar  334  TYR334      0.0417
     91  CZ         4.8940  106.5320  -18.7670 C.ar  334  TYR334      0.1957
     92  OH         4.4860  107.6370  -18.0520 O.3   334  TYR334     -0.2866
     93  N          8.2560  102.8630  -18.8100 N.am  335  PHE335     -0.1976
     94  CA         8.8010  103.3240  -17.5380 C.3   335  PHE335      0.1639
     95  C         10.3170  103.4760  -17.5950 C.2   335  PHE335      0.2290
     96  O         10.8830  104.2600  -16.8290 O.2   335  PHE335     -0.2864
     97  CB         8.3660  102.3870  -16.4150 C.3   335  PHE335      0.0560
     98  CG         6.9140  102.5170  -16.0640 C.ar  335  PHE335     -0.0200
     99  CD1        6.4810  103.5450  -15.2360 C.ar  335  PHE335     -0.0042
    100  CD2        5.9750  101.6470  -16.5880 C.ar  335  PHE335     -0.0042
    101  CE1        5.1400  103.6820  -14.9190 C.ar  335  PHE335     -0.0003
    102  CE2        4.6310  101.7780  -16.2750 C.ar  335  PHE335     -0.0003
    103  CZ         4.2130  102.7980  -15.4390 C.ar  335  PHE335     -0.0000
@<TRIPOS>BOND
     1    71    69    1
     2    69    66    1
     3    69    70    1
     4    66    65    1
     5    66    67    1
     6    68    67    2
     7    64    63    1
     8    67    72   am
     9    81    82    1
    10    72    73    1
    11    63    60    1
    12    82    85    1
    13    82    83    1
    14    61    60    1
    15    61    62    2
    16    85    86    1
    17    87    86   ar
    18    87    89   ar
    19    60    59    1
    20    73    74    1
    21    73    76    1
    22    86    88   ar
    23    89    91   ar
    24    83    84    2
    25    83    93   am
    26    74    75    2
    27    77    76    1
    28    77    78    1
    29    88    90   ar
    30    93    94    1
    31    91    90   ar
    32    91    92    1
    33    80    78   am
    34    78    79    2
    35    95    94    1
    36    95    96    2
    37    94    97    1
    38   100   102   ar
    39   100    98   ar
    40    97    98    1
    41   102   103   ar
    42    98    99   ar
    43    44    42    1
    44    41    40    2
    45   103   101   ar
    46    42    43    1
    47    42    39    1
    48    99   101   ar
    49    25    24    1
    50    40    39    1
    51    39    38    1
    52    24    26    1
    53    24    21    1
    54    58    57   ar
    55    58    56   ar
    56    57    55   ar
    57    38    29   am
    58    22    23    2
    59    22    21    1
    60    56    54   ar
    61    21    20    1
    62    55    52   ar
    63    45    46    1
    64    54    52   ar
    65    54    53   ar
    66    29    30    2
    67    29    28    1
    68    52    50   ar
    69    53    51   ar
    70    47    46    1
    71    47    48    2
    72    27    28    1
    73    31    28    1
    74    31    32    1
    75    46    49    1
    76    50    51   ar
    77    50    49    1
    78    17    19   ar
    79    17    15   ar
    80    19    18   ar
    81    15    14   ar
    82    34    32   ar
    83    34    36   ar
    84    32    33   ar
    85    18    16   ar
    86    14    16   ar
    87    14    13    1
    88    36    37   ar
    89    33    35   ar
    90    13    10    1
    91     7     6    1
    92    10     9    1
    93    10    11    1
    94    37    35   ar
    95    12    11    2
    96     8     6    1
    97     6     5    1
    98     5     2    1
    99     4     3    2
   100     2     3    1
   101     2     1    1
