@<TRIPOS>MOLECULE
tmp/5wehG00.pdb
 160 153 0 0 0
SMALL
GASTEIGER

@<TRIPOS>ATOM
      1  N         -6.1320  135.5780   10.0080 N.3     8  HIS8       -0.1241
      2  CA        -6.6180  135.0690   11.2870 C.3     8  HIS8        0.1621
      3  C         -5.4750  134.5060   12.1240 C.2     8  HIS8        0.2264
      4  O         -4.8310  133.5250   11.7360 O.2     8  HIS8       -0.2867
      5  CB        -7.6830  134.0000   11.0570 C.3     8  HIS8        0.0745
      6  CG        -8.4040  133.5880   12.3020 C.ar    8  HIS8        0.0817
      7  ND1       -9.1540  132.4350   12.3800 N.ar    8  HIS8       -0.2268
      8  CD2       -8.4860  134.1720   13.5220 C.ar    8  HIS8        0.1154
      9  CE1       -9.6680  132.3250   13.5920 C.ar    8  HIS8        0.1986
     10  NE2       -9.2770  133.3660   14.3040 N.ar    8  HIS8       -0.2212
     11  N         -4.5980  132.8060   15.8180 N.3    10  LEU10      -0.1245
     12  CA        -5.3590  132.0660   16.8100 C.3    10  LEU10       0.1561
     13  C         -4.6720  132.0190   18.1710 C.2    10  LEU10       0.2260
     14  O         -3.4400  131.9810   18.2510 O.2    10  LEU10      -0.2867
     15  CB        -5.6130  130.6340   16.3540 C.3    10  LEU10       0.0270
     16  CG        -6.8770  130.4500   15.5270 C.3    10  LEU10       0.0019
     17  CD1       -6.5800  130.5470   14.0380 C.3    10  LEU10       0.0001
     18  CD2       -7.4660  129.1350   15.9030 C.3    10  LEU10       0.0001
     19  N         -7.3740  115.5520   20.2460 N.3    19  ALA19      -0.1231
     20  CA        -7.8720  114.6860   19.1800 C.3    19  ALA19       0.1694
     21  C         -6.8890  113.5730   18.8490 C.2    19  ALA19       0.2592
     22  O         -7.3080  112.4570   18.5240 O.2    19  ALA19      -0.2718
     23  CB        -8.1690  115.5020   17.9240 C.3    19  ALA19       0.0304
     24  N         -5.5850  113.8500   18.9340 N.am   20  SER20      -0.1952
     25  CA        -4.5880  112.8630   18.5390 C.3    20  SER20       0.1924
     26  C         -4.3010  111.8550   19.6420 C.2    20  SER20       0.2314
     27  O         -3.8710  110.7360   19.3410 O.2    20  SER20      -0.2863
     28  CB        -3.2950  113.5640   18.1150 C.3    20  SER20       0.2116
     29  OG        -3.5580  114.5940   17.1770 O.3    20  SER20      -0.2180
     30  N         -7.3420  109.7880   18.8900 N.3    23  ALA23      -0.1245
     31  CA        -7.2300  109.0930   17.6110 C.3    23  ALA23       0.1562
     32  C         -6.2560  107.9260   17.7000 C.2    23  ALA23       0.2260
     33  O         -6.4810  106.8730   17.0920 O.2    23  ALA23      -0.2867
     34  CB        -6.8010  110.0680   16.5160 C.3    23  ALA23       0.0290
     35  N         -8.3020  105.3270   19.5960 N.3    26  MET26      -0.1230
     36  CA        -9.2800  104.7700   18.6630 C.3    26  MET26       0.1702
     37  C         -8.6530  103.7100   17.7640 C.2    26  MET26       0.2592
     38  O         -9.1760  102.5980   17.6350 O.2    26  MET26      -0.2718
     39  CB        -9.9080  105.8750   17.8130 C.3    26  MET26       0.0401
     40  CG       -11.0390  105.3550   16.9400 C.3    26  MET26       0.0596
     41  SD       -11.7430  106.5630   15.8090 S.3    26  MET26      -0.1393
     42  CE       -12.6560  105.4770   14.7150 C.3    26  MET26       0.0692
     43  N         -7.5260  104.0410   17.1320 N.am   27  LEU27      -0.1980
     44  CA        -6.9420  103.1350   16.1490 C.3    27  LEU27       0.1596
     45  C         -6.2290  101.9590   16.8040 C.2    27  LEU27       0.2287
     46  O         -6.1950  100.8640   16.2290 O.2    27  LEU27      -0.2864
     47  CB        -5.9820  103.9030   15.2390 C.3    27  LEU27       0.0297
     48  CG        -6.6400  104.8630   14.2450 C.3    27  LEU27       0.0022
     49  CD1       -5.6190  105.3820   13.2500 C.3    27  LEU27       0.0001
     50  CD2       -7.8030  104.1920   13.5240 C.3    27  LEU27       0.0001
     51  N        -12.5990  111.5220   19.9460 N.3    49  VAL49      -0.1245
     52  CA       -12.3850  112.1960   18.6630 C.3    49  VAL49       0.1561
     53  C        -13.6420  112.9540   18.2450 C.2    49  VAL49       0.2260
     54  O        -13.5960  114.1600   17.9740 O.2    49  VAL49      -0.2867
     55  CB       -11.9460  111.1930   17.5790 C.3    49  VAL49       0.0252
     56  CG1      -11.9130  111.8690   16.2160 C.3    49  VAL49       0.0019
     57  CG2      -10.5790  110.6210   17.9090 C.3    49  VAL49       0.0019
     58  N        -13.6400  116.8580   17.4120 N.3    53  MET53      -0.1245
     59  CA       -14.1610  117.4150   16.1630 C.3    53  MET53       0.1570
     60  C        -15.2930  118.4050   16.4240 C.2    53  MET53       0.2261
     61  O        -15.3300  119.5000   15.8510 O.2    53  MET53      -0.2867
     62  CB       -14.6430  116.2890   15.2430 C.3    53  MET53       0.0387
     63  CG       -13.5370  115.3820   14.7210 C.3    53  MET53       0.0595
     64  SD       -14.1000  114.1630   13.5080 S.3    53  MET53      -0.1393
     65  CE       -15.8730  114.4090   13.5420 C.3    53  MET53       0.0692
     66  N        -13.7550  121.6690   18.1520 N.3    56  TRP56      -0.1227
     67  CA       -13.0560  122.3180   17.0480 C.3    56  TRP56       0.1737
     68  C        -14.0020  123.1270   16.1710 C.2    56  TRP56       0.2595
     69  O        -13.9190  124.3590   16.1250 O.2    56  TRP56      -0.2718
     70  CB       -12.3480  121.2580   16.2010 C.3    56  TRP56       0.0564
     71  CG       -11.2760  121.7750   15.2890 C.ar   56  TRP56       0.0003
     72  CD1      -11.3530  122.8450   14.4440 C.ar   56  TRP56       0.0946
     73  CD2       -9.9700  121.2170   15.1110 C.ar   56  TRP56       0.0152
     74  NE1      -10.1680  122.9960   13.7640 N.ar   56  TRP56      -0.2442
     75  CE2       -9.3040  122.0080   14.1540 C.ar   56  TRP56       0.0810
     76  CE3       -9.2980  120.1280   15.6740 C.ar   56  TRP56       0.0012
     77  CZ2       -7.9990  121.7450   13.7480 C.ar   56  TRP56       0.0191
     78  CZ3       -8.0020  119.8690   15.2700 C.ar   56  TRP56       0.0001
     79  CH2       -7.3660  120.6750   14.3170 C.ar   56  TRP56       0.0015
     80  N        -14.9060  122.4360   15.4700 N.am   57  TRP57      -0.1976
     81  CA       -15.7770  123.0920   14.5010 C.3    57  TRP57       0.1640
     82  C        -16.7490  124.0700   15.1460 C.2    57  TRP57       0.2290
     83  O        -17.2380  124.9730   14.4590 O.2    57  TRP57      -0.2864
     84  CB       -16.5430  122.0450   13.6950 C.3    57  TRP57       0.0576
     85  CG       -15.7020  121.3770   12.6530 C.ar   57  TRP57       0.0006
     86  CD1      -14.7590  121.9640   11.8590 C.ar   57  TRP57       0.0946
     87  CD2      -15.7170  119.9900   12.3020 C.ar   57  TRP57       0.0152
     88  NE1      -14.1910  121.0270   11.0290 N.ar   57  TRP57      -0.2442
     89  CE2      -14.7620  119.8070   11.2820 C.ar   57  TRP57       0.0810
     90  CE3      -16.4460  118.8850   12.7500 C.ar   57  TRP57       0.0012
     91  CZ2      -14.5190  118.5640   10.7020 C.ar   57  TRP57       0.0191
     92  CZ3      -16.2030  117.6530   12.1750 C.ar   57  TRP57       0.0001
     93  CH2      -15.2490  117.5020   11.1600 C.ar   57  TRP57       0.0015
     94  N        -14.9090  127.3050   14.9290 N.3    60  VAL60      -0.1245
     95  CA       -14.8500  127.8660   13.5820 C.3    60  VAL60       0.1561
     96  C        -16.1580  128.5420   13.1970 C.2    60  VAL60       0.2260
     97  O        -16.2080  129.2730   12.2030 O.2    60  VAL60      -0.2867
     98  CB       -14.4650  126.7770   12.5570 C.3    60  VAL60       0.0252
     99  CG1      -13.9260  127.4070   11.2770 C.3    60  VAL60       0.0019
    100  CG2      -13.4380  125.8270   13.1540 C.3    60  VAL60       0.0019
    101  N        -15.6840  131.8310   15.8160 N.3    63  GLU63      -0.1245
    102  CA       -14.7850  132.8100   15.2120 C.3    63  GLU63       0.1567
    103  C        -15.4540  133.5460   14.0560 C.2    63  GLU63       0.2260
    104  O        -15.2390  134.7490   13.8740 O.2    63  GLU63      -0.2867
    105  CB       -13.5010  132.1260   14.7440 C.3    63  GLU63       0.0388
    106  CG       -12.5270  131.8210   15.8680 C.3    63  GLU63       0.1160
    107  CD       -11.9580  130.4170   15.7910 C.2    63  GLU63       0.3649
    108  OE1      -12.0900  129.7760   14.7270 O.co2  63  GLU63      -0.2457
    109  OE2      -11.3800  129.9530   16.7950 O.co2  63  GLU63      -0.2457
    110  N        -13.4820  135.8870   10.3030 N.3    69  HIS69      -0.1241
    111  CA       -13.5550  135.4280    8.9180 C.3    69  HIS69       0.1621
    112  C        -13.6230  136.6360    7.9900 C.2    69  HIS69       0.2264
    113  O        -14.6770  137.0290    7.4830 O.2    69  HIS69      -0.2867
    114  CB       -14.7390  134.4920    8.7440 C.3    69  HIS69       0.0745
    115  CG       -14.4790  133.1140    9.2620 C.ar   69  HIS69       0.0817
    116  ND1      -15.2480  132.0270    8.9120 N.ar   69  HIS69      -0.2268
    117  CD2      -13.5210  132.6440   10.0950 C.ar   69  HIS69       0.1154
    118  CE1      -14.7830  130.9480    9.5170 C.ar   69  HIS69       0.1986
    119  NE2      -13.7340  131.2950   10.2400 N.ar   69  HIS69      -0.2212
    120  N         -9.5010  135.4890    4.9070 N.3    73  VAL73      -0.1245
    121  CA        -9.6390  134.2690    5.7060 C.3    73  VAL73       0.1561
    122  C        -10.6840  133.3520    5.0830 C.2    73  VAL73       0.2260
    123  O        -10.4390  132.1620    4.8490 O.2    73  VAL73      -0.2867
    124  CB        -9.9860  134.6120    7.1680 C.3    73  VAL73       0.0252
    125  CG1       -9.9880  133.3550    8.0330 C.3    73  VAL73       0.0019
    126  CG2       -9.0150  135.6490    7.7210 C.3    73  VAL73       0.0019
    127  N        -10.1110  129.6720    3.5410 N.3    77  LEU77      -0.1245
    128  CA       -10.8960  128.5050    3.9250 C.3    77  LEU77       0.1561
    129  C        -11.5400  127.8420    2.7170 C.2    77  LEU77       0.2260
    130  O        -11.8350  126.6430    2.7520 O.2    77  LEU77      -0.2867
    131  CB       -11.9590  128.8990    4.9480 C.3    77  LEU77       0.0270
    132  CG       -11.4450  129.4690    6.2700 C.3    77  LEU77       0.0019
    133  CD1      -12.4020  130.5110    6.8330 C.3    77  LEU77       0.0001
    134  CD2      -11.2130  128.3630    7.2870 C.3    77  LEU77       0.0001
    135  N         -8.6130  125.6030    1.2080 N.3    80  GLY80      -0.1210
    136  CA        -8.4330  124.5170    2.1490 C.3    80  GLY80       0.1956
    137  C         -9.3880  123.3680    1.9210 C.2    80  GLY80       0.2611
    138  O         -8.9910  122.1980    1.9270 O.2    80  GLY80      -0.2717
    139  N        -10.6610  123.7000    1.7100 N.am   81  PHE81      -0.1976
    140  CA       -11.6450  122.6580    1.4660 C.3    81  PHE81       0.1639
    141  C        -11.5220  122.0760    0.0630 C.2    81  PHE81       0.2290
    142  O        -11.7840  120.8830   -0.1290 O.2    81  PHE81      -0.2864
    143  CB       -13.0520  123.1940    1.6970 C.3    81  PHE81       0.0560
    144  CG       -14.0680  122.1170    1.9120 C.ar   81  PHE81      -0.0200
    145  CD1      -14.1700  121.4870    3.1410 C.ar   81  PHE81      -0.0042
    146  CD2      -14.8970  121.7120    0.8830 C.ar   81  PHE81      -0.0042
    147  CE1      -15.0970  120.4870    3.3450 C.ar   81  PHE81      -0.0003
    148  CE2      -15.8270  120.7130    1.0800 C.ar   81  PHE81      -0.0003
    149  CZ       -15.9260  120.0990    2.3130 C.ar   81  PHE81      -0.0000
    150  N         -8.6650  119.7300    0.0450 N.3    84  PHE84      -0.1241
    151  CA        -9.2040  118.5460    0.7040 C.3    84  PHE84       0.1605
    152  C        -10.0100  117.6850   -0.2640 C.2    84  PHE84       0.2264
    153  O         -9.7750  116.4760   -0.3770 O.2    84  PHE84      -0.2867
    154  CB       -10.0500  118.9820    1.9010 C.3    84  PHE84       0.0534
    155  CG       -10.7520  117.8550    2.6010 C.ar   84  PHE84      -0.0203
    156  CD1      -10.0830  117.0610    3.5190 C.ar   84  PHE84      -0.0042
    157  CD2      -12.0970  117.6190    2.3670 C.ar   84  PHE84      -0.0042
    158  CE1      -10.7400  116.0340    4.1710 C.ar   84  PHE84      -0.0003
    159  CE2      -12.7580  116.5980    3.0140 C.ar   84  PHE84      -0.0003
    160  CZ       -12.0800  115.8040    3.9180 C.ar   84  PHE84      -0.0000
@<TRIPOS>BOND
     1   153   152    2
     2   152   151    1
     3   142   141    2
     4   150   151    1
     5   141   140    1
     6   151   154    1
     7   146   148   ar
     8   146   144   ar
     9   148   149   ar
    10   135   136    1
    11   140   143    1
    12   140   139    1
    13   143   144    1
    14   139   137   am
    15   154   155    1
    16   144   145   ar
    17   137   138    2
    18   137   136    1
    19   149   147   ar
    20   157   155   ar
    21   157   159   ar
    22   155   156   ar
    23   129   130    2
    24   129   128    1
    25   159   160   ar
    26   145   147   ar
    27   156   158   ar
    28   127   128    1
    29   160   158   ar
    30   128   131    1
    31   123   122    2
    32   120   121    1
    33   131   132    1
    34   122   121    1
    35   121   124    1
    36   132   133    1
    37   132   134    1
    38   124   126    1
    39   124   125    1
    40   113   112    2
    41   112   111    1
    42   114   111    1
    43   114   115    1
    44   116   115   ar
    45   116   118   ar
    46   111   110    1
    47   115   117   ar
    48   118   119   ar
    49     1     2    1
    50   117   119   ar
    51    91    93   ar
    52    91    89   ar
    53    88    89   ar
    54    88    86   ar
    55     5     2    1
    56     5     6    1
    57    93    92   ar
    58    99    98    1
    59    89    87   ar
    60     2     3    1
    61     4     3    2
    62    86    85   ar
    63    92    90   ar
    64    97    96    2
    65     6     7   ar
    66     6     8   ar
    67    87    85   ar
    68    87    90   ar
    69     7     9   ar
    70    98   100    1
    71    98    95    1
    72    85    84    1
    73    96    95    1
    74    49    48    1
    75    64    65    1
    76    64    63    1
    77     8    10   ar
    78    50    48    1
    79    95    94    1
    80     9    10   ar
    81    84    81    1
    82    77    75   ar
    83    77    79   ar
    84    74    75   ar
    85    74    72   ar
    86   104   103    2
    87    17    16    1
    88   103   102    1
    89    75    73   ar
    90    48    47    1
    91    79    78   ar
    92    72    71   ar
    93    83    82    2
    94    81    82    1
    95    81    80    1
    96    42    41    1
    97    63    62    1
    98   108   107   ar
    99   105   102    1
   100   105   106    1
   101    73    71   ar
   102    73    76   ar
   103   102   101    1
   104    47    44    1
   105    62    59    1
   106    78    76   ar
   107    71    70    1
   108    80    68   am
   109    16    18    1
   110    16    15    1
   111   107   106    1
   112   107   109   ar
   113    41    40    1
   114    11    12    1
   115    61    60    2
   116    69    68    2
   117    44    45    1
   118    44    43    1
   119    59    60    1
   120    59    58    1
   121    68    67    1
   122    70    67    1
   123    56    55    1
   124    46    45    2
   125    15    12    1
   126    34    31    1
   127    12    13    1
   128    40    39    1
   129    67    66    1
   130    33    32    2
   131    43    37   am
   132    29    28    1
   133    55    57    1
   134    55    52    1
   135    31    32    1
   136    31    30    1
   137    38    37    2
   138    37    36    1
   139    39    36    1
   140    23    20    1
   141    54    53    2
   142    28    25    1
   143    13    14    2
   144    53    52    1
   145    22    21    2
   146    25    24    1
   147    25    26    1
   148    52    51    1
   149    36    35    1
   150    21    24   am
   151    21    20    1
   152    20    19    1
   153    27    26    2
