@<TRIPOS>MOLECULE
tmp/5wehG02.pdb
 129 128 0 0 0
SMALL
GASTEIGER

@<TRIPOS>ATOM
      1  N        -10.5750  112.8900   -3.9970 N.3    89  VAL89      -0.1245
      2  CA       -10.5650  112.3010   -5.3330 C.3    89  VAL89       0.1561
      3  C         -9.3870  111.3460   -5.4910 C.2    89  VAL89       0.2260
      4  O         -9.5140  110.2750   -6.0980 O.2    89  VAL89      -0.2867
      5  CB       -10.5420  113.4140   -6.3990 C.3    89  VAL89       0.0252
      6  CG1      -10.4030  112.8280   -7.8010 C.3    89  VAL89       0.0019
      7  CG2      -11.7880  114.2840   -6.2920 C.3    89  VAL89       0.0019
      8  N        -10.2900  108.0280   -3.7340 N.3    92  PHE92      -0.1227
      9  CA       -11.2040  107.2110   -4.5270 C.3    92  PHE92       0.1736
     10  C        -10.5390  106.6430   -5.7770 C.2    92  PHE92       0.2596
     11  O        -10.8950  105.5440   -6.2150 O.2    92  PHE92      -0.2718
     12  CB       -12.4420  108.0270   -4.8950 C.3    92  PHE92       0.0547
     13  CG       -13.5200  107.9760   -3.8570 C.ar   92  PHE92      -0.0202
     14  CD1      -14.4820  106.9770   -3.8850 C.ar   92  PHE92      -0.0042
     15  CD2      -13.5490  108.8990   -2.8290 C.ar   92  PHE92      -0.0042
     16  CE1      -15.4690  106.9230   -2.9170 C.ar   92  PHE92      -0.0003
     17  CE2      -14.5320  108.8500   -1.8560 C.ar   92  PHE92      -0.0003
     18  CZ       -15.4940  107.8580   -1.9020 C.ar   92  PHE92      -0.0000
     19  N         -9.6040  107.3850   -6.3810 N.am   93  SER93      -0.1952
     20  CA        -8.9210  106.8920   -7.5730 C.3    93  SER93       0.1924
     21  C         -8.2310  105.5550   -7.3250 C.2    93  SER93       0.2314
     22  O         -8.1450  104.7250   -8.2370 O.2    93  SER93      -0.2863
     23  CB        -7.9060  107.9200   -8.0730 C.3    93  SER93       0.2116
     24  OG        -6.7620  107.9690   -7.2380 O.3    93  SER93      -0.2180
     25  N        -11.0150  103.0290   -7.9790 N.3    96  PHE96      -0.1227
     26  CA       -11.3630  102.9070   -9.3910 C.3    96  PHE96       0.1736
     27  C        -10.2540  102.2160  -10.1700 C.2    96  PHE96       0.2595
     28  O        -10.5300  101.4960  -11.1360 O.2    96  PHE96      -0.2718
     29  CB       -11.6420  104.2860   -9.9890 C.3    96  PHE96       0.0547
     30  CG       -13.0170  104.8040   -9.7000 C.ar   96  PHE96      -0.0202
     31  CD1      -14.0950  104.4260  -10.4830 C.ar   96  PHE96      -0.0042
     32  CD2      -13.2340  105.6650   -8.6370 C.ar   96  PHE96      -0.0042
     33  CE1      -15.3610  104.9010  -10.2130 C.ar   96  PHE96      -0.0003
     34  CE2      -14.4950  106.1430   -8.3610 C.ar   96  PHE96      -0.0003
     35  CZ       -15.5610  105.7610   -9.1490 C.ar   96  PHE96      -0.0000
     36  N         -9.0010  102.4350   -9.7650 N.am   97  TRP97      -0.1976
     37  CA        -7.8810  101.6830  -10.3190 C.3    97  TRP97       0.1640
     38  C         -8.0420  100.1980  -10.0290 C.2    97  TRP97       0.2290
     39  O         -7.9440   99.3590  -10.9320 O.2    97  TRP97      -0.2864
     40  CB        -6.5720  102.1970   -9.7220 C.3    97  TRP97       0.0576
     41  CG        -5.3410  101.8420  -10.4970 C.ar   97  TRP97       0.0006
     42  CD1       -5.2640  101.0640  -11.6140 C.ar   97  TRP97       0.0946
     43  CD2       -3.9960  102.2100  -10.1700 C.ar   97  TRP97       0.0152
     44  NE1       -3.9560  100.9550  -12.0250 N.ar   97  TRP97      -0.2442
     45  CE2       -3.1580  101.6460  -11.1510 C.ar   97  TRP97       0.0810
     46  CE3       -3.4220  102.9740   -9.1500 C.ar   97  TRP97       0.0012
     47  CZ2       -1.7740  101.8200  -11.1400 C.ar   97  TRP97       0.0191
     48  CZ3       -2.0490  103.1450   -9.1400 C.ar   97  TRP97       0.0001
     49  CH2       -1.2410  102.5710  -10.1280 C.ar   97  TRP97       0.0015
     50  N        -11.0840   98.8200  -12.1560 N.3   100  PHE100     -0.1227
     51  CA       -10.8200   98.7670  -13.5920 C.3   100  PHE100      0.1736
     52  C         -9.7540   97.7320  -13.9340 C.2   100  PHE100      0.2595
     53  O         -9.7810   97.1550  -15.0260 O.2   100  PHE100     -0.2718
     54  CB       -10.3940  100.1460  -14.1030 C.3   100  PHE100      0.0547
     55  CG       -11.5430  101.0620  -14.4260 C.ar  100  PHE100     -0.0202
     56  CD1      -12.7000  100.5700  -15.0060 C.ar  100  PHE100     -0.0042
     57  CD2      -11.4580  102.4230  -14.1650 C.ar  100  PHE100     -0.0042
     58  CE1      -13.7580  101.4120  -15.3090 C.ar  100  PHE100     -0.0003
     59  CE2      -12.5110  103.2710  -14.4670 C.ar  100  PHE100     -0.0003
     60  CZ       -13.6630  102.7640  -15.0400 C.ar  100  PHE100     -0.0000
     61  N         -8.8260   97.4670  -13.0110 N.am  101  LYS101     -0.1980
     62  CA        -7.8010   96.4570  -13.2550 C.3   101  LYS101      0.1596
     63  C         -8.4040   95.0570  -13.2580 C.2   101  LYS101      0.2287
     64  O         -8.3120   94.3300  -14.2540 O.2   101  LYS101     -0.2864
     65  CB        -6.6980   96.5660  -12.1990 C.3   101  LYS101      0.0298
     66  CG        -5.5270   95.6350  -12.3420 C.3   101  LYS101      0.0038
     67  CD        -4.6830   96.0770  -13.4950 C.3   101  LYS101      0.0206
     68  CE        -3.3390   95.3420  -13.4970 C.3   101  LYS101      0.1093
     69  NZ        -3.4770   93.9570  -13.9090 N.3   101  LYS101     -0.1314
     70  N        -10.7190   94.9350  -16.4150 N.3   104  LEU104     -0.1231
     71  CA       -10.0880   94.9050  -17.7300 C.3   104  LEU104      0.1693
     72  C         -9.2450   93.6480  -17.9050 C.2   104  LEU104      0.2592
     73  O         -9.3720   92.9370  -18.9100 O.2   104  LEU104     -0.2718
     74  CB        -9.2330   96.1560  -17.9200 C.3   104  LEU104      0.0284
     75  CG        -9.9980   97.4700  -18.1000 C.3   104  LEU104      0.0019
     76  CD1       -9.0370   98.6470  -18.1680 C.3   104  LEU104      0.0001
     77  CD2      -10.8870   97.4210  -19.3270 C.3   104  LEU104      0.0001
     78  N         -8.3770   93.3560  -16.9350 N.am  105  TYR105     -0.1976
     79  CA        -7.4980   92.1890  -16.9670 C.3   105  TYR105      0.1639
     80  C         -7.7380   91.3420  -15.7220 C.2   105  TYR105      0.2290
     81  O         -6.8930   91.3010  -14.8170 O.2   105  TYR105     -0.2864
     82  CB        -6.0300   92.6010  -17.0600 C.3   105  TYR105      0.0560
     83  CG        -5.7780   93.7420  -18.0120 C.ar  105  TYR105     -0.0198
     84  CD1       -5.8080   93.5450  -19.3840 C.ar  105  TYR105     -0.0009
     85  CD2       -5.5120   95.0210  -17.5350 C.ar  105  TYR105     -0.0009
     86  CE1       -5.5780   94.5850  -20.2580 C.ar  105  TYR105      0.0417
     87  CE2       -5.2800   96.0680  -18.4010 C.ar  105  TYR105      0.0417
     88  CZ        -5.3150   95.8440  -19.7600 C.ar  105  TYR105      0.1957
     89  OH        -5.0850   96.8830  -20.6280 O.3   105  TYR105     -0.2866
     90  N         -0.8040   86.1830  -16.3690 N.3   112  PRO112     -0.2116
     91  CA        -0.2660   87.3320  -17.1150 C.3   112  PRO112      0.1372
     92  C         -0.3220   87.1300  -18.6140 C.2   112  PRO112      0.2244
     93  O         -0.2800   88.1120  -19.3640 O.2   112  PRO112     -0.2868
     94  CB         1.1890   87.4280  -16.6220 C.3   112  PRO112      0.0268
     95  CG         1.3920   86.2470  -15.6820 C.3   112  PRO112      0.0207
     96  CD         0.2880   85.2820  -15.9730 C.3   112  PRO112      0.0892
     97  N         -5.8370   86.3970  -19.8510 N.3   115  ASP115     -0.1239
     98  CA        -6.6220   86.8350  -18.7020 C.3   115  ASP115      0.1674
     99  C         -7.8640   85.9660  -18.4820 C.2   115  ASP115      0.2266
    100  O         -8.2970   85.2070  -19.3510 O.2   115  ASP115     -0.2867
    101  CB        -7.0270   88.3010  -18.8660 C.3   115  ASP115      0.1410
    102  CG        -5.8420   89.2480  -18.7890 C.2   115  ASP115      0.3668
    103  OD1       -5.0330   89.1110  -17.8460 O.co2 115  ASP115     -0.2456
    104  OD2       -5.7150   90.1240  -19.6680 O.co2 115  ASP115     -0.2456
    105  N        -20.5540  113.5380   -8.1520 N.3   250  VAL250     -0.1231
    106  CA       -19.6180  113.1770   -9.2160 C.3   250  VAL250      0.1692
    107  C        -19.0690  111.7740   -8.9870 C.2   250  VAL250      0.2591
    108  O        -18.9730  110.9660   -9.9200 O.2   250  VAL250     -0.2718
    109  CB       -18.4840  114.2150   -9.3190 C.3   250  VAL250      0.0266
    110  CG1      -17.5940  113.9030  -10.5120 C.3   250  VAL250      0.0020
    111  CG2      -19.0510  115.6180   -9.4410 C.3   250  VAL250      0.0020
    112  N        -18.6940  111.4670   -7.7410 N.am  251  VAL251     -0.1980
    113  CA       -18.1660  110.1430   -7.4150 C.3   251  VAL251      0.1595
    114  C        -19.1910  109.0580   -7.7370 C.2   251  VAL251      0.2287
    115  O        -18.8650  108.0490   -8.3720 O.2   251  VAL251     -0.2864
    116  CB       -17.7150  110.0830   -5.9430 C.3   251  VAL251      0.0276
    117  CG1      -17.1780  108.6970   -5.6080 C.3   251  VAL251      0.0022
    118  CG2      -16.6590  111.1370   -5.6660 C.3   251  VAL251      0.0022
    119  N        -19.6220  108.4850  -11.4310 N.3   254  PHE254     -0.1241
    120  CA       -18.5390  107.6150  -11.8750 C.3   254  PHE254      0.1605
    121  C        -18.8370  106.1560  -11.5350 C.2   254  PHE254      0.2264
    122  O        -18.8170  105.2880  -12.4130 O.2   254  PHE254     -0.2867
    123  CB       -17.2170  108.0610  -11.2480 C.3   254  PHE254      0.0534
    124  CG       -16.2830  108.7320  -12.2110 C.ar  254  PHE254     -0.0203
    125  CD1      -15.4770  107.9790  -13.0520 C.ar  254  PHE254     -0.0042
    126  CD2      -16.1940  110.1140  -12.2650 C.ar  254  PHE254     -0.0042
    127  CE1      -14.6110  108.5940  -13.9400 C.ar  254  PHE254     -0.0003
    128  CE2      -15.3270  110.7370  -13.1480 C.ar  254  PHE254     -0.0003
    129  CZ       -14.5340  109.9750  -13.9870 C.ar  254  PHE254     -0.0000
@<TRIPOS>BOND
     1    89    88    1
     2    86    88   ar
     3    86    84   ar
     4    97    98    1
     5    88    87   ar
     6   104   102   ar
     7    84    83   ar
     8    93    92    2
     9   100    99    2
    10    77    75    1
    11    73    72    2
    12   101   102    1
    13   101    98    1
    14   102   103   ar
    15    98    99    1
    16    92    91    1
    17    87    85   ar
    18    76    75    1
    19    75    74    1
    20    83    85   ar
    21    83    82    1
    22    74    71    1
    23    72    71    1
    24    72    78   am
    25    71    70    1
    26    91    94    1
    27    91    90    1
    28    82    79    1
    29    79    78    1
    30    79    80    1
    31    94    95    1
    32    90    96    1
    33    96    95    1
    34    80    81    2
    35    58    60   ar
    36    58    56   ar
    37    60    59   ar
    38    53    52    2
    39    56    55   ar
    40    59    57   ar
    41    55    57   ar
    42    55    54    1
    43    64    63    2
    44    54    51    1
    45   129   127   ar
    46   129   128   ar
    47   127   125   ar
    48    52    51    1
    49    52    61   am
    50    69    68    1
    51    51    50    1
    52    68    67    1
    53    67    66    1
    54    63    62    1
    55    62    61    1
    56    62    65    1
    57   128   126   ar
    58   125   124   ar
    59   122   121    2
    60    66    65    1
    61   126   124   ar
    62   124   123    1
    63    44    42   ar
    64    44    45   ar
    65   120   121    1
    66   120   119    1
    67   120   123    1
    68    42    41   ar
    69    45    47   ar
    70    45    43   ar
    71    47    49   ar
    72    28    27    2
    73    39    38    2
    74   110   109    1
    75    41    43   ar
    76    41    40    1
    77    31    33   ar
    78    31    30   ar
    79    37    38    1
    80    37    36    1
    81    37    40    1
    82    33    35   ar
    83    43    46   ar
    84    27    36   am
    85    27    26    1
    86    49    48   ar
    87    29    30    1
    88    29    26    1
    89   108   107    2
    90    30    32   ar
    91   111   109    1
    92    26    25    1
    93   109   106    1
    94   106   107    1
    95   106   105    1
    96    46    48   ar
    97    35    34   ar
    98   107   112   am
    99    32    34   ar
   100   115   114    2
   101    22    21    2
   102    23    20    1
   103    23    24    1
   104     6     5    1
   105   112   113    1
   106   114   113    1
   107    20    21    1
   108    20    19    1
   109   113   116    1
   110     5     7    1
   111     5     2    1
   112    19    10   am
   113    11    10    2
   114     4     3    2
   115   116   118    1
   116   116   117    1
   117    10     9    1
   118     3     2    1
   119     2     1    1
   120    12     9    1
   121    12    13    1
   122     9     8    1
   123    14    13   ar
   124    14    16   ar
   125    13    15   ar
   126    16    18   ar
   127    15    17   ar
   128    18    17   ar
