@<TRIPOS>MOLECULE
tmp/5wehD01.pdb
 253 246 0 0 0
SMALL
GASTEIGER

@<TRIPOS>ATOM
      1  N        -33.8630  157.9130  -28.4570 N.3    50  LEU50      -0.1245
      2  CA       -33.0340  158.5020  -29.5110 C.3    50  LEU50       0.1561
      3  C        -33.8600  158.9010  -30.7290 C.2    50  LEU50       0.2260
      4  O        -33.4810  159.8220  -31.4610 O.2    50  LEU50      -0.2867
      5  CB       -31.9230  157.5350  -29.9190 C.3    50  LEU50       0.0270
      6  CG       -30.6750  157.5450  -29.0320 C.3    50  LEU50       0.0019
      7  CD1      -29.8130  156.3240  -29.3040 C.3    50  LEU50       0.0001
      8  CD2      -29.8810  158.8250  -29.2280 C.3    50  LEU50       0.0001
      9  N        -35.7020  162.2820  -29.1790 N.3    53  MET53      -0.1230
     10  CA       -34.7030  163.3520  -29.1870 C.3    53  MET53       0.1702
     11  C        -34.4960  163.9150  -30.5880 C.2    53  MET53       0.2592
     12  O        -34.4640  165.1340  -30.7890 O.2    53  MET53      -0.2718
     13  CB       -33.3700  162.8300  -28.6450 C.3    53  MET53       0.0401
     14  CG       -33.3520  162.4460  -27.1790 C.3    53  MET53       0.0596
     15  SD       -31.6700  161.9990  -26.6930 S.3    53  MET53      -0.1393
     16  CE       -31.8260  161.8880  -24.9140 C.3    53  MET53       0.0692
     17  N        -34.3320  163.0190  -31.5640 N.am   54  PHE54      -0.1976
     18  CA       -34.1620  163.4210  -32.9570 C.3    54  PHE54       0.1639
     19  C        -35.3330  164.2720  -33.4350 C.2    54  PHE54       0.2290
     20  O        -35.1390  165.3690  -33.9720 O.2    54  PHE54      -0.2864
     21  CB       -33.9970  162.1730  -33.8260 C.3    54  PHE54       0.0560
     22  CG       -33.5760  162.4600  -35.2370 C.ar   54  PHE54      -0.0200
     23  CD1      -32.9200  163.6380  -35.5590 C.ar   54  PHE54      -0.0042
     24  CD2      -33.8200  161.5370  -36.2430 C.ar   54  PHE54      -0.0042
     25  CE1      -32.5310  163.8980  -36.8590 C.ar   54  PHE54      -0.0003
     26  CE2      -33.4320  161.7880  -37.5430 C.ar   54  PHE54      -0.0003
     27  CZ       -32.7860  162.9710  -37.8530 C.ar   54  PHE54      -0.0000
     28  N        -35.4540  167.8500  -31.5380 N.3    57  TRP57      -0.1241
     29  CA       -34.4540  168.8140  -31.9830 C.3    57  TRP57       0.1605
     30  C        -34.5970  169.1780  -33.4540 C.2    57  TRP57       0.2264
     31  O        -34.1240  170.2450  -33.8600 O.2    57  TRP57      -0.2867
     32  CB       -33.0530  168.2700  -31.7120 C.3    57  TRP57       0.0550
     33  CG       -32.6450  168.3620  -30.2750 C.ar   57  TRP57       0.0003
     34  CD1      -32.8960  169.3900  -29.4140 C.ar   57  TRP57       0.0946
     35  CD2      -31.9180  167.3810  -29.5270 C.ar   57  TRP57       0.0152
     36  NE1      -32.3640  169.1140  -28.1780 N.ar   57  TRP57      -0.2442
     37  CE2      -31.7590  167.8840  -28.2210 C.ar   57  TRP57       0.0810
     38  CE3      -31.3860  166.1250  -29.8350 C.ar   57  TRP57       0.0012
     39  CZ2      -31.0880  167.1760  -27.2250 C.ar   57  TRP57       0.0191
     40  CZ3      -30.7190  165.4250  -28.8470 C.ar   57  TRP57       0.0001
     41  CH2      -30.5770  165.9520  -27.5570 C.ar   57  TRP57       0.0015
     42  N        -36.7870  172.2260  -33.3640 N.3    60  VAL60      -0.1231
     43  CA       -36.1060  173.4280  -32.8900 C.3    60  VAL60       0.1692
     44  C        -35.2310  174.0440  -33.9720 C.2    60  VAL60       0.2591
     45  O        -34.7770  175.1830  -33.8250 O.2    60  VAL60      -0.2718
     46  CB       -35.2820  173.1160  -31.6210 C.3    60  VAL60       0.0266
     47  CG1      -34.9760  174.3920  -30.8420 C.3    60  VAL60       0.0020
     48  CG2      -36.0260  172.1270  -30.7350 C.3    60  VAL60       0.0020
     49  N        -35.0030  173.3180  -35.0630 N.am   61  VAL61      -0.1980
     50  CA       -34.4380  173.8970  -36.2780 C.3    61  VAL61       0.1595
     51  C        -35.5410  174.3940  -37.2030 C.2    61  VAL61       0.2287
     52  O        -35.4560  175.5010  -37.7440 O.2    61  VAL61      -0.2864
     53  CB       -33.5250  172.8760  -36.9910 C.3    61  VAL61       0.0276
     54  CG1      -32.7340  173.5560  -38.1000 C.3    61  VAL61       0.0022
     55  CG2      -32.5870  172.2100  -36.0010 C.3    61  VAL61       0.0022
     56  N        -36.6850  177.5850  -35.9240 N.3    64  SER64      -0.1202
     57  CA       -35.7060  178.6460  -36.1500 C.3    64  SER64       0.2020
     58  C        -35.7170  179.1020  -37.6050 C.2    64  SER64       0.2618
     59  O        -35.5400  180.2920  -37.8920 O.2    64  SER64      -0.2717
     60  CB       -34.3100  178.1750  -35.7420 C.3    64  SER64       0.2103
     61  OG       -33.4990  179.2720  -35.3550 O.3    64  SER64      -0.2182
     62  N        -35.9310  178.1680  -38.5350 N.am   65  LEU65      -0.1979
     63  CA       -36.0770  178.5290  -39.9400 C.3    65  LEU65       0.1596
     64  C        -37.4510  179.1290  -40.2120 C.2    65  LEU65       0.2287
     65  O        -37.6010  179.9450  -41.1280 O.2    65  LEU65      -0.2864
     66  CB       -35.8350  177.3040  -40.8280 C.3    65  LEU65       0.0297
     67  CG       -34.4430  176.6670  -40.7580 C.3    65  LEU65       0.0022
     68  CD1      -34.4530  175.2760  -41.3790 C.3    65  LEU65       0.0001
     69  CD2      -33.3900  177.5510  -41.4200 C.3    65  LEU65       0.0001
     70  N        -37.4400  182.0710  -33.6550 N.3    69  HIS69      -0.1241
     71  CA       -36.3040  182.4270  -32.8080 C.3    69  HIS69       0.1621
     72  C        -36.0120  183.9240  -32.9340 C.2    69  HIS69       0.2264
     73  O        -35.0660  184.3640  -33.5890 O.2    69  HIS69      -0.2867
     74  CB       -35.1000  181.5780  -33.1860 C.3    69  HIS69       0.0745
     75  CG       -35.1670  180.1770  -32.6640 C.ar   69  HIS69       0.0817
     76  ND1      -34.0650  179.3520  -32.6030 N.ar   69  HIS69      -0.2268
     77  CD2      -36.2050  179.4530  -32.1790 C.ar   69  HIS69       0.1154
     78  CE1      -34.4200  178.1810  -32.1050 C.ar   69  HIS69       0.1986
     79  NE2      -35.7140  178.2160  -31.8390 N.ar   69  HIS69      -0.2212
     80  N        -34.0790  183.5410  -28.7830 N.3    74  ARG74      -0.1245
     81  CA       -32.6780  183.1550  -28.9220 C.3    74  ARG74       0.1563
     82  C        -31.8910  183.4300  -27.6470 C.2    74  ARG74       0.2260
     83  O        -31.0970  182.5900  -27.2060 O.2    74  ARG74      -0.2867
     84  CB       -32.0500  183.8840  -30.1080 C.3    74  ARG74       0.0307
     85  CG       -32.4660  183.3140  -31.4490 C.3    74  ARG74       0.0489
     86  CD       -31.7080  183.9650  -32.5840 C.3    74  ARG74       0.2205
     87  NE       -32.2910  185.2490  -32.9540 N.pl3  74  ARG74      -0.0865
     88  CZ       -31.6860  186.4190  -32.7820 C.cat  74  ARG74       0.5346
     89  NH1      -30.4750  186.4670  -32.2450 N.pl3  74  ARG74       0.1354
     90  NH2      -32.2900  187.5420  -33.1470 N.pl3  74  ARG74       0.1354
     91  N        -32.8620  180.8530  -25.0440 N.3    77  LEU77      -0.1245
     92  CA       -32.2350  179.5690  -25.3320 C.3    77  LEU77       0.1561
     93  C        -30.7690  179.5540  -24.9170 C.2    77  LEU77       0.2260
     94  O        -30.2130  178.4850  -24.6470 O.2    77  LEU77      -0.2867
     95  CB       -32.3800  179.2390  -26.8170 C.3    77  LEU77       0.0270
     96  CG       -33.8200  179.1120  -27.3220 C.3    77  LEU77       0.0019
     97  CD1      -33.9510  179.5640  -28.7750 C.3    77  LEU77       0.0001
     98  CD2      -34.3480  177.6920  -27.1510 C.3    77  LEU77       0.0001
     99  N        -29.2200  176.7720  -21.9870 N.3    81  PHE81      -0.1241
    100  CA       -28.0560  175.9170  -22.1690 C.3    81  PHE81       0.1605
    101  C        -26.9720  176.1980  -21.1370 C.2    81  PHE81       0.2264
    102  O        -26.2620  175.2710  -20.7290 O.2    81  PHE81      -0.2867
    103  CB       -27.4950  176.0720  -23.5780 C.3    81  PHE81       0.0534
    104  CG       -26.6160  174.9350  -23.9910 C.ar   81  PHE81      -0.0203
    105  CD1      -27.1730  173.7350  -24.4030 C.ar   81  PHE81      -0.0042
    106  CD2      -25.2380  175.0510  -23.9380 C.ar   81  PHE81      -0.0042
    107  CE1      -26.3700  172.6780  -24.7750 C.ar   81  PHE81      -0.0003
    108  CE2      -24.4300  173.9970  -24.3100 C.ar   81  PHE81      -0.0003
    109  CZ       -24.9980  172.8100  -24.7290 C.ar   81  PHE81      -0.0000
    110  N        -27.9860  174.5730  -17.9680 N.3    84  PHE84      -0.1241
    111  CA       -27.6860  173.1590  -18.1730 C.3    84  PHE84       0.1605
    112  C        -26.2090  172.8670  -17.9300 C.2    84  PHE84       0.2264
    113  O        -25.8640  171.9640  -17.1590 O.2    84  PHE84      -0.2867
    114  CB       -28.1130  172.7530  -19.5870 C.3    84  PHE84       0.0534
    115  CG       -27.8520  171.3090  -19.9240 C.ar   84  PHE84      -0.0203
    116  CD1      -26.6160  170.8990  -20.4040 C.ar   84  PHE84      -0.0042
    117  CD2      -28.8510  170.3610  -19.7640 C.ar   84  PHE84      -0.0042
    118  CE1      -26.3850  169.5730  -20.7190 C.ar   84  PHE84      -0.0003
    119  CE2      -28.6250  169.0340  -20.0740 C.ar   84  PHE84      -0.0003
    120  CZ       -27.3910  168.6390  -20.5510 C.ar   84  PHE84      -0.0000
    121  N        -18.1590  162.1520  -26.4860 N.3   212  ILE212     -0.1231
    122  CA       -19.0250  161.5250  -27.4860 C.3   212  ILE212      0.1692
    123  C        -20.2350  162.4050  -27.7880 C.2   212  ILE212      0.2591
    124  O        -20.5660  162.6520  -28.9520 O.2   212  ILE212     -0.2718
    125  CB       -19.4380  160.1150  -27.0220 C.3   212  ILE212      0.0266
    126  CG1      -18.3350  159.1110  -27.3720 C.3   212  ILE212      0.0019
    127  CG2      -20.7660  159.6940  -27.6510 C.3   212  ILE212      0.0020
    128  CD1      -18.6400  157.6890  -26.9610 C.3   212  ILE212      0.0001
    129  N        -20.9160  162.8880  -26.7430 N.am  213  VAL213     -0.1980
    130  CA       -22.0520  163.7910  -26.9410 C.3   213  VAL213      0.1595
    131  C        -21.6080  165.0690  -27.6470 C.2   213  VAL213      0.2287
    132  O        -22.2170  165.4960  -28.6370 O.2   213  VAL213     -0.2864
    133  CB       -22.7450  164.1000  -25.6000 C.3   213  VAL213      0.0276
    134  CG1      -23.8370  165.1350  -25.7980 C.3   213  VAL213      0.0022
    135  CG2      -23.3380  162.8320  -25.0070 C.3   213  VAL213      0.0022
    136  N        -20.9470  164.3940  -31.4110 N.3   216  ILE216     -0.1231
    137  CA       -22.2260  164.2420  -32.1090 C.3   216  ILE216      0.1692
    138  C        -22.9110  165.5940  -32.2710 C.2   216  ILE216      0.2592
    139  O        -23.4640  165.9090  -33.3330 O.2   216  ILE216     -0.2718
    140  CB       -23.1250  163.2350  -31.3620 C.3   216  ILE216      0.0266
    141  CG1      -22.4660  161.8540  -31.3300 C.3   216  ILE216      0.0019
    142  CG2      -24.5080  163.1420  -32.0040 C.3   216  ILE216      0.0020
    143  CD1      -22.0760  161.3190  -32.6900 C.3   216  ILE216      0.0001
    144  N        -22.8830  166.4130  -31.2170 N.am  217  PHE217     -0.1976
    145  CA       -23.4870  167.7410  -31.2750 C.3   217  PHE217      0.1639
    146  C        -22.8040  168.6120  -32.3260 C.2   217  PHE217      0.2290
    147  O        -23.4740  169.2660  -33.1340 O.2   217  PHE217     -0.2864
    148  CB       -23.4230  168.3950  -29.8950 C.3   217  PHE217      0.0560
    149  CG       -24.3680  169.5450  -29.7220 C.ar  217  PHE217     -0.0200
    150  CD1      -25.6850  169.3260  -29.3570 C.ar  217  PHE217     -0.0042
    151  CD2      -23.9410  170.8450  -29.9120 C.ar  217  PHE217     -0.0042
    152  CE1      -26.5590  170.3820  -29.1930 C.ar  217  PHE217     -0.0003
    153  CE2      -24.8110  171.9070  -29.7490 C.ar  217  PHE217     -0.0003
    154  CZ       -26.1210  171.6750  -29.3880 C.ar  217  PHE217     -0.0000
    155  N        -23.8480  167.5980  -35.8470 N.3   220  VAL220     -0.1231
    156  CA       -25.1470  168.1490  -36.2250 C.3   220  VAL220      0.1692
    157  C        -24.9980  169.5960  -36.6760 C.2   220  VAL220      0.2592
    158  O        -25.7020  170.0450  -37.5900 O.2   220  VAL220     -0.2718
    159  CB       -26.1470  168.0010  -35.0570 C.3   220  VAL220      0.0266
    160  CG1      -27.4390  168.7630  -35.3340 C.3   220  VAL220      0.0020
    161  CG2      -26.4380  166.5280  -34.7850 C.3   220  VAL220      0.0020
    162  N        -24.0660  170.3390  -36.0730 N.am  221  CYS221     -0.1970
    163  CA       -23.8270  171.7150  -36.4940 C.3   221  CYS221      0.1712
    164  C        -23.1160  171.7780  -37.8390 C.2   221  CYS221      0.2296
    165  O        -23.3620  172.7000  -38.6230 O.2   221  CYS221     -0.2864
    166  CB       -23.0210  172.4610  -35.4330 C.3   221  CYS221      0.0983
    167  SG       -23.9960  172.9510  -33.9910 S.3   221  CYS221     -0.0798
    168  N        -25.4890  170.9680  -40.5710 N.3   224  ARG224     -0.1245
    169  CA       -26.2850  172.1580  -40.8540 C.3   224  ARG224      0.1563
    170  C        -25.5120  173.1790  -41.6850 C.2   224  ARG224      0.2260
    171  O        -26.0980  173.8370  -42.5530 O.2   224  ARG224     -0.2867
    172  CB       -26.7730  172.7830  -39.5500 C.3   224  ARG224      0.0307
    173  CG       -27.8940  171.9990  -38.8920 C.3   224  ARG224      0.0489
    174  CD       -28.3400  172.6460  -37.6000 C.3   224  ARG224      0.2205
    175  NE       -29.1630  173.8240  -37.8540 N.pl3 224  ARG224     -0.0865
    176  CZ       -29.4970  174.7120  -36.9250 C.cat 224  ARG224      0.5346
    177  NH1      -29.0780  174.5540  -35.6780 N.pl3 224  ARG224      0.1354
    178  NH2      -30.2510  175.7570  -37.2410 N.pl3 224  ARG224      0.1354
    179  N        -27.0700  176.7380  -42.8030 N.3   229  HIS229     -0.1226
    180  CA       -28.1830  177.0170  -41.9050 C.3   229  HIS229      0.1752
    181  C        -27.9520  178.1820  -40.9490 C.2   229  HIS229      0.2596
    182  O        -28.9330  178.7240  -40.4240 O.2   229  HIS229     -0.2718
    183  CB       -28.5290  175.7750  -41.0800 C.3   229  HIS229      0.0759
    184  CG       -29.6760  174.9850  -41.6270 C.ar  229  HIS229      0.0818
    185  ND1      -30.4790  174.1960  -40.8330 N.ar  229  HIS229     -0.2268
    186  CD2      -30.1670  174.8740  -42.8840 C.ar  229  HIS229      0.1154
    187  CE1      -31.4110  173.6270  -41.5770 C.ar  229  HIS229      0.1986
    188  NE2      -31.2440  174.0220  -42.8260 N.ar  229  HIS229     -0.2212
    189  N        -26.7120  178.5980  -40.7130 N.am  230  PHE230     -0.1962
    190  CA       -26.4520  179.6530  -39.7420 C.3   230  PHE230      0.1771
    191  C        -26.2160  180.9920  -40.4330 C.2   230  PHE230      0.2620
    192  O        -25.8330  181.0590  -41.6050 O.2   230  PHE230     -0.2715
    193  CB       -25.2420  179.3100  -38.8650 C.3   230  PHE230      0.0574
    194  CG       -25.3590  177.9950  -38.1530 C.ar  230  PHE230     -0.0200
    195  CD1      -26.3630  177.7840  -37.2230 C.ar  230  PHE230     -0.0042
    196  CD2      -24.4350  176.9860  -38.3780 C.ar  230  PHE230     -0.0042
    197  CE1      -26.4700  176.5760  -36.5620 C.ar  230  PHE230     -0.0003
    198  CE2      -24.5300  175.7800  -37.7150 C.ar  230  PHE230     -0.0003
    199  CZ       -25.5490  175.5740  -36.8060 C.ar  230  PHE230     -0.0000
    200  N        -26.4570  182.0610  -39.6860 N.am  231  THR231     -0.1951
    201  CA       -26.0810  183.4190  -40.0430 C.3   231  THR231      0.1897
    202  C        -25.2660  184.0100  -38.9040 C.2   231  THR231      0.2313
    203  O        -25.2790  183.4820  -37.7860 O.2   231  THR231     -0.2863
    204  CB       -27.3190  184.2940  -40.3140 C.3   231  THR231      0.1794
    205  OG1      -28.0980  184.4090  -39.1170 O.3   231  THR231     -0.2208
    206  CG2      -28.1720  183.7020  -41.4290 C.3   231  THR231      0.0378
    207  N        -27.9500  184.7390  -36.1690 N.3   234  LYS234     -0.1231
    208  CA       -28.8040  183.6540  -35.6890 C.3   234  LYS234      0.1693
    209  C        -28.0200  182.3420  -35.7310 C.2   234  LYS234      0.2592
    210  O        -27.9320  181.7050  -36.7850 O.2   234  LYS234     -0.2718
    211  CB       -30.0730  183.5590  -36.5340 C.3   234  LYS234      0.0285
    212  CG       -30.9970  184.7600  -36.4350 C.3   234  LYS234      0.0035
    213  CD       -32.4220  184.3440  -36.1000 C.3   234  LYS234      0.0206
    214  CE       -33.0730  183.6110  -37.2600 C.3   234  LYS234      0.1093
    215  NZ       -34.3940  183.0410  -36.8780 N.3   234  LYS234     -0.1314
    216  N        -27.4490  181.9350  -34.5930 N.am  235  HIS235     -0.1962
    217  CA       -26.7010  180.6830  -34.5290 C.3   235  HIS235      0.1787
    218  C        -26.6310  180.1430  -33.1020 C.2   235  HIS235      0.2620
    219  O        -25.5440  179.8470  -32.5940 O.2   235  HIS235     -0.2715
    220  CB       -25.2980  180.8600  -35.1220 C.3   235  HIS235      0.0785
    221  CG       -24.4580  181.8820  -34.4180 C.ar  235  HIS235      0.0821
    222  ND1      -24.6660  183.2380  -34.5530 N.ar  235  HIS235     -0.2267
    223  CD2      -23.3930  181.7460  -33.5930 C.ar  235  HIS235      0.1154
    224  CE1      -23.7770  183.8920  -33.8280 C.ar  235  HIS235      0.1986
    225  NE2      -22.9920  183.0100  -33.2360 N.ar  235  HIS235     -0.2212
    226  N        -27.7920  180.0090  -32.4510 N.am  236  VAL236     -0.1963
    227  CA       -27.8310  179.5470  -31.0630 C.3   236  VAL236      0.1727
    228  C        -27.3370  178.1070  -30.9610 C.2   236  VAL236      0.2616
    229  O        -26.5600  177.7640  -30.0620 O.2   236  VAL236     -0.2715
    230  CB       -29.2510  179.7000  -30.4860 C.3   236  VAL236      0.0290
    231  CG1      -29.2500  179.4520  -28.9800 C.3   236  VAL236      0.0023
    232  CG2      -29.7970  181.0780  -30.7980 C.3   236  VAL236      0.0023
    233  N        -27.7960  177.2410  -31.8690 N.am  237  GLY237     -0.1955
    234  CA       -27.3040  175.8690  -31.8890 C.3   237  GLY237      0.1869
    235  C        -25.7990  175.7940  -32.0560 C.2   237  GLY237      0.2309
    236  O        -25.1180  175.0500  -31.3470 O.2   237  GLY237     -0.2863
    237  N        -24.1220  177.0650  -28.7130 N.3   240  ALA240     -0.1245
    238  CA       -24.0930  176.0890  -27.6320 C.3   240  ALA240      0.1562
    239  C        -23.1490  174.9290  -27.9160 C.2   240  ALA240      0.2260
    240  O        -22.6970  174.2720  -26.9720 O.2   240  ALA240     -0.2867
    241  CB       -25.5020  175.5600  -27.3640 C.3   240  ALA240      0.0290
    242  N        -20.5670  174.0190  -25.0720 N.3   244  TYR244     -0.1241
    243  CA       -20.5060  172.6450  -24.5770 C.3   244  TYR244      0.1605
    244  C        -19.1220  172.0460  -24.7850 C.2   244  TYR244      0.2264
    245  O        -18.5640  171.4100  -23.8840 O.2   244  TYR244     -0.2867
    246  CB       -21.5710  171.7970  -25.2780 C.3   244  TYR244      0.0534
    247  CG       -21.8730  170.4660  -24.6160 C.ar  244  TYR244     -0.0201
    248  CD1      -20.9890  169.3960  -24.7170 C.ar  244  TYR244     -0.0009
    249  CD2      -23.0440  170.2800  -23.8920 C.ar  244  TYR244     -0.0009
    250  CE1      -21.2660  168.1820  -24.1150 C.ar  244  TYR244      0.0417
    251  CE2      -23.3300  169.0700  -23.2860 C.ar  244  TYR244      0.0417
    252  CZ       -22.4370  168.0240  -23.4000 C.ar  244  TYR244      0.1957
    253  OH       -22.7090  166.8140  -22.8010 O.3   244  TYR244     -0.2866
@<TRIPOS>BOND
     1   186   188   ar
     2   186   184   ar
     3   188   187   ar
     4   179   180    1
     5   171   170    2
     6   180   183    1
     7   180   181    1
     8   170   169    1
     9   184   183    1
    10   184   185   ar
    11   192   191    2
    12   187   185   ar
    13   206   204    1
    14    69    67    1
    15    68    67    1
    16    65    64    2
    17   181   189   am
    18   181   182    2
    19   169   168    1
    20   169   172    1
    21    66    67    1
    22    66    63    1
    23   189   190    1
    24   191   190    1
    25   191   200   am
    26   204   201    1
    27   204   205    1
    28    64    63    1
    29   201   200    1
    30   201   202    1
    31    63    62    1
    32   190   193    1
    33   172   173    1
    34   202   203    2
    35   173   174    1
    36   193   194    1
    37   165   164    2
    38    62    58   am
    39   196   194   ar
    40   196   198   ar
    41   194   195   ar
    42    54    53    1
    43    59    58    2
    44   175   174    1
    45   175   176    2
    46    27    26   ar
    47    27    25   ar
    48   164   163    1
    49    52    51    2
    50   198   199   ar
    51    58    57    1
    52   158   157    2
    53    26    24   ar
    54   214   215    1
    55   214   213    1
    56   178   176    1
    57   195   197   ar
    58    51    50    1
    59    53    50    1
    60    53    55    1
    61   176   177    1
    62    25    23   ar
    63   199   197   ar
    64   210   209    2
    65   157   156    1
    66   157   162   am
    67   211   212    1
    68   211   208    1
    69   163   162    1
    70   163   166    1
    71   212   213    1
    72    50    49    1
    73    24    22   ar
    74   156   155    1
    75   156   159    1
    76   207   208    1
    77    57    56    1
    78    57    60    1
    79    60    61    1
    80   209   208    1
    81   209   216   am
    82    23    22   ar
    83   166   167    1
    84   160   159    1
    85    22    21    1
    86   220   217    1
    87   220   221    1
    88    49    44   am
    89   159   161    1
    90   216   217    1
    91   222   221   ar
    92   222   224   ar
    93   217   218    1
    94   221   223   ar
    95    20    19    2
    96    44    45    2
    97    44    43    1
    98    31    30    2
    99   224   225   ar
   100    21    18    1
   101    70    71    1
   102   223   225   ar
   103    73    72    2
   104    30    29    1
   105    19    18    1
   106    42    43    1
   107   139   138    2
   108    74    71    1
   109    74    75    1
   110    90    88    1
   111   147   146    2
   112   218   219    2
   113   218   226   am
   114    18    17    1
   115    87    88    2
   116    87    86    1
   117    72    71    1
   118    43    46    1
   119    88    89    1
   120   143   141    1
   121    75    76   ar
   122    75    77   ar
   123    76    78   ar
   124    86    85    1
   125   226   227    1
   126   146   145    1
   127   138   137    1
   128   138   144   am
   129    77    79   ar
   130   137   136    1
   131   137   140    1
   132    78    79   ar
   133   235   234    1
   134   235   236    2
   135   142   140    1
   136    29    32    1
   137    29    28    1
   138   234   233    1
   139   233   228   am
   140    32    33    1
   141    46    47    1
   142    46    48    1
   143    17    11   am
   144     4     3    2
   145    85    84    1
   146   140   141    1
   147   145   144    1
   148   145   148    1
   149   227   228    1
   150   227   230    1
   151   228   229    2
   152   232   230    1
   153    12    11    2
   154     3     2    1
   155    11    10    1
   156   230   231    1
   157    33    35   ar
   158    33    34   ar
   159    84    81    1
   160     5     2    1
   161     5     6    1
   162   151   153   ar
   163   151   149   ar
   164   148   149    1
   165    38    35   ar
   166    38    40   ar
   167   153   154   ar
   168   149   150   ar
   169    35    37   ar
   170     2     1    1
   171    34    36   ar
   172   154   152   ar
   173   150   152   ar
   174     7     6    1
   175     8     6    1
   176    10     9    1
   177    10    13    1
   178   124   123    2
   179    81    80    1
   180    81    82    1
   181    40    41   ar
   182    97    96    1
   183   237   238    1
   184    13    14    1
   185   132   131    2
   186    37    36   ar
   187    37    39   ar
   188   239   238    1
   189   239   240    2
   190   123   122    1
   191   123   129   am
   192   127   125    1
   193   131   130    1
   194    82    83    2
   195   238   241    1
   196    41    39   ar
   197   122   125    1
   198   122   121    1
   199   126   125    1
   200   126   128    1
   201    96    98    1
   202    96    95    1
   203    14    15    1
   204   130   129    1
   205   130   133    1
   206    95    92    1
   207    15    16    1
   208   134   133    1
   209   133   135    1
   210    92    91    1
   211    92    93    1
   212   246   247    1
   213   246   243    1
   214   242   243    1
   215    93    94    2
   216   244   243    1
   217   244   245    2
   218   107   109   ar
   219   107   105   ar
   220   109   108   ar
   221   248   247   ar
   222   248   250   ar
   223   247   249   ar
   224   105   104   ar
   225   108   106   ar
   226   250   252   ar
   227   104   106   ar
   228   104   103    1
   229   249   251   ar
   230   103   100    1
   231   252   251   ar
   232   252   253    1
   233   100    99    1
   234   100   101    1
   235   101   102    2
   236   118   120   ar
   237   118   116   ar
   238   120   119   ar
   239   116   115   ar
   240   119   117   ar
   241   115   117   ar
   242   115   114    1
   243   114   111    1
   244   111   110    1
   245   111   112    1
   246   112   113    2
