@<TRIPOS>MOLECULE
tmp/5wehG01.pdb
 254 247 0 0 0
SMALL
GASTEIGER

@<TRIPOS>ATOM
      1  N        -14.7830  112.2540   18.1750 N.3    50  LEU50      -0.1245
      2  CA       -16.0400  112.9050   17.8000 C.3    50  LEU50       0.1561
      3  C        -16.3860  114.0500   18.7460 C.2    50  LEU50       0.2260
      4  O        -17.0630  115.0040   18.3470 O.2    50  LEU50      -0.2867
      5  CB       -17.1800  111.8860   17.7670 C.3    50  LEU50       0.0270
      6  CG       -17.3350  111.0540   16.4930 C.3    50  LEU50       0.0019
      7  CD1      -18.2430  109.8660   16.7500 C.3    50  LEU50       0.0001
      8  CD2      -17.8750  111.9010   15.3550 C.3    50  LEU50       0.0001
      9  N        -13.6400  116.8580   17.4120 N.3    53  MET53      -0.1230
     10  CA       -14.1610  117.4150   16.1630 C.3    53  MET53       0.1702
     11  C        -15.2930  118.4050   16.4240 C.2    53  MET53       0.2592
     12  O        -15.3300  119.5000   15.8510 O.2    53  MET53      -0.2718
     13  CB       -14.6430  116.2890   15.2430 C.3    53  MET53       0.0401
     14  CG       -13.5370  115.3820   14.7210 C.3    53  MET53       0.0596
     15  SD       -14.1000  114.1630   13.5080 S.3    53  MET53      -0.1393
     16  CE       -15.8730  114.4090   13.5420 C.3    53  MET53       0.0692
     17  N        -16.2340  118.0130   17.2880 N.am   54  PHE54      -0.1976
     18  CA       -17.3420  118.8880   17.6620 C.3    54  PHE54       0.1639
     19  C        -16.8360  120.2070   18.2360 C.2    54  PHE54       0.2290
     20  O        -17.2230  121.2850   17.7730 O.2    54  PHE54      -0.2864
     21  CB       -18.2430  118.1590   18.6640 C.3    54  PHE54       0.0560
     22  CG       -19.5380  118.8650   18.9630 C.ar   54  PHE54      -0.0200
     23  CD1      -19.5770  119.9450   19.8340 C.ar   54  PHE54      -0.0042
     24  CD2      -20.7210  118.4410   18.3780 C.ar   54  PHE54      -0.0042
     25  CE1      -20.7680  120.5900   20.1110 C.ar   54  PHE54      -0.0003
     26  CE2      -21.9150  119.0820   18.6510 C.ar   54  PHE54      -0.0003
     27  CZ       -21.9380  120.1580   19.5190 C.ar   54  PHE54      -0.0000
     28  N        -14.9060  122.4360   15.4700 N.3    57  TRP57      -0.1241
     29  CA       -15.7770  123.0920   14.5010 C.3    57  TRP57       0.1605
     30  C        -16.7490  124.0700   15.1460 C.2    57  TRP57       0.2264
     31  O        -17.2380  124.9730   14.4590 O.2    57  TRP57      -0.2867
     32  CB       -16.5430  122.0450   13.6950 C.3    57  TRP57       0.0550
     33  CG       -15.7020  121.3770   12.6530 C.ar   57  TRP57       0.0003
     34  CD1      -14.7590  121.9640   11.8590 C.ar   57  TRP57       0.0946
     35  CD2      -15.7170  119.9900   12.3020 C.ar   57  TRP57       0.0152
     36  NE1      -14.1910  121.0270   11.0290 N.ar   57  TRP57      -0.2442
     37  CE2      -14.7620  119.8070   11.2820 C.ar   57  TRP57       0.0810
     38  CE3      -16.4460  118.8850   12.7500 C.ar   57  TRP57       0.0012
     39  CZ2      -14.5190  118.5640   10.7020 C.ar   57  TRP57       0.0191
     40  CZ3      -16.2030  117.6530   12.1750 C.ar   57  TRP57       0.0001
     41  CH2      -15.2490  117.5020   11.1600 C.ar   57  TRP57       0.0015
     42  N        -14.9090  127.3050   14.9290 N.3    60  VAL60      -0.1231
     43  CA       -14.8500  127.8660   13.5820 C.3    60  VAL60       0.1692
     44  C        -16.1580  128.5420   13.1970 C.2    60  VAL60       0.2591
     45  O        -16.2080  129.2730   12.2030 O.2    60  VAL60      -0.2718
     46  CB       -14.4650  126.7770   12.5570 C.3    60  VAL60       0.0266
     47  CG1      -13.9260  127.4070   11.2770 C.3    60  VAL60       0.0020
     48  CG2      -13.4380  125.8270   13.1540 C.3    60  VAL60       0.0020
     49  N        -17.2130  128.3250   13.9780 N.am   61  VAL61      -0.1980
     50  CA       -18.4240  129.1330   13.8940 C.3    61  VAL61       0.1595
     51  C        -18.3460  130.3230   14.8390 C.2    61  VAL61       0.2287
     52  O        -18.6740  131.4500   14.4580 O.2    61  VAL61      -0.2864
     53  CB       -19.6720  128.2710   14.1810 C.3    61  VAL61       0.0276
     54  CG1      -20.9400  129.0410   13.8390 C.3    61  VAL61       0.0022
     55  CG2      -19.6170  126.9700   13.4010 C.3    61  VAL61       0.0022
     56  N        -16.2660  132.8410   13.2600 N.3    64  SER64      -0.1202
     57  CA       -16.9410  133.4930   12.1400 C.3    64  SER64       0.2020
     58  C        -17.9730  134.5020   12.6270 C.2    64  SER64       0.2618
     59  O        -18.1480  135.5630   12.0180 O.2    64  SER64      -0.2717
     60  CB       -17.6000  132.4510   11.2370 C.3    64  SER64       0.2103
     61  OG       -17.6980  132.9300    9.9060 O.3    64  SER64      -0.2182
     62  N        -18.6590  134.1910   13.7260 N.am   65  LEU65      -0.1979
     63  CA       -19.5890  135.1470   14.3130 C.3    65  LEU65       0.1596
     64  C        -18.8520  136.2400   15.0660 C.2    65  LEU65       0.2287
     65  O        -19.3570  137.3620   15.1850 O.2    65  LEU65      -0.2864
     66  CB       -20.5510  134.4310   15.2600 C.3    65  LEU65       0.0297
     67  CG       -21.4790  133.3990   14.6270 C.3    65  LEU65       0.0022
     68  CD1      -22.0770  132.5120   15.7010 C.3    65  LEU65       0.0001
     69  CD2      -22.5680  134.0820   13.8180 C.3    65  LEU65       0.0001
     70  N        -13.4820  135.8870   10.3030 N.3    69  HIS69      -0.1241
     71  CA       -13.5550  135.4280    8.9180 C.3    69  HIS69       0.1621
     72  C        -13.6230  136.6360    7.9900 C.2    69  HIS69       0.2264
     73  O        -14.6770  137.0290    7.4830 O.2    69  HIS69      -0.2867
     74  CB       -14.7390  134.4920    8.7440 C.3    69  HIS69       0.0745
     75  CG       -14.4790  133.1140    9.2620 C.ar   69  HIS69       0.0817
     76  ND1      -15.2480  132.0270    8.9120 N.ar   69  HIS69      -0.2268
     77  CD2      -13.5210  132.6440   10.0950 C.ar   69  HIS69       0.1154
     78  CE1      -14.7830  130.9480    9.5170 C.ar   69  HIS69       0.1986
     79  NE2      -13.7340  131.2950   10.2400 N.ar   69  HIS69      -0.2212
     80  N        -10.1110  129.6720    3.5410 N.3    77  LEU77      -0.1245
     81  CA       -10.8960  128.5050    3.9250 C.3    77  LEU77       0.1561
     82  C        -11.5400  127.8420    2.7170 C.2    77  LEU77       0.2260
     83  O        -11.8350  126.6430    2.7520 O.2    77  LEU77      -0.2867
     84  CB       -11.9590  128.8990    4.9480 C.3    77  LEU77       0.0270
     85  CG       -11.4450  129.4690    6.2700 C.3    77  LEU77       0.0019
     86  CD1      -12.4020  130.5110    6.8330 C.3    77  LEU77       0.0001
     87  CD2      -11.2130  128.3630    7.2870 C.3    77  LEU77       0.0001
     88  N        -10.6610  123.7000    1.7100 N.3    81  PHE81      -0.1241
     89  CA       -11.6450  122.6580    1.4660 C.3    81  PHE81       0.1605
     90  C        -11.5220  122.0760    0.0630 C.2    81  PHE81       0.2264
     91  O        -11.7840  120.8830   -0.1290 O.2    81  PHE81      -0.2867
     92  CB       -13.0520  123.1940    1.6970 C.3    81  PHE81       0.0534
     93  CG       -14.0680  122.1170    1.9120 C.ar   81  PHE81      -0.0203
     94  CD1      -14.1700  121.4870    3.1410 C.ar   81  PHE81      -0.0042
     95  CD2      -14.8970  121.7120    0.8830 C.ar   81  PHE81      -0.0042
     96  CE1      -15.0970  120.4870    3.3450 C.ar   81  PHE81      -0.0003
     97  CE2      -15.8270  120.7130    1.0800 C.ar   81  PHE81      -0.0003
     98  CZ       -15.9260  120.0990    2.3130 C.ar   81  PHE81      -0.0000
     99  N         -8.6650  119.7300    0.0450 N.3    84  PHE84      -0.1241
    100  CA        -9.2040  118.5460    0.7040 C.3    84  PHE84       0.1605
    101  C        -10.0100  117.6850   -0.2640 C.2    84  PHE84       0.2264
    102  O         -9.7750  116.4760   -0.3770 O.2    84  PHE84      -0.2867
    103  CB       -10.0500  118.9820    1.9010 C.3    84  PHE84       0.0534
    104  CG       -10.7520  117.8550    2.6010 C.ar   84  PHE84      -0.0203
    105  CD1      -10.0830  117.0610    3.5190 C.ar   84  PHE84      -0.0042
    106  CD2      -12.0970  117.6190    2.3670 C.ar   84  PHE84      -0.0042
    107  CE1      -10.7400  116.0340    4.1710 C.ar   84  PHE84      -0.0003
    108  CE2      -12.7580  116.5980    3.0140 C.ar   84  PHE84      -0.0003
    109  CZ       -12.0800  115.8040    3.9180 C.ar   84  PHE84      -0.0000
    110  N         -9.5410  113.8600   -1.6180 N.3    88  GLU88      -0.1245
    111  CA       -10.6060  112.8680   -1.5630 C.3    88  GLU88       0.1567
    112  C        -10.7170  112.1440   -2.8970 C.2    88  GLU88       0.2260
    113  O        -10.9340  110.9270   -2.9380 O.2    88  GLU88      -0.2867
    114  CB       -11.9290  113.5470   -1.2100 C.3    88  GLU88       0.0388
    115  CG       -12.0430  114.0160    0.2320 C.3    88  GLU88       0.1160
    116  CD       -12.5680  112.9470    1.1640 C.2    88  GLU88       0.3649
    117  OE1      -11.8050  112.0170    1.4980 O.co2  88  GLU88      -0.2457
    118  OE2      -13.7450  113.0480    1.5680 O.co2  88  GLU88      -0.2457
    119  N        -20.0380  105.9700    3.1110 N.3   209  PHE209     -0.1241
    120  CA       -19.5090  106.6790    4.2700 C.3   209  PHE209      0.1605
    121  C        -19.3420  108.1620    3.9680 C.2   209  PHE209      0.2264
    122  O        -19.5320  109.0010    4.8550 O.2   209  PHE209     -0.2867
    123  CB       -18.1840  106.0470    4.7090 C.3   209  PHE209      0.0534
    124  CG       -17.4960  106.7720    5.8370 C.ar  209  PHE209     -0.0203
    125  CD1      -17.9250  106.6060    7.1450 C.ar  209  PHE209     -0.0042
    126  CD2      -16.4020  107.5900    5.5960 C.ar  209  PHE209     -0.0042
    127  CE1      -17.2940  107.2620    8.1890 C.ar  209  PHE209     -0.0003
    128  CE2      -15.7640  108.2470    6.6350 C.ar  209  PHE209     -0.0003
    129  CZ       -16.2110  108.0820    7.9330 C.ar  209  PHE209     -0.0000
    130  N        -21.3640  111.2770    5.6900 N.3   213  VAL213     -0.1245
    131  CA       -20.6890  112.5130    6.0950 C.3   213  VAL213      0.1561
    132  C        -21.3610  113.7280    5.4630 C.2   213  VAL213      0.2260
    133  O        -21.6790  114.7090    6.1490 O.2   213  VAL213     -0.2867
    134  CB       -19.1870  112.4550    5.7500 C.3   213  VAL213      0.0252
    135  CG1      -18.5300  113.7910    6.0550 C.3   213  VAL213      0.0019
    136  CG2      -18.5050  111.3520    6.5390 C.3   213  VAL213      0.0019
    137  N        -24.7370  114.4810    7.2280 N.3   216  ILE216     -0.1231
    138  CA       -24.4720  115.0770    8.5390 C.3   216  ILE216      0.1692
    139  C        -24.0010  116.5170    8.3820 C.2   216  ILE216      0.2592
    140  O        -24.4240  117.4150    9.1220 O.2   216  ILE216     -0.2718
    141  CB       -23.4410  114.2300    9.3160 C.3   216  ILE216      0.0266
    142  CG1      -23.9620  112.8090    9.5330 C.3   216  ILE216      0.0019
    143  CG2      -23.0970  114.8730   10.6610 C.3   216  ILE216      0.0020
    144  CD1      -25.3120  112.7400   10.1950 C.3   216  ILE216      0.0001
    145  N        -23.1180  116.7560    7.4090 N.am  217  PHE217     -0.1976
    146  CA       -22.6080  118.1010    7.1570 C.3   217  PHE217      0.1639
    147  C        -23.7280  119.0530    6.7470 C.2   217  PHE217      0.2290
    148  O        -23.8270  120.1710    7.2670 O.2   217  PHE217     -0.2864
    149  CB       -21.5200  118.0410    6.0840 C.3   217  PHE217      0.0560
    150  CG       -20.6260  119.2450    6.0540 C.ar  217  PHE217     -0.0200
    151  CD1      -19.5330  119.3280    6.8940 C.ar  217  PHE217     -0.0042
    152  CD2      -20.8690  120.2870    5.1810 C.ar  217  PHE217     -0.0042
    153  CE1      -18.7050  120.4320    6.8710 C.ar  217  PHE217     -0.0003
    154  CE2      -20.0410  121.3950    5.1530 C.ar  217  PHE217     -0.0003
    155  CZ       -18.9580  121.4660    5.9990 C.ar  217  PHE217     -0.0000
    156  N        -25.8600  120.0330    9.7320 N.3   220  VAL220     -0.1231
    157  CA       -25.2240  121.0770   10.5320 C.3   220  VAL220      0.1692
    158  C        -25.4680  122.4440    9.9050 C.2   220  VAL220      0.2592
    159  O        -25.6610  123.4370   10.6170 O.2   220  VAL220     -0.2718
    160  CB       -23.7160  120.7750   10.6990 C.3   220  VAL220      0.0266
    161  CG1      -22.9740  121.9560   11.3190 C.3   220  VAL220      0.0020
    162  CG2      -23.5010  119.5110   11.5280 C.3   220  VAL220      0.0020
    163  N        -25.5100  122.5130    8.5700 N.am  221  CYS221     -0.1970
    164  CA       -25.7960  123.7790    7.9030 C.3   221  CYS221      0.1712
    165  C        -27.2570  124.1740    8.0470 C.2   221  CYS221      0.2296
    166  O        -27.5650  125.3670    8.1490 O.2   221  CYS221     -0.2864
    167  CB       -25.4160  123.6990    6.4270 C.3   221  CYS221      0.0983
    168  SG       -23.6390  123.8050    6.1290 S.3   221  CYS221     -0.0798
    169  N        -27.9080  125.4180   11.4800 N.3   224  ARG224     -0.1245
    170  CA       -27.4480  126.8000   11.5660 C.3   224  ARG224      0.1563
    171  C        -28.4350  127.7720   10.9230 C.2   224  ARG224      0.2260
    172  O        -28.6360  128.8770   11.4410 O.2   224  ARG224     -0.2867
    173  CB       -26.0680  126.9290   10.9270 C.3   224  ARG224      0.0307
    174  CG       -24.9570  126.3410   11.7750 C.3   224  ARG224      0.0489
    175  CD       -23.6170  126.4670   11.0880 C.3   224  ARG224      0.2205
    176  NE       -23.1080  127.8310   11.1590 N.pl3 224  ARG224     -0.0865
    177  CZ       -22.0800  128.2760   10.4480 C.cat 224  ARG224      0.5346
    178  NH1      -21.4550  127.4630    9.6100 N.pl3 224  ARG224      0.1354
    179  NH2      -21.6770  129.5310   10.5760 N.pl3 224  ARG224      0.1354
    180  N        -27.8710  131.8640   10.7690 N.3   229  HIS229     -0.1226
    181  CA       -26.4380  132.0970   10.9030 C.3   229  HIS229      0.1752
    182  C        -25.7340  132.5800    9.6360 C.2   229  HIS229      0.2596
    183  O        -24.6500  133.1630    9.7470 O.2   229  HIS229     -0.2718
    184  CB       -25.7510  130.8190   11.3900 C.3   229  HIS229      0.0759
    185  CG       -25.5070  130.7980   12.8660 C.ar  229  HIS229      0.0818
    186  ND1      -26.5160  130.9550   13.7890 N.ar  229  HIS229     -0.2268
    187  CD2      -24.3690  130.6320   13.5790 C.ar  229  HIS229      0.1154
    188  CE1      -26.0090  130.8980   15.0080 C.ar  229  HIS229      0.1986
    189  NE2      -24.7080  130.6980   14.9090 N.ar  229  HIS229     -0.2212
    190  N        -26.3040  132.3880    8.4490 N.am  230  PHE230     -0.1962
    191  CA       -25.6060  132.7430    7.2190 C.3   230  PHE230      0.1771
    192  C        -26.0970  134.0790    6.6680 C.2   230  PHE230      0.2620
    193  O        -27.2140  134.5220    6.9440 O.2   230  PHE230     -0.2715
    194  CB       -25.7770  131.6700    6.1380 C.3   230  PHE230      0.0574
    195  CG       -25.3190  130.3010    6.5480 C.ar  230  PHE230     -0.0200
    196  CD1      -23.9950  130.0690    6.8770 C.ar  230  PHE230     -0.0042
    197  CD2      -26.2040  129.2340    6.5420 C.ar  230  PHE230     -0.0042
    198  CE1      -23.5680  128.8030    7.2380 C.ar  230  PHE230     -0.0003
    199  CE2      -25.7850  127.9690    6.8960 C.ar  230  PHE230     -0.0003
    200  CZ       -24.4650  127.7510    7.2450 C.ar  230  PHE230     -0.0000
    201  N        -25.2380  134.7190    5.8820 N.am  231  THR231     -0.1951
    202  CA       -25.5680  135.8750    5.0640 C.3   231  THR231      0.1897
    203  C        -25.1550  135.6000    3.6270 C.2   231  THR231      0.2313
    204  O        -24.3660  134.6840    3.3670 O.2   231  THR231     -0.2863
    205  CB       -24.8640  137.1430    5.5770 C.3   231  THR231      0.1794
    206  OG1      -23.4460  136.9780    5.4700 O.3   231  THR231     -0.2208
    207  CG2      -25.2400  137.4240    7.0260 C.3   231  THR231      0.0378
    208  N        -21.2670  135.9370    3.7100 N.3   234  LYS234     -0.1231
    209  CA       -20.4970  135.1260    4.6510 C.3   234  LYS234      0.1693
    210  C        -21.1940  133.7820    4.8550 C.2   234  LYS234      0.2592
    211  O        -22.1120  133.6750    5.6750 O.2   234  LYS234     -0.2718
    212  CB       -20.3380  135.8790    5.9690 C.3   234  LYS234      0.0285
    213  CG       -19.0960  135.5350    6.7600 C.3   234  LYS234      0.0035
    214  CD       -19.4450  135.1920    8.1900 C.3   234  LYS234      0.0206
    215  CE       -19.9460  136.4200    8.9260 C.3   234  LYS234      0.1093
    216  NZ       -20.4230  136.1070   10.3000 N.3   234  LYS234     -0.1314
    217  N        -20.7540  132.7580    4.1210 N.am  235  HIS235     -0.1962
    218  CA       -21.3350  131.4270    4.2510 C.3   235  HIS235      0.1787
    219  C        -20.3670  130.3430    3.7810 C.2   235  HIS235      0.2620
    220  O        -20.7190  129.5070    2.9420 O.2   235  HIS235     -0.2715
    221  CB       -22.6680  131.3440    3.4940 C.3   235  HIS235      0.0785
    222  CG       -22.5550  131.6110    2.0240 C.ar  235  HIS235      0.0821
    223  ND1      -22.3700  132.8760    1.5070 N.ar  235  HIS235     -0.2267
    224  CD2      -22.6120  130.7760    0.9600 C.ar  235  HIS235      0.1154
    225  CE1      -22.3090  132.8060    0.1890 C.ar  235  HIS235      0.1986
    226  NE2      -22.4520  131.5420   -0.1680 N.ar  235  HIS235     -0.2212
    227  N        -19.1430  130.3530    4.3210 N.am  236  VAL236     -0.1963
    228  CA       -18.1220  129.3950    3.8970 C.3   236  VAL236      0.1727
    229  C        -18.5240  127.9700    4.2630 C.2   236  VAL236      0.2616
    230  O        -18.3830  127.0450    3.4530 O.2   236  VAL236     -0.2715
    231  CB       -16.7560  129.7730    4.5000 C.3   236  VAL236      0.0290
    232  CG1      -15.6440  128.9270    3.8900 C.3   236  VAL236      0.0023
    233  CG2      -16.4830  131.2440    4.2780 C.3   236  VAL236      0.0023
    234  N        -19.0130  127.7660    5.4910 N.am  237  GLY237     -0.1955
    235  CA       -19.5070  126.4490    5.8740 C.3   237  GLY237      0.1869
    236  C        -20.6120  125.9630    4.9570 C.2   237  GLY237      0.2309
    237  O        -20.6110  124.8130    4.5130 O.2   237  GLY237     -0.2863
    238  N        -19.0080  125.0670    1.4590 N.3   240  ALA240     -0.1245
    239  CA       -18.3330  123.7780    1.4120 C.3   240  ALA240      0.1562
    240  C        -19.3030  122.6070    1.5070 C.2   240  ALA240      0.2260
    241  O        -18.9630  121.5030    1.0710 O.2   240  ALA240     -0.2867
    242  CB       -17.2890  123.6940    2.5260 C.3   240  ALA240      0.0290
    243  N        -18.9150  119.7690   -1.2050 N.3   244  TYR244     -0.1241
    244  CA       -18.7470  118.3880   -0.7620 C.3   244  TYR244      0.1605
    245  C        -19.8620  117.5020   -1.3000 C.2   244  TYR244      0.2264
    246  O        -19.6140  116.3910   -1.7840 O.2   244  TYR244     -0.2867
    247  CB       -18.7030  118.3370    0.7660 C.3   244  TYR244      0.0534
    248  CG       -18.1670  117.0430    1.3380 C.ar  244  TYR244     -0.0201
    249  CD1      -16.7990  116.8010    1.3900 C.ar  244  TYR244     -0.0009
    250  CD2      -19.0240  116.0740    1.8440 C.ar  244  TYR244     -0.0009
    251  CE1      -16.2990  115.6240    1.9170 C.ar  244  TYR244      0.0417
    252  CE2      -18.5350  114.8940    2.3730 C.ar  244  TYR244      0.0417
    253  CZ       -17.1720  114.6740    2.4080 C.ar  244  TYR244      0.1957
    254  OH       -16.6910  113.4980    2.9360 O.3   244  TYR244     -0.2866
@<TRIPOS>BOND
     1   113   112    2
     2   112   111    1
     3   246   245    2
     4   110   111    1
     5   111   114    1
     6   245   244    1
     7   114   115    1
     8   243   244    1
     9   244   247    1
    10   102   101    2
    11   101   100    1
    12   226   225   ar
    13   226   224   ar
    14    91    90    2
    15    99   100    1
    16    90    89    1
    17   225   223   ar
    18   115   116    1
    19   100   103    1
    20   247   248    1
    21    95    97   ar
    22    95    93   ar
    23   224   222   ar
    24   241   240    2
    25    97    98   ar
    26   116   117   ar
    27   116   118   ar
    28   248   249   ar
    29   248   250   ar
    30   249   251   ar
    31   239   238    1
    32   239   240    1
    33   239   242    1
    34    89    92    1
    35    89    88    1
    36   223   222   ar
    37    92    93    1
    38   250   252   ar
    39   103   104    1
    40    93    94   ar
    41   251   253   ar
    42   222   221    1
    43    98    96   ar
    44   106   104   ar
    45   106   108   ar
    46   252   253   ar
    47   253   254    1
    48   104   105   ar
    49    82    83    2
    50    82    81    1
    51   220   219    2
    52   108   109   ar
    53   119   120    1
    54    94    96   ar
    55   204   203    2
    56   230   229    2
    57   221   218    1
    58   105   107   ar
    59    80    81    1
    60   203   202    1
    61   208   209    1
    62   219   218    1
    63   219   227   am
    64   232   231    1
    65   228   229    1
    66   228   227    1
    67   228   231    1
    68   109   107   ar
    69    81    84    1
    70   121   120    1
    71   121   122    2
    72   217   218    1
    73   217   210   am
    74   229   234   am
    75   120   123    1
    76   233   231    1
    77   237   236    2
    78   209   210    1
    79   209   212    1
    80   123   124    1
    81   210   211    2
    82    84    85    1
    83   236   235    1
    84   202   205    1
    85   202   201    1
    86   154   152   ar
    87   154   155   ar
    88   152   150   ar
    89   132   131    1
    90   132   133    2
    91   206   205    1
    92   234   235    1
    93   205   207    1
    94   126   124   ar
    95   126   128   ar
    96   130   131    1
    97   134   135    1
    98   134   131    1
    99   134   136    1
   100   124   125   ar
   101   201   192   am
   102   212   213    1
   103   155   153   ar
   104   150   149    1
   105   150   151   ar
   106   149   146    1
   107   168   167    1
   108   194   195    1
   109   194   191    1
   110    85    86    1
   111    85    87    1
   112   167   164    1
   113   197   195   ar
   114   197   199   ar
   115   195   196   ar
   116   128   129   ar
   117   192   193    2
   118   192   191    1
   119   147   146    1
   120   147   148    2
   121   213   214    1
   122   153   151   ar
   123   196   198   ar
   124   199   200   ar
   125   125   127   ar
   126   146   145    1
   127   191   190    1
   128   137   138    1
   129   198   200   ar
   130   145   139   am
   131    73    72    2
   132   164   165    1
   133   164   163    1
   134   129   127   ar
   135    72    71    1
   136   165   166    2
   137   214   215    1
   138   139   138    1
   139   139   140    2
   140   190   182   am
   141   138   141    1
   142   163   158   am
   143    74    71    1
   144    74    75    1
   145    76    75   ar
   146    76    78   ar
   147    71    70    1
   148   215   216    1
   149    75    77   ar
   150   141   142    1
   151   141   143    1
   152    78    79   ar
   153   142   144    1
   154   178   177    1
   155   182   183    2
   156   182   181    1
   157   156   157    1
   158   158   157    1
   159   158   159    2
   160    61    60    1
   161    77    79   ar
   162   177   179    1
   163   177   176    2
   164   157   160    1
   165   160   161    1
   166   160   162    1
   167    39    41   ar
   168    39    37   ar
   169   180   181    1
   170   181   184    1
   171   171   172    2
   172   171   170    1
   173   173   170    1
   174   173   174    1
   175    36    37   ar
   176    36    34   ar
   177   175   176    1
   178   175   174    1
   179    41    40   ar
   180    60    57    1
   181    47    46    1
   182    37    35   ar
   183   184   185    1
   184   169   170    1
   185    34    33   ar
   186    59    58    2
   187    57    58    1
   188    57    56    1
   189    40    38   ar
   190    45    44    2
   191    35    33   ar
   192    35    38   ar
   193    46    48    1
   194    46    43    1
   195    58    62   am
   196    33    32    1
   197   185   187   ar
   198   185   186   ar
   199    44    43    1
   200    44    49   am
   201    55    53    1
   202    15    16    1
   203    15    14    1
   204   187   189   ar
   205    43    42    1
   206    32    29    1
   207    62    63    1
   208   186   188   ar
   209    69    67    1
   210    54    53    1
   211    50    49    1
   212    50    53    1
   213    50    51    1
   214    63    64    1
   215    63    66    1
   216    52    51    2
   217    31    30    2
   218    29    30    1
   219    29    28    1
   220    67    66    1
   221    67    68    1
   222    14    13    1
   223   189   188   ar
   224    64    65    2
   225    13    10    1
   226     8     6    1
   227    12    11    2
   228    10    11    1
   229    10     9    1
   230    11    17   am
   231     6     7    1
   232     6     5    1
   233    17    18    1
   234    18    19    1
   235    18    21    1
   236     5     2    1
   237    20    19    2
   238     2     1    1
   239     2     3    1
   240     4     3    2
   241    24    26   ar
   242    24    22   ar
   243    26    27   ar
   244    21    22    1
   245    22    23   ar
   246    27    25   ar
   247    23    25   ar
