@<TRIPOS>MOLECULE
tmp/5weiA00.pdb
 133 127 0 0 0
SMALL
GASTEIGER

@<TRIPOS>ATOM
      1  N        133.3760  190.4260  273.1750 N.3    28  TYR28      -0.1241
      2  CA       133.0030  189.1200  273.6930 C.3    28  TYR28       0.1605
      3  C        132.0860  188.3720  272.7280 C.2    28  TYR28       0.2264
      4  O        131.3700  187.4540  273.1410 O.2    28  TYR28      -0.2867
      5  CB       132.3520  189.2620  275.0740 C.3    28  TYR28       0.0534
      6  CG       133.2810  189.7930  276.1620 C.ar   28  TYR28      -0.0201
      7  CD1      133.7890  191.0890  276.1080 C.ar   28  TYR28      -0.0009
      8  CD2      133.6470  188.9980  277.2440 C.ar   28  TYR28      -0.0009
      9  CE1      134.6370  191.5750  277.0980 C.ar   28  TYR28       0.0417
     10  CE2      134.4940  189.4760  278.2380 C.ar   28  TYR28       0.0417
     11  CZ       134.9870  190.7650  278.1590 C.ar   28  TYR28       0.1957
     12  OH       135.8260  191.2450  279.1440 O.3    28  TYR28      -0.2866
     13  N        120.2480  192.5200  276.1720 N.3    38  LYS38      -0.1245
     14  CA       121.6190  192.6890  276.6300 C.3    38  LYS38       0.1561
     15  C        122.2280  193.9920  276.1340 C.2    38  LYS38       0.2260
     16  O        122.9300  194.6690  276.8910 O.2    38  LYS38      -0.2867
     17  CB       122.4730  191.5020  276.1710 C.3    38  LYS38       0.0271
     18  CG       123.7720  191.3600  276.9070 C.3    38  LYS38       0.0035
     19  CD       124.0610  189.9130  277.2290 C.3    38  LYS38       0.0206
     20  CE       125.5450  189.6750  277.3450 C.3    38  LYS38       0.1093
     21  NZ       126.1160  190.1690  278.6340 N.3    38  LYS38      -0.1314
     22  N        120.8830  196.5670  278.3740 N.3    41  ALA41      -0.1231
     23  CA       121.4400  196.5190  279.7230 C.3    41  ALA41       0.1694
     24  C        122.8710  197.0370  279.7490 C.2    41  ALA41       0.2591
     25  O        123.2670  197.7410  280.6860 O.2    41  ALA41      -0.2718
     26  CB       121.3680  195.0930  280.2730 C.3    41  ALA41       0.0304
     27  N        123.6580  196.7220  278.7200 N.am   42  ILE42      -0.1980
     28  CA       125.0400  197.1850  278.6980 C.3    42  ILE42       0.1595
     29  C        125.0950  198.7010  278.5720 C.2    42  ILE42       0.2287
     30  O        125.9150  199.3590  279.2240 O.2    42  ILE42      -0.2864
     31  CB       125.8220  196.4890  277.5700 C.3    42  ILE42       0.0276
     32  CG1      126.0980  195.0430  277.9620 C.3    42  ILE42       0.0022
     33  CG2      127.1410  197.2030  277.3160 C.3    42  ILE42       0.0022
     34  CD1      126.1510  194.1030  276.7990 C.3    42  ILE42       0.0001
     35  N        124.1510  200.0290  282.0560 N.3    45  HIS45      -0.1241
     36  CA       125.2580  199.8630  282.9910 C.3    45  HIS45       0.1621
     37  C        126.3510  200.8890  282.7160 C.2    45  HIS45       0.2264
     38  O        126.9140  201.4760  283.6480 O.2    45  HIS45      -0.2867
     39  CB       125.8000  198.4330  282.8820 C.3    45  HIS45       0.0745
     40  CG       127.0250  198.1770  283.6990 C.ar   45  HIS45       0.0817
     41  ND1      128.3030  198.3450  283.2030 N.ar   45  HIS45      -0.2268
     42  CD2      127.1680  197.7250  284.9670 C.ar   45  HIS45       0.1154
     43  CE1      129.1770  198.0380  284.1460 C.ar   45  HIS45       0.1986
     44  NE2      128.5150  197.6550  285.2240 N.ar   45  HIS45      -0.2212
     45  N        135.4230  200.5310  283.5900 N.3    65  GLU65      -0.1245
     46  CA       134.3880  200.1370  282.6480 C.3    65  GLU65       0.1567
     47  C        134.4520  201.0160  281.4040 C.2    65  GLU65       0.2260
     48  O        134.7830  202.2040  281.4720 O.2    65  GLU65      -0.2867
     49  CB       133.0100  200.2350  283.3140 C.3    65  GLU65       0.0388
     50  CG       131.8240  199.8770  282.4230 C.3    65  GLU65       0.1160
     51  CD       131.8630  198.4420  281.9150 C.2    65  GLU65       0.3649
     52  OE1      132.5590  197.5930  282.5140 O.co2  65  GLU65      -0.2457
     53  OE2      131.1980  198.1660  280.8950 O.co2  65  GLU65      -0.2457
     54  N        137.0830  191.9540  286.5840 N.3    91  LEU91      -0.1231
     55  CA       137.2230  193.3700  286.2700 C.3    91  LEU91       0.1678
     56  C        136.2300  194.2230  287.0530 C.2    91  LEU91       0.2434
     57  O        135.0160  194.0110  286.9310 O.2    91  LEU91      -0.2733
     58  CB       137.0090  193.5890  284.7800 C.3    91  LEU91       0.0284
     59  CG       138.2290  193.8400  283.9030 C.3    91  LEU91       0.0019
     60  CD1      137.7610  194.2470  282.5150 C.3    91  LEU91       0.0001
     61  CD2      139.1350  194.9030  284.5120 C.3    91  LEU91       0.0001
     62  N        136.6860  195.1920  287.8350 N.am   92  PRO92      -0.2718
     63  CA       135.7720  196.1480  288.4640 C.3    92  PRO92       0.1535
     64  C        135.3780  197.2290  287.4600 C.2    92  PRO92       0.2598
     65  O        135.7350  197.1760  286.2840 O.2    92  PRO92      -0.2715
     66  CB       136.6090  196.7120  289.6110 C.3    92  PRO92       0.0310
     67  CG       138.0050  196.6920  289.0590 C.3    92  PRO92       0.0237
     68  CD       138.0940  195.4800  288.1590 C.3    92  PRO92       0.0939
     69  N        134.6360  198.2240  287.9500 N.am   93  ASP93      -0.1972
     70  CA       134.1240  199.3340  287.1460 C.3    93  ASP93       0.1709
     71  C        134.8460  200.6430  287.4140 C.2    93  ASP93       0.2293
     72  O        135.1110  201.4070  286.4810 O.2    93  ASP93      -0.2864
     73  CB       132.6330  199.5140  287.4270 C.3    93  ASP93       0.1436
     74  CG       131.8110  198.3810  286.8740 C.2    93  ASP93       0.3671
     75  OD1      130.6540  198.1880  287.3240 O.co2  93  ASP93      -0.2456
     76  OD2      132.3010  197.7440  285.9240 O.co2  93  ASP93      -0.2456
     77  N        132.4290  197.6170  291.9500 N.3   104  ASP104     -0.1225
     78  CA       131.6270  196.9960  290.9090 C.3   104  ASP104      0.1805
     79  C        130.2030  197.4930  291.0880 C.2   104  ASP104      0.2598
     80  O        129.5630  197.2030  292.1040 O.2   104  ASP104     -0.2718
     81  CB       131.6820  195.4680  290.9800 C.3   104  ASP104      0.1424
     82  CG       131.1540  194.7990  289.7050 C.2   104  ASP104      0.3668
     83  OD1      130.3360  195.4110  288.9750 O.co2 104  ASP104     -0.2456
     84  OD2      131.5610  193.6500  289.4270 O.co2 104  ASP104     -0.2456
     85  N        129.7210  198.2460  290.1120 N.am  105  ILE105     -0.1966
     86  CA       128.3620  198.7670  290.1000 C.3   105  ILE105      0.1727
     87  C        127.4760  197.7800  289.3660 C.2   105  ILE105      0.2617
     88  O        127.8740  197.2280  288.3320 O.2   105  ILE105     -0.2715
     89  CB       128.3160  200.1500  289.4350 C.3   105  ILE105      0.0290
     90  CG1      129.1850  201.1180  290.2290 C.3   105  ILE105      0.0022
     91  CG2      126.8890  200.6470  289.3200 C.3   105  ILE105      0.0023
     92  CD1      129.2310  202.4770  289.6490 C.3   105  ILE105      0.0001
     93  N        126.2880  197.5300  289.9050 N.am  106  GLY106     -0.1940
     94  CA       125.3430  196.6180  289.3000 C.3   106  GLY106      0.2014
     95  C        124.0160  197.3100  289.0620 C.2   106  GLY106      0.2638
     96  O        123.6220  198.2080  289.8120 O.2   106  GLY106     -0.2714
     97  N        123.3330  196.8860  288.0070 N.am  107  VAL107     -0.1977
     98  CA       121.9820  197.3410  287.7080 C.3   107  VAL107      0.1596
     99  C        121.1340  196.1010  287.4840 C.2   107  VAL107      0.2287
    100  O        121.4950  195.2410  286.6740 O.2   107  VAL107     -0.2864
    101  CB       121.9360  198.2560  286.4700 C.3   107  VAL107      0.0276
    102  CG1      120.5150  198.7230  286.2330 C.3   107  VAL107      0.0022
    103  CG2      122.8790  199.4370  286.6320 C.3   107  VAL107      0.0022
    104  N        120.3800  190.1520  293.7350 N.3   115  TYR115     -0.1241
    105  CA       121.4830  190.4330  292.8230 C.3   115  TYR115      0.1605
    106  C        122.8010  190.6440  293.5650 C.2   115  TYR115      0.2264
    107  O        123.8530  190.1930  293.0980 O.2   115  TYR115     -0.2867
    108  CB       121.1560  191.6580  291.9660 C.3   115  TYR115      0.0534
    109  CG       122.1170  191.8990  290.8110 C.ar  115  TYR115     -0.0201
    110  CD1      122.1270  191.0650  289.7000 C.ar  115  TYR115     -0.0009
    111  CD2      122.9990  192.9760  290.8230 C.ar  115  TYR115     -0.0009
    112  CE1      123.0000  191.2860  288.6360 C.ar  115  TYR115      0.0417
    113  CE2      123.8720  193.2080  289.7630 C.ar  115  TYR115      0.0417
    114  CZ       123.8700  192.3600  288.6740 C.ar  115  TYR115      0.1957
    115  OH       124.7400  192.5870  287.6240 O.3   115  TYR115     -0.2866
    116  N        126.3860  188.5480  293.0860 N.3   119  LYS119     -0.1245
    117  CA       127.5990  189.2950  292.7590 C.3   119  LYS119      0.1561
    118  C        128.6460  189.1680  293.8560 C.2   119  LYS119      0.2260
    119  O        129.8470  189.1990  293.5680 O.2   119  LYS119     -0.2867
    120  CB       127.2810  190.7730  292.5100 C.3   119  LYS119      0.0271
    121  CG       126.5220  191.0690  291.2590 C.3   119  LYS119      0.0035
    122  CD       127.3590  190.8260  290.0190 C.3   119  LYS119      0.0206
    123  CE       128.5330  191.7870  289.9050 C.3   119  LYS119      0.1093
    124  NZ       129.1490  191.6590  288.5490 N.3   119  LYS119     -0.1314
    125  N        130.1670  185.4460  293.4690 N.3   122  LYS122     -0.1245
    126  CA       130.8750  185.3040  292.1990 C.3   122  LYS122      0.1561
    127  C        132.2300  185.9940  292.2550 C.2   122  LYS122      0.2260
    128  O        133.2450  185.4370  291.8230 O.2   122  LYS122     -0.2867
    129  CB       130.0300  185.8660  291.0540 C.3   122  LYS122      0.0271
    130  CG       130.6780  185.5580  289.6820 C.3   122  LYS122      0.0035
    131  CD       129.8060  186.1150  288.5650 C.3   122  LYS122      0.0206
    132  CE       130.0780  187.6230  288.4960 C.3   122  LYS122      0.1093
    133  NZ       129.2460  188.1830  287.3810 N.3   122  LYS122     -0.1314
@<TRIPOS>BOND
     1     3     4    2
     2     3     2    1
     3     1     2    1
     4     2     5    1
     5     5     6    1
     6     7     6   ar
     7     7     9   ar
     8    15    14    1
     9    15    16    2
    10     6     8   ar
    11    17    14    1
    12    17    18    1
    13    13    14    1
    14    34    32    1
    15    18    19    1
    16     9    11   ar
    17    19    20    1
    18     8    10   ar
    19    33    31    1
    20    20    21    1
    21    31    32    1
    22    31    28    1
    23    11    10   ar
    24    11    12    1
    25    22    23    1
    26    29    28    1
    27    29    30    2
    28    28    27    1
    29    27    24   am
    30    23    24    1
    31    23    26    1
    32    24    25    2
    33    53    51   ar
    34    47    48    2
    35    47    46    1
    36    51    50    1
    37    51    52   ar
    38    35    36    1
    39    50    49    1
    40    60    59    1
    41    46    49    1
    42    46    45    1
    43    37    36    1
    44    37    38    2
    45    39    36    1
    46    39    40    1
    47    41    40   ar
    48    41    43   ar
    49    40    42   ar
    50    59    61    1
    51    59    58    1
    52    43    44   ar
    53    58    55    1
    54    42    44   ar
    55    76    74   ar
    56   102   101    1
    57    55    54    1
    58    55    56    1
    59    65    64    2
    60   101   103    1
    61   101    98    1
    62    72    71    2
    63   100    99    2
    64    74    75   ar
    65    74    73    1
    66    57    56    2
    67    56    62   am
    68    70    71    1
    69    70    73    1
    70    70    69    1
    71   133   132    1
    72    64    69   am
    73    64    63    1
    74    99    98    1
    75   115   114    1
    76    98    97    1
    77    62    68    1
    78    62    63    1
    79    97    95   am
    80    68    67    1
    81    88    87    2
    82    63    66    1
    83   132   131    1
    84   124   123    1
    85   131   130    1
    86   112   114   ar
    87   112   110   ar
    88   114   113   ar
    89    83    82   ar
    90    67    66    1
    91    95    94    1
    92    95    96    2
    93    94    93    1
    94    91    89    1
    95    87    93   am
    96    87    86    1
    97    84    82   ar
    98    89    86    1
    99    89    90    1
   100    92    90    1
   101   130   129    1
   102   110   109   ar
   103    82    81    1
   104   113   111   ar
   105   123   122    1
   106   122   121    1
   107    86    85    1
   108    85    79   am
   109   109   111   ar
   110   109   108    1
   111    78    81    1
   112    78    79    1
   113    78    77    1
   114   129   126    1
   115    79    80    2
   116   121   120    1
   117   128   127    2
   118   108   105    1
   119   126   127    1
   120   126   125    1
   121   120   117    1
   122   117   116    1
   123   117   118    1
   124   105   106    1
   125   105   104    1
   126   107   106    2
   127   119   118    2
