@<TRIPOS>MOLECULE
tmp/5wejA00.pdb
 131 125 0 0 0
SMALL
GASTEIGER

@<TRIPOS>ATOM
      1  N         11.3890   23.9270   -8.1070 N.3    14  SER14      -0.1217
      2  CA        12.2170   23.0150   -8.8790 C.3    14  SER14       0.1889
      3  C         11.4720   22.4490  -10.0910 C.2    14  SER14       0.2288
      4  O         11.8630   21.4050  -10.6190 O.2    14  SER14      -0.2866
      5  CB        12.7290   21.8820   -7.9880 C.3    14  SER14       0.2089
      6  OG        11.6450   21.2040   -7.3730 O.3    14  SER14      -0.2183
      7  N          5.7200   18.6940   -4.3850 N.3    30  HIS30      -0.1226
      8  CA         7.1330   18.5280   -4.0960 C.3    30  HIS30       0.1752
      9  C          8.0340   19.5020   -4.8320 C.2    30  HIS30       0.2595
     10  O          9.2140   19.5780   -4.4760 O.2    30  HIS30      -0.2718
     11  CB         7.6000   17.0980   -4.3670 C.3    30  HIS30       0.0759
     12  CG         7.7770   16.7640   -5.8070 C.ar   30  HIS30       0.0818
     13  ND1        6.7820   16.1690   -6.5490 N.ar   30  HIS30      -0.2268
     14  CD2        8.8470   16.8840   -6.6340 C.ar   30  HIS30       0.1154
     15  CE1        7.2150   15.9740   -7.7880 C.ar   30  HIS30       0.1986
     16  NE2        8.4680   16.3900   -7.8650 N.ar   30  HIS30      -0.2212
     17  N          7.5310   20.2950   -5.7940 N.am   31  VAL31      -0.1980
     18  CA         8.3950   21.3220   -6.4050 C.3    31  VAL31       0.1595
     19  C          8.2670   22.6620   -5.6840 C.2    31  VAL31       0.2287
     20  O          9.0580   23.5740   -5.9550 O.2    31  VAL31      -0.2864
     21  CB         8.1330   21.5490   -7.9150 C.3    31  VAL31       0.0276
     22  CG1        8.1290   20.2190   -8.7100 C.3    31  VAL31       0.0022
     23  CG2        6.8790   22.3230   -8.1900 C.3    31  VAL31       0.0022
     24  N         -0.0750   15.6220   -3.5340 N.3    54  GLU54      -0.1245
     25  CA         0.8780   16.2290   -4.4550 C.3    54  GLU54       0.1567
     26  C          0.2800   17.3730   -5.2630 C.2    54  GLU54       0.2260
     27  O          0.9460   17.8860   -6.1660 O.2    54  GLU54      -0.2867
     28  CB         1.4540   15.1590   -5.3880 C.3    54  GLU54       0.0388
     29  CG         2.6860   14.4270   -4.8230 C.3    54  GLU54       0.1160
     30  CD         3.7590   15.3690   -4.2570 C.2    54  GLU54       0.3649
     31  OE1        4.0300   15.3160   -3.0280 O.co2  54  GLU54      -0.2457
     32  OE2        4.3170   16.1870   -5.0230 O.co2  54  GLU54      -0.2457
     33  N          7.8720    3.9620   -7.0450 N.3   109  ILE109     -0.1231
     34  CA         8.8400    4.3870   -8.0480 C.3   109  ILE109      0.1692
     35  C         10.1710    4.5930   -7.3330 C.2   109  ILE109      0.2591
     36  O         10.2240    5.2700   -6.3000 O.2   109  ILE109     -0.2718
     37  CB         8.3760    5.6670   -8.7780 C.3   109  ILE109      0.0266
     38  CG1        7.0210    5.4200   -9.4640 C.3   109  ILE109      0.0019
     39  CG2        9.4180    6.1010   -9.7910 C.3   109  ILE109      0.0020
     40  CD1        6.4140    6.6150  -10.2330 C.3   109  ILE109      0.0001
     41  N         11.2320    3.9910   -7.8720 N.am  110  GLN110     -0.1979
     42  CA        12.5590    3.9990   -7.2460 C.3   110  GLN110      0.1601
     43  C         12.5350    3.3890   -5.8370 C.2   110  GLN110      0.2287
     44  O         11.8350    3.8610   -4.9370 O.2   110  GLN110     -0.2864
     45  CB        13.1260    5.4250   -7.1890 C.3   110  GLN110      0.0394
     46  CG        13.4150    6.0860   -8.5350 C.3   110  GLN110      0.0908
     47  CD        14.3810    5.2880   -9.3720 C.2   110  GLN110      0.2608
     48  OE1       15.4690    4.9380   -8.8730 O.2   110  GLN110     -0.2717
     49  NE2       13.9910    4.8910  -10.5420 N.am  110  GLN110     -0.0878
     50  N          9.6090    4.5430   -3.3340 N.3   111  ARG111     -0.1245
     51  CA         8.7180    5.5570   -2.7740 C.3   111  ARG111      0.1563
     52  C          7.3150    5.4300   -3.3750 C.2   111  ARG111      0.2260
     53  O          7.1870    5.2250   -4.5710 O.2   111  ARG111     -0.2867
     54  CB         9.2800    6.9570   -3.0290 C.3   111  ARG111      0.0307
     55  CG        10.5550    7.0930   -2.1890 C.3   111  ARG111      0.0489
     56  CD        11.2190    8.4330   -2.3750 C.3   111  ARG111      0.2205
     57  NE        11.7060    8.5520   -3.7660 N.pl3 111  ARG111     -0.0865
     58  CZ        10.9260    9.2950   -4.5360 C.cat 111  ARG111      0.5346
     59  NH1        9.8170    9.7340   -3.9600 N.pl3 111  ARG111      0.1354
     60  NH2       11.1680    9.3590   -5.7880 N.pl3 111  ARG111      0.1354
     61  N          3.6960    6.8480   -4.6540 N.3   113  VAL113     -0.1245
     62  CA         3.1530    8.0680   -5.2490 C.3   113  VAL113      0.1561
     63  C          1.6620    7.8520   -5.4730 C.2   113  VAL113      0.2260
     64  O          1.2300    6.7370   -5.7700 O.2   113  VAL113     -0.2867
     65  CB         3.8660    8.4410   -6.5790 C.3   113  VAL113      0.0252
     66  CG1        5.3880    8.4470   -6.4010 C.3   113  VAL113      0.0019
     67  CG2        3.4880    7.4790   -7.7040 C.3   113  VAL113      0.0019
     68  N          8.8000   12.4150  -20.1910 N.3   133  THR133     -0.1203
     69  CA         9.0100   13.3970  -19.1360 C.3   133  THR133      0.1994
     70  C         10.2950   13.0870  -18.3790 C.2   133  THR133      0.2618
     71  O         10.7060   11.9270  -18.2490 O.2   133  THR133     -0.2717
     72  CB         7.8270   13.3950  -18.1680 C.3   133  THR133      0.1784
     73  OG1        7.6250   12.0760  -17.6660 O.3   133  THR133     -0.2211
     74  CG2        6.6060   13.7850  -18.8790 C.3   133  THR133      0.0376
     75  N         10.9340   14.1390  -17.8810 N.am  134  ILE134     -0.1966
     76  CA        12.2400   14.0110  -17.2320 C.3   134  ILE134      0.1712
     77  C         12.2670   14.8150  -15.9370 C.2   134  ILE134      0.2458
     78  O         11.3390   15.6010  -15.6740 O.2   134  ILE134     -0.2730
     79  CB        13.3550   14.4520  -18.1910 C.3   134  ILE134      0.0289
     80  CG1       13.2670   15.9720  -18.4590 C.3   134  ILE134      0.0022
     81  CG2       13.2460   13.6550  -19.4900 C.3   134  ILE134      0.0023
     82  CD1       14.3490   16.5010  -19.3770 C.3   134  ILE134      0.0001
     83  N         13.2830   14.6290  -15.0880 N.am  135  PRO135     -0.2716
     84  CA        13.4180   15.4910  -13.9090 C.3   135  PRO135      0.1536
     85  C         13.4240   16.9470  -14.3390 C.2   135  PRO135      0.2599
     86  O         14.0560   17.3050  -15.3300 O.2   135  PRO135     -0.2715
     87  CB        14.7640   15.0680  -13.3080 C.3   135  PRO135      0.0310
     88  CG        14.9700   13.6520  -13.8120 C.3   135  PRO135      0.0237
     89  CD        14.3970   13.6770  -15.2020 C.3   135  PRO135      0.0939
     90  N         12.7080   17.7840  -13.5880 N.am  136  GLY136     -0.1955
     91  CA        12.5010   19.1710  -13.9340 C.3   136  GLY136      0.1869
     92  C         11.1430   19.4760  -14.5230 C.2   136  GLY136      0.2309
     93  O         10.7420   20.6410  -14.5220 O.2   136  GLY136     -0.2863
     94  N          8.1320   18.4590  -13.4690 N.3   138  CYS138     -0.1235
     95  CA         6.9850   18.3900  -12.5920 C.3   138  CYS138      0.1677
     96  C          6.3160   19.7500  -12.4570 C.2   138  CYS138      0.2270
     97  O          6.9700   20.8040  -12.5260 O.2   138  CYS138     -0.2867
     98  CB         7.3720   17.8650  -11.2210 C.3   138  CYS138      0.0956
     99  SG         7.5230   16.0690  -11.2380 S.3   138  CYS138     -0.0801
    100  N          1.8550   17.4530  -13.5920 N.3   156  HIS156     -0.1226
    101  CA         2.7690   16.3300  -13.6920 C.3   156  HIS156      0.1752
    102  C          3.5050   16.0750  -12.3730 C.2   156  HIS156      0.2596
    103  O          4.0770   16.9930  -11.7950 O.2   156  HIS156     -0.2718
    104  CB         3.7990   16.5750  -14.8130 C.3   156  HIS156      0.0759
    105  CG         4.6240   15.3670  -15.0680 C.ar  156  HIS156      0.0818
    106  ND1        4.0610   14.1920  -15.5120 N.ar  156  HIS156     -0.2268
    107  CD2        5.9260   15.1000  -14.8250 C.ar  156  HIS156      0.1154
    108  CE1        4.9970   13.2600  -15.5740 C.ar  156  HIS156      0.1986
    109  NE2        6.1350   13.7810  -15.1420 N.ar  156  HIS156     -0.2212
    110  N          3.5410   14.8020  -11.9260 N.am  157  ALA157     -0.1966
    111  CA         4.1980   14.4290  -10.6820 C.3   157  ALA157      0.1728
    112  C          5.2360   13.3250  -10.8070 C.2   157  ALA157      0.2616
    113  O          6.1770   13.2990  -10.0190 O.2   157  ALA157     -0.2715
    114  CB         3.1710   13.9790   -9.6490 C.3   157  ALA157      0.0334
    115  N          5.0980   12.4010  -11.7550 N.am  158  ALA158     -0.1963
    116  CA         6.0120   11.2600  -11.7430 C.3   158  ALA158      0.1728
    117  C          5.8980   10.4750  -13.0410 C.2   158  ALA158      0.2616
    118  O          4.9390   10.6170  -13.8030 O.2   158  ALA158     -0.2715
    119  CB         5.7260   10.3280  -10.5550 C.3   158  ALA158      0.0334
    120  N          6.9060    9.6410  -13.2710 N.am  159  ALA159     -0.1963
    121  CA         6.8870    8.6860  -14.3610 C.3   159  ALA159      0.1728
    122  C          7.6800    7.4550  -13.9320 C.2   159  ALA159      0.2616
    123  O          8.6310    7.5530  -13.1530 O.2   159  ALA159     -0.2715
    124  CB         7.4720    9.3040  -15.6420 C.3   159  ALA159      0.0334
    125  N          7.2720    6.2960  -14.4450 N.am  160  THR160     -0.1951
    126  CA         7.9610    5.0320  -14.1960 C.3   160  THR160      0.1897
    127  C          9.3150    4.9780  -14.9040 C.2   160  THR160      0.2313
    128  O          9.6430    5.8070  -15.7590 O.2   160  THR160     -0.2863
    129  CB         7.1370    3.8590  -14.7060 C.3   160  THR160      0.1794
    130  OG1        6.9660    4.0270  -16.1240 O.3   160  THR160     -0.2208
    131  CG2        5.8020    3.7870  -14.0010 C.3   160  THR160      0.0378
@<TRIPOS>BOND
     1    68    69    1
     2    81    79    1
     3    82    80    1
     4    69    70    1
     5    69    72    1
     6    74    72    1
     7    80    79    1
     8    70    71    2
     9    70    75   am
    10    79    76    1
    11    72    73    1
    12    75    76    1
    13    76    77    1
    14   130   129    1
    15    77    78    2
    16    77    83   am
    17   128   127    2
    18   124   121    1
    19   108   106   ar
    20   108   109   ar
    21   106   105   ar
    22    86    85    2
    23    89    83    1
    24    89    88    1
    25   109   107   ar
    26    83    84    1
    27   105   107   ar
    28   105   104    1
    29   127   126    1
    30   104   101    1
    31   129   126    1
    32   129   131    1
    33    92    93    2
    34    92    91    1
    35   125   126    1
    36   125   122   am
    37   121   122    1
    38   121   120    1
    39    85    84    1
    40    85    90   am
    41    91    90    1
    42   122   123    2
    43    84    87    1
    44    88    87    1
    45   118   117    2
    46   101   100    1
    47   101   102    1
    48    94    95    1
    49   120   117   am
    50   117   116    1
    51    95    96    1
    52    95    98    1
    53    97    96    2
    54   102   110   am
    55   102   103    2
    56   110   111    1
    57   115   116    1
    58   115   112   am
    59   116   119    1
    60    99    98    1
    61   112   111    1
    62   112   113    2
    63   111   114    1
    64     4     3    2
    65    49    47   am
    66    40    38    1
    67     3     2    1
    68    39    37    1
    69    38    37    1
    70    47    48    2
    71    47    46    1
    72     2     1    1
    73     2     5    1
    74    37    34    1
    75    22    21    1
    76    46    45    1
    77    23    21    1
    78    34    35    1
    79    34    33    1
    80     5     6    1
    81    21    18    1
    82    41    35   am
    83    41    42    1
    84    16    15   ar
    85    16    14   ar
    86    15    13   ar
    87    67    65    1
    88    35    36    2
    89    42    45    1
    90    42    43    1
    91    14    12   ar
    92    65    66    1
    93    65    62    1
    94    13    12   ar
    95    18    17    1
    96    18    19    1
    97    27    26    2
    98    20    19    2
    99    43    44    2
   100    12    11    1
   101    17     9   am
   102    60    58    1
   103    64    63    2
   104    63    62    1
   105    28    29    1
   106    28    25    1
   107    26    25    1
   108    62    61    1
   109    32    30   ar
   110     9    10    2
   111     9     8    1
   112    29    30    1
   113    53    52    2
   114    58    59    1
   115    58    57    2
   116    25    24    1
   117     7     8    1
   118    11     8    1
   119    30    31   ar
   120    57    56    1
   121    52    51    1
   122    50    51    1
   123    54    51    1
   124    54    55    1
   125    56    55    1
