@<TRIPOS>MOLECULE
tmp/5welC01.pdb
 214 213 0 0 0
SMALL
GASTEIGER

@<TRIPOS>ATOM
      1  N        144.9480  184.6000  192.9560 N.3   114  SER114     -0.1217
      2  CA       143.8690  185.1260  192.1310 C.3   114  SER114      0.1889
      3  C        144.4190  185.9270  190.9590 C.2   114  SER114      0.2288
      4  O        143.7760  186.0260  189.9080 O.2   114  SER114     -0.2866
      5  CB       142.9380  185.9900  192.9780 C.3   114  SER114      0.2089
      6  OG       142.3430  185.2330  194.0130 O.3   114  SER114     -0.2183
      7  N        145.5360  183.4710  188.2190 N.3   117  GLU117     -0.1231
      8  CA       144.3220  183.0110  187.5550 C.3   117  GLU117      0.1699
      9  C        143.7410  184.0860  186.6480 C.2   117  GLU117      0.2592
     10  O        143.1050  183.7680  185.6370 O.2   117  GLU117     -0.2718
     11  CB       143.2930  182.5790  188.5960 C.3   117  GLU117      0.0402
     12  CG       143.6780  181.3220  189.3510 C.3   117  GLU117      0.1161
     13  CD       142.6940  180.9830  190.4510 C.2   117  GLU117      0.3649
     14  OE1      141.7840  181.7990  190.7090 O.co2 117  GLU117     -0.2457
     15  OE2      142.8320  179.9040  191.0630 O.co2 117  GLU117     -0.2457
     16  N        143.9420  185.3590  186.9950 N.am  118  TYR118     -0.1962
     17  CA       143.5460  186.4290  186.0900 C.3   118  TYR118      0.1771
     18  C        144.4180  186.4560  184.8460 C.2   118  TYR118      0.2620
     19  O        143.9020  186.4850  183.7240 O.2   118  TYR118     -0.2715
     20  CB       143.6040  187.7810  186.7940 C.3   118  TYR118      0.0574
     21  CG       143.3200  188.9140  185.8460 C.ar  118  TYR118     -0.0198
     22  CD1      142.0410  189.1120  185.3460 C.ar  118  TYR118     -0.0009
     23  CD2      144.3300  189.7800  185.4390 C.ar  118  TYR118     -0.0009
     24  CE1      141.7720  190.1360  184.4670 C.ar  118  TYR118      0.0417
     25  CE2      144.0700  190.8100  184.5600 C.ar  118  TYR118      0.0417
     26  CZ       142.7890  190.9840  184.0800 C.ar  118  TYR118      0.1957
     27  OH       142.5200  192.0090  183.2050 O.3   118  TYR118     -0.2866
     28  N        145.7350  186.4440  185.0190 N.am  119  TYR119     -0.1960
     29  CA       146.6490  186.4090  183.8890 C.3   119  TYR119      0.1771
     30  C        146.7290  185.0440  183.2270 C.2   119  TYR119      0.2619
     31  O        147.3550  184.9390  182.1650 O.2   119  TYR119     -0.2715
     32  CB       148.0440  186.8550  184.3230 C.3   119  TYR119      0.0574
     33  CG       148.1440  188.3470  184.5180 C.ar  119  TYR119     -0.0198
     34  CD1      148.3260  189.1890  183.4300 C.ar  119  TYR119     -0.0009
     35  CD2      148.0440  188.9130  185.7780 C.ar  119  TYR119     -0.0009
     36  CE1      148.4160  190.5580  183.5910 C.ar  119  TYR119      0.0417
     37  CE2      148.1320  190.2800  185.9540 C.ar  119  TYR119      0.0417
     38  CZ       148.3180  191.0980  184.8560 C.ar  119  TYR119      0.1957
     39  OH       148.4050  192.4570  185.0310 O.3   119  TYR119     -0.2866
     40  N        146.1340  184.0150  183.8450 N.am  120  GLN120     -0.1963
     41  CA       145.9180  182.6970  183.2430 C.3   120  GLN120      0.1733
     42  C        147.2380  182.0090  182.9090 C.2   120  GLN120      0.2616
     43  O        147.4090  181.4490  181.8260 O.2   120  GLN120     -0.2715
     44  CB       145.0150  182.8010  182.0100 C.3   120  GLN120      0.0408
     45  CG       143.6400  183.3600  182.3320 C.3   120  GLN120      0.0908
     46  CD       142.8080  183.6290  181.0970 C.2   120  GLN120      0.2608
     47  OE1      143.2770  183.4680  179.9700 O.2   120  GLN120     -0.2717
     48  NE2      141.5670  184.0520  181.3020 N.am  120  GLN120     -0.0878
     49  N        148.1840  182.0590  183.8390 N.am  121  TRP121     -0.1974
     50  CA       149.5070  181.5170  183.5760 C.3   121  TRP121      0.1640
     51  C        149.5520  180.0160  183.8360 C.2   121  TRP121      0.2290
     52  O        148.8020  179.4730  184.6510 O.2   121  TRP121     -0.2864
     53  CB       150.5620  182.2230  184.4240 C.3   121  TRP121      0.0576
     54  CG       150.8520  183.6110  183.9680 C.ar  121  TRP121      0.0006
     55  CD1      150.2810  184.2600  182.9170 C.ar  121  TRP121      0.0946
     56  CD2      151.8330  184.5020  184.5050 C.ar  121  TRP121      0.0152
     57  NE1      150.8220  185.5110  182.7820 N.ar  121  TRP121     -0.2442
     58  CE2      151.7790  185.6850  183.7450 C.ar  121  TRP121      0.0810
     59  CE3      152.7450  184.4180  185.5590 C.ar  121  TRP121      0.0012
     60  CZ2      152.6000  186.7730  184.0030 C.ar  121  TRP121      0.0191
     61  CZ3      153.5580  185.5040  185.8180 C.ar  121  TRP121      0.0001
     62  CH2      153.4810  186.6660  185.0410 C.ar  121  TRP121      0.0015
     63  N        159.1100  184.1080  180.0800 N.3   181  ARG181     -0.1231
     64  CA       158.5860  185.4460  179.8640 C.3   181  ARG181      0.1694
     65  C        157.6910  185.8960  181.0030 C.2   181  ARG181      0.2591
     66  O        157.0760  186.9640  180.9110 O.2   181  ARG181     -0.2718
     67  CB       157.8040  185.5050  178.5460 C.3   181  ARG181      0.0321
     68  CG       158.6490  185.1960  177.3380 C.3   181  ARG181      0.0489
     69  CD       159.6640  186.2900  177.1130 C.3   181  ARG181      0.2205
     70  NE       160.5020  186.0180  175.9540 N.pl3 181  ARG181     -0.0865
     71  CZ       161.6370  185.3300  176.0090 C.cat 181  ARG181      0.5346
     72  NH1      162.0620  184.8410  177.1660 N.pl3 181  ARG181      0.1354
     73  NH2      162.3450  185.1250  174.9080 N.pl3 181  ARG181      0.1354
     74  N        157.6020  185.1080  182.0710 N.am  182  ARG182     -0.1980
     75  CA       156.6360  185.3140  183.1420 C.3   182  ARG182      0.1597
     76  C        157.3690  185.1000  184.4570 C.2   182  ARG182      0.2287
     77  O        157.6400  183.9600  184.8440 O.2   182  ARG182     -0.2864
     78  CB       155.4590  184.3520  182.9950 C.3   182  ARG182      0.0334
     79  CG       154.5670  184.6380  181.8010 C.3   182  ARG182      0.0492
     80  CD       153.5330  183.5540  181.6050 C.3   182  ARG182      0.2205
     81  NE       152.6170  183.8820  180.5210 N.pl3 182  ARG182     -0.0865
     82  CZ       151.6210  183.0980  180.1260 C.cat 182  ARG182      0.5346
     83  NH1      151.4080  181.9400  180.7340 N.pl3 182  ARG182      0.1354
     84  NH2      150.8290  183.4780  179.1350 N.pl3 182  ARG182      0.1354
     85  N        159.2350  194.2920  175.7240 N.3   207  LYS207     -0.1231
     86  CA       157.8830  193.7630  175.6130 C.3   207  LYS207      0.1693
     87  C        157.9120  192.2750  175.2850 C.2   207  LYS207      0.2593
     88  O        158.7410  191.8050  174.5010 O.2   207  LYS207     -0.2718
     89  CB       157.1110  194.5340  174.5440 C.3   207  LYS207      0.0285
     90  CG       155.6290  194.2220  174.4870 C.3   207  LYS207      0.0035
     91  CD       154.9520  195.0290  173.4000 C.3   207  LYS207      0.0206
     92  CE       154.8490  196.4890  173.8040 C.3   207  LYS207      0.1093
     93  NZ       154.0930  197.2950  172.8080 N.3   207  LYS207     -0.1314
     94  N        157.0070  191.5330  175.9150 N.am  208  GLY208     -0.1942
     95  CA       157.0250  190.0870  175.8920 C.3   208  GLY208      0.2014
     96  C        157.2560  189.4880  177.2600 C.2   208  GLY208      0.2639
     97  O        156.6220  188.4880  177.6080 O.2   208  GLY208     -0.2714
     98  N        158.1430  190.0840  178.0480 N.am  209  TYR209     -0.1959
     99  CA       158.3320  189.6660  179.4260 C.3   209  TYR209      0.1771
    100  C        157.2140  190.2240  180.2940 C.2   209  TYR209      0.2619
    101  O        156.6210  191.2610  179.9860 O.2   209  TYR209     -0.2715
    102  CB       159.6860  190.1410  179.9490 C.3   209  TYR209      0.0574
    103  CG       160.8590  189.4720  179.2840 C.ar  209  TYR209     -0.0198
    104  CD1      161.2960  188.2230  179.7040 C.ar  209  TYR209     -0.0009
    105  CD2      161.5250  190.0840  178.2320 C.ar  209  TYR209     -0.0009
    106  CE1      162.3710  187.6030  179.0990 C.ar  209  TYR209      0.0417
    107  CE2      162.6010  189.4730  177.6190 C.ar  209  TYR209      0.0417
    108  CZ       163.0180  188.2310  178.0560 C.ar  209  TYR209      0.1957
    109  OH       164.0870  187.6160  177.4490 O.3   209  TYR209     -0.2866
    110  N        156.9220  189.5230  181.3840 N.am  210  HIS210     -0.1973
    111  CA       155.9740  190.0150  182.3690 C.3   210  HIS210      0.1656
    112  C        156.5730  189.8470  183.7540 C.2   210  HIS210      0.2291
    113  O        157.2180  188.8360  184.0430 O.2   210  HIS210     -0.2864
    114  CB       154.6370  189.2790  182.3040 C.3   210  HIS210      0.0771
    115  CG       153.5380  189.9810  183.0360 C.ar  210  HIS210      0.0820
    116  ND1      153.3970  189.9220  184.4060 N.ar  210  HIS210     -0.2267
    117  CD2      152.5160  190.7440  182.5860 C.ar  210  HIS210      0.1154
    118  CE1      152.3440  190.6340  184.7680 C.ar  210  HIS210      0.1986
    119  NE2      151.7910  191.1420  183.6820 N.ar  210  HIS210     -0.2212
    120  N        155.7580  194.1840  180.9470 N.3   232  GLU232     -0.1245
    121  CA       154.5860  194.5410  181.7260 C.3   232  GLU232      0.1567
    122  C        154.8070  194.2120  183.1950 C.2   232  GLU232      0.2260
    123  O        155.1340  193.0790  183.5560 O.2   232  GLU232     -0.2867
    124  CB       153.3630  193.8050  181.1950 C.3   232  GLU232      0.0388
    125  CG       152.9680  194.2150  179.7930 C.3   232  GLU232      0.1160
    126  CD       151.8160  193.3950  179.2540 C.2   232  GLU232      0.3649
    127  OE1      151.4330  192.4050  179.9100 O.co2 232  GLU232     -0.2457
    128  OE2      151.2910  193.7440  178.1760 O.co2 232  GLU232     -0.2457
    129  N        138.7170  189.2770  193.9080 N.3   371  MET371     -0.1230
    130  CA       139.3030  190.2280  192.9690 C.3   371  MET371      0.1702
    131  C        138.3040  190.7230  191.9310 C.2   371  MET371      0.2592
    132  O        137.8690  189.9790  191.0480 O.2   371  MET371     -0.2718
    133  CB       140.4910  189.5860  192.2590 C.3   371  MET371      0.0401
    134  CG       141.2260  190.5150  191.3200 C.3   371  MET371      0.0596
    135  SD       142.6040  189.6770  190.5230 S.3   371  MET371     -0.1393
    136  CE       143.7230  189.5120  191.9100 C.3   371  MET371      0.0692
    137  N        137.9550  192.0020  192.0460 N.am  372  VAL372     -0.1966
    138  CA       136.9890  192.6500  191.1700 C.3   372  VAL372      0.1727
    139  C        137.7260  193.7040  190.3640 C.2   372  VAL372      0.2616
    140  O        138.2850  194.6480  190.9330 O.2   372  VAL372     -0.2715
    141  CB       135.8250  193.2860  191.9480 C.3   372  VAL372      0.0290
    142  CG1      134.9770  194.1380  191.0210 C.3   372  VAL372      0.0023
    143  CG2      134.9630  192.2160  192.5820 C.3   372  VAL372      0.0023
    144  N        137.7360  193.5440  189.0470 N.am  373  LEU373     -0.1977
    145  CA       138.2870  194.5650  188.1750 C.3   373  LEU373      0.1596
    146  C        137.3790  195.7860  188.1610 C.2   373  LEU373      0.2287
    147  O        136.1510  195.6750  188.2210 O.2   373  LEU373     -0.2864
    148  CB       138.4630  194.0330  186.7530 C.3   373  LEU373      0.0297
    149  CG       139.7050  193.2060  186.4060 C.3   373  LEU373      0.0022
    150  CD1      139.6540  191.7870  186.9580 C.3   373  LEU373      0.0001
    151  CD2      139.8880  193.1910  184.9020 C.3   373  LEU373      0.0001
    152  N        153.7440  179.4150  174.8370 N.3   450  ILE450     -0.1245
    153  CA       153.0160  180.6490  174.5820 C.3   450  ILE450      0.1561
    154  C        152.4710  180.5920  173.1660 C.2   450  ILE450      0.2260
    155  O        153.2220  180.3600  172.2120 O.2   450  ILE450     -0.2867
    156  CB       153.9130  181.8810  174.7850 C.3   450  ILE450      0.0252
    157  CG1      154.2310  182.0600  176.2700 C.3   450  ILE450      0.0019
    158  CG2      153.2830  183.1320  174.1870 C.3   450  ILE450      0.0019
    159  CD1      155.2540  183.1310  176.5450 C.3   450  ILE450      0.0001
    160  N        143.8530  184.6330  172.9850 N.3   459  VAL459     -0.1231
    161  CA       143.9960  184.1830  174.3680 C.3   459  VAL459      0.1692
    162  C        144.3860  185.3420  175.2730 C.2   459  VAL459      0.2592
    163  O        143.8070  185.5290  176.3510 O.2   459  VAL459     -0.2718
    164  CB       145.0180  183.0300  174.4500 C.3   459  VAL459      0.0266
    165  CG1      145.3440  182.6860  175.8960 C.3   459  VAL459      0.0020
    166  CG2      144.4810  181.8000  173.7500 C.3   459  VAL459      0.0020
    167  N        145.3260  186.1700  174.8310 N.am  460  TYR460     -0.1962
    168  CA       145.9150  187.1910  175.6860 C.3   460  TYR460      0.1771
    169  C        145.1450  188.5030  175.6470 C.2   460  TYR460      0.2620
    170  O        145.6850  189.5400  176.0430 O.2   460  TYR460     -0.2715
    171  CB       147.3750  187.4150  175.2930 C.3   460  TYR460      0.0574
    172  CG       148.2580  186.2080  175.5340 C.ar  460  TYR460     -0.0198
    173  CD1      147.9080  185.2370  176.4680 C.ar  460  TYR460     -0.0009
    174  CD2      149.4150  186.0140  174.7930 C.ar  460  TYR460     -0.0009
    175  CE1      148.6990  184.1270  176.6770 C.ar  460  TYR460      0.0417
    176  CE2      150.2150  184.9030  174.9960 C.ar  460  TYR460      0.0417
    177  CZ       149.8490  183.9640  175.9390 C.ar  460  TYR460      0.1957
    178  OH       150.6320  182.8550  176.1530 O.3   460  TYR460     -0.2866
    179  N        143.9010  188.4850  175.1700 N.am  461  GLY461     -0.1954
    180  CA       143.0550  189.6580  175.1780 C.3   461  GLY461      0.1869
    181  C        143.3680  190.6930  174.1230 C.2   461  GLY461      0.2309
    182  O        142.7190  191.7470  174.1070 O.2   461  GLY461     -0.2863
    183  N        137.5610  184.0120  171.7560 N.3   700  PRO700     -0.2102
    184  CA       138.1980  183.6880  173.0380 C.3   700  PRO700      0.1504
    185  C        137.2330  182.9600  173.9580 C.2   700  PRO700      0.2576
    186  O        136.0200  183.1740  173.9140 O.2   700  PRO700     -0.2718
    187  CB       138.5920  185.0590  173.5940 C.3   700  PRO700      0.0282
    188  CG       138.8080  185.8820  172.3830 C.3   700  PRO700      0.0208
    189  CD       137.7840  185.4200  171.3870 C.3   700  PRO700      0.0893
    190  N        137.7930  182.0730  174.7760 N.am  701  LYS701     -0.1966
    191  CA       136.9850  181.1340  175.5370 C.3   701  LYS701      0.1728
    192  C        136.2230  181.8460  176.6470 C.2   701  LYS701      0.2617
    193  O        136.8040  182.5680  177.4600 O.2   701  LYS701     -0.2715
    194  CB       137.8750  180.0390  176.1200 C.3   701  LYS701      0.0311
    195  CG       137.1240  178.9270  176.8120 C.3   701  LYS701      0.0038
    196  CD       138.0790  177.8520  177.2920 C.3   701  LYS701      0.0206
    197  CE       137.3280  176.6710  177.8780 C.3   701  LYS701      0.1093
    198  NZ       136.6200  177.0330  179.1370 N.3   701  LYS701     -0.1314
    199  N        134.9090  181.6440  176.6660 N.am  702  GLY702     -0.1940
    200  CA       134.0450  182.3060  177.6160 C.3   702  GLY702      0.2014
    201  C        133.5070  183.6480  177.1720 C.2   702  GLY702      0.2640
    202  O        132.8840  184.3410  177.9840 O.2   702  GLY702     -0.2714
    203  N        133.7290  184.0400  175.9200 N.am  703  SER703     -0.1935
    204  CA       133.2150  185.3140  175.4380 C.3   703  SER703      0.2055
    205  C        131.7090  185.2410  175.2270 C.2   703  SER703      0.2643
    206  O        131.1580  184.1810  174.9210 O.2   703  SER703     -0.2714
    207  CB       133.9040  185.7090  174.1340 C.3   703  SER703      0.2130
    208  OG       133.3650  186.9150  173.6210 O.3   703  SER703     -0.2179
    209  N        131.0440  186.3870  175.3950 N.am  704  SER704     -0.1949
    210  CA       129.5990  186.4350  175.2150 C.3   704  SER704      0.1924
    211  C        129.2140  186.3480  173.7470 C.2   704  SER704      0.2314
    212  O        128.1050  185.9080  173.4240 O.2   704  SER704     -0.2863
    213  CB       129.0330  187.7160  175.8250 C.3   704  SER704      0.2116
    214  OG       129.4760  188.8540  175.1060 O.3   704  SER704     -0.2180
@<TRIPOS>BOND
     1   189   183    1
     2   189   188    1
     3   183   184    1
     4   155   154    2
     5   188   187    1
     6    93    92    1
     7   160   161    1
     8   184   187    1
     9   184   185    1
    10   154   153    1
    11    91    92    1
    12    91    90    1
    13   212   211    2
    14   208   207    1
    15   211   210    1
    16   166   164    1
    17   186   185    2
    18   185   190   am
    19   182   181    2
    20   181   180    1
    21   207   204    1
    22   158   156    1
    23   161   164    1
    24   161   162    1
    25   164   165    1
    26    90    89    1
    27    88    87    2
    28    89    86    1
    29   153   156    1
    30   153   152    1
    31   190   191    1
    32   156   157    1
    33   174   176   ar
    34   174   172   ar
    35   167   162   am
    36   167   168    1
    37    73    71    1
    38   206   205    2
    39   176   177   ar
    40   214   213    1
    41   179   180    1
    42   179   169   am
    43   210   209    1
    44   210   213    1
    45   205   209   am
    46   205   204    1
    47   162   163    2
    48    87    86    1
    49    87    94   am
    50   171   172    1
    51   171   168    1
    52   204   203    1
    53   172   173   ar
    54   191   194    1
    55   191   192    1
    56    86    85    1
    57   169   168    1
    58   169   170    2
    59    95    94    1
    60    95    96    1
    61   203   201   am
    62   177   178    1
    63   177   175   ar
    64    70    71    2
    65    70    69    1
    66    71    72    1
    67   194   195    1
    68   157   159    1
    69   173   175   ar
    70   192   199   am
    71   192   193    2
    72   199   200    1
    73   195   196    1
    74    69    68    1
    75   201   200    1
    76   201   202    2
    77    96    97    2
    78    96    98   am
    79   196   197    1
    80    68    67    1
    81   109   108    1
    82   107   108   ar
    83   107   105   ar
    84   197   198    1
    85    98    99    1
    86   108   106   ar
    87   128   126   ar
    88   105   103   ar
    89    67    64    1
    90   106   104   ar
    91    84    82    1
    92   126   125    1
    93   126   127   ar
    94   103   104   ar
    95   103   102    1
    96    99   102    1
    97    99   100    1
    98   125   124    1
    99    64    63    1
   100    64    65    1
   101    47    46    2
   102   101   100    2
   103    82    81    2
   104    82    83    1
   105   100   110   am
   106    81    80    1
   107    66    65    2
   108   120   121    1
   109    65    74   am
   110    46    48   am
   111    46    45    1
   112   124   121    1
   113   110   111    1
   114    80    79    1
   115   121   122    1
   116    79    78    1
   117    43    42    2
   118    44    45    1
   119    44    41    1
   120    74    75    1
   121    31    30    2
   122   114   111    1
   123   114   115    1
   124   111   112    1
   125   117   115   ar
   126   117   119   ar
   127    57    55   ar
   128    57    58   ar
   129    42    41    1
   130    42    49   am
   131    55    54   ar
   132    78    75    1
   133   115   116   ar
   134    75    76    1
   135   122   123    2
   136    27    26    1
   137    30    40   am
   138    30    29    1
   139    41    40    1
   140    34    36   ar
   141    34    33   ar
   142    50    51    1
   143    50    49    1
   144    50    53    1
   145    36    38   ar
   146   119   118   ar
   147    19    18    2
   148    58    60   ar
   149    58    56   ar
   150   112   113    2
   151    51    52    2
   152    29    32    1
   153    29    28    1
   154    54    53    1
   155    54    56   ar
   156    60    62   ar
   157    26    24   ar
   158    26    25   ar
   159    32    33    1
   160   116   118   ar
   161    76    77    2
   162    24    22   ar
   163    56    59   ar
   164    33    35   ar
   165    25    23   ar
   166    18    28   am
   167    18    17    1
   168    38    39    1
   169    38    37   ar
   170   151   149    1
   171    62    61   ar
   172    22    21   ar
   173    23    21   ar
   174    59    61   ar
   175    10     9    2
   176    35    37   ar
   177    21    20    1
   178    17    20    1
   179    17    16    1
   180   149   148    1
   181   149   150    1
   182     9    16   am
   183     9     8    1
   184   148   145    1
   185     8     7    1
   186     8    11    1
   187   146   145    1
   188   146   147    2
   189   145   144    1
   190    11    12    1
   191   144   139   am
   192    12    13    1
   193     4     3    2
   194   139   140    2
   195   139   138    1
   196    13    14   ar
   197    13    15   ar
   198   135   134    1
   199   135   136    1
   200     3     2    1
   201   142   141    1
   202   132   131    2
   203   138   141    1
   204   138   137    1
   205   134   133    1
   206   131   137   am
   207   131   130    1
   208   141   143    1
   209     2     1    1
   210     2     5    1
   211   133   130    1
   212   130   129    1
   213     5     6    1
