@<TRIPOS>MOLECULE
tmp/5welC00.pdb
 169 161 0 0 0
SMALL
GASTEIGER

@<TRIPOS>ATOM
      1  N        145.4070  186.3980  153.4190 N.3   393  GLU393     -0.1245
      2  CA       145.4260  185.1960  152.5950 C.3   393  GLU393      0.1567
      3  C        144.4250  185.3660  151.4650 C.2   393  GLU393      0.2260
      4  O        143.2850  185.7740  151.6970 O.2   393  GLU393     -0.2867
      5  CB       145.1000  183.9450  153.4130 C.3   393  GLU393      0.0388
      6  CG       146.1710  183.5580  154.4140 C.3   393  GLU393      0.1160
      7  CD       147.4580  183.1220  153.7450 C.2   393  GLU393      0.3649
      8  OE1      147.3920  182.5050  152.6620 O.co2 393  GLU393     -0.2457
      9  OE2      148.5390  183.4070  154.3010 O.co2 393  GLU393     -0.2457
     10  N        140.8230  185.0650  150.9560 N.3   396  TYR396     -0.1241
     11  CA       140.0800  185.2340  152.2000 C.3   396  TYR396      0.1605
     12  C        140.1930  186.6550  152.7230 C.2   396  TYR396      0.2264
     13  O        139.1800  187.2860  153.0450 O.2   396  TYR396     -0.2867
     14  CB       140.5980  184.2520  153.2390 C.3   396  TYR396      0.0534
     15  CG       140.3830  182.8150  152.8620 C.ar  396  TYR396     -0.0201
     16  CD1      139.1700  182.1890  153.1100 C.ar  396  TYR396     -0.0009
     17  CD2      141.3970  182.0790  152.2660 C.ar  396  TYR396     -0.0009
     18  CE1      138.9720  180.8650  152.7730 C.ar  396  TYR396      0.0417
     19  CE2      141.2110  180.7580  151.9250 C.ar  396  TYR396      0.0417
     20  CZ       139.9970  180.1560  152.1790 C.ar  396  TYR396      0.1957
     21  OH       139.8080  178.8370  151.8370 O.3   396  TYR396     -0.2866
     22  N        149.4670  181.5890  162.3110 N.3   441  TYR441     -0.1241
     23  CA       148.0580  181.2420  162.4520 C.3   441  TYR441      0.1605
     24  C        147.6590  181.0670  163.9080 C.2   441  TYR441      0.2264
     25  O        146.4720  180.8990  164.2040 O.2   441  TYR441     -0.2867
     26  CB       147.7410  179.9750  161.6620 C.3   441  TYR441      0.0534
     27  CG       147.7660  180.1900  160.1730 C.ar  441  TYR441     -0.0201
     28  CD1      146.6750  180.7460  159.5170 C.ar  441  TYR441     -0.0009
     29  CD2      148.8850  179.8520  159.4240 C.ar  441  TYR441     -0.0009
     30  CE1      146.6950  180.9570  158.1560 C.ar  441  TYR441      0.0417
     31  CE2      148.9160  180.0590  158.0600 C.ar  441  TYR441      0.0417
     32  CZ       147.8160  180.6060  157.4300 C.ar  441  TYR441      0.1957
     33  OH       147.8430  180.8110  156.0710 O.3   441  TYR441     -0.2866
     34  N        140.9790  181.8560  158.0430 N.3   469  PRO469     -0.2102
     35  CA       141.1800  180.4220  157.8030 C.3   469  PRO469      0.1504
     36  C        141.9590  179.7650  158.9260 C.2   469  PRO469      0.2576
     37  O        143.1750  179.5800  158.8330 O.2   469  PRO469     -0.2718
     38  CB       141.9760  180.3950  156.4950 C.3   469  PRO469      0.0282
     39  CG       141.6550  181.6540  155.8420 C.3   469  PRO469      0.0208
     40  CD       141.4940  182.6610  156.9230 C.3   469  PRO469      0.0893
     41  N        141.2600  179.4210  159.9980 N.am  470  LEU470     -0.1966
     42  CA       141.8930  178.8010  161.1510 C.3   470  LEU470      0.1728
     43  C        141.4470  177.3480  161.2350 C.2   470  LEU470      0.2616
     44  O        140.2560  177.0610  161.3860 O.2   470  LEU470     -0.2715
     45  CB       141.5490  179.5700  162.4220 C.3   470  LEU470      0.0311
     46  CG       142.2640  179.1100  163.6870 C.3   470  LEU470      0.0022
     47  CD1      143.7500  179.2050  163.4740 C.3   470  LEU470      0.0001
     48  CD2      141.8610  179.9890  164.8520 C.3   470  LEU470      0.0001
     49  N        142.4050  176.4340  161.1170 N.am  471  THR471     -0.1951
     50  CA       142.0960  175.0130  161.1640 C.3   471  THR471      0.1897
     51  C        141.7370  174.6010  162.5830 C.2   471  THR471      0.2313
     52  O        142.5040  174.8250  163.5220 O.2   471  THR471     -0.2863
     53  CB       143.2880  174.1960  160.6680 C.3   471  THR471      0.1794
     54  OG1      143.6350  174.6100  159.3420 O.3   471  THR471     -0.2208
     55  CG2      142.9460  172.7170  160.6520 C.3   471  THR471      0.0378
     56  N        143.9000  173.7390  169.9280 N.3   476  ARG476     -0.1245
     57  CA       143.3870  175.0950  169.8080 C.3   476  ARG476      0.1563
     58  C        142.0850  175.2830  170.5720 C.2   476  ARG476      0.2260
     59  O        141.8620  176.3470  171.1530 O.2   476  ARG476     -0.2867
     60  CB       143.2060  175.4500  168.3330 C.3   476  ARG476      0.0307
     61  CG       144.5200  175.6820  167.6090 C.3   476  ARG476      0.0489
     62  CD       144.3120  175.8530  166.1190 C.3   476  ARG476      0.2205
     63  NE       145.5720  176.0860  165.4180 N.pl3 476  ARG476     -0.0865
     64  CZ       145.6940  176.1300  164.0950 C.cat 476  ARG476      0.5346
     65  NH1      144.6350  175.9360  163.3220 N.pl3 476  ARG476      0.1354
     66  NH2      146.8770  176.3530  163.5400 N.pl3 476  ARG476      0.1354
     67  N        154.5710  170.6430  152.0290 N.3   613  LEU613     -0.1245
     68  CA       155.4450  171.7150  152.4720 C.3   613  LEU613      0.1561
     69  C        156.4420  171.1600  153.4860 C.2   613  LEU613      0.2260
     70  O        156.1700  170.1660  154.1640 O.2   613  LEU613     -0.2867
     71  CB       154.6120  172.8470  153.0740 C.3   613  LEU613      0.0270
     72  CG       155.2740  174.1950  153.3430 C.3   613  LEU613      0.0019
     73  CD1      155.7520  174.7680  152.0320 C.3   613  LEU613      0.0001
     74  CD2      154.3030  175.1460  154.0150 C.3   613  LEU613      0.0001
     75  N        157.3250  172.2180  156.2820 N.3   615  SER615     -0.1202
     76  CA       156.8800  172.3640  157.6630 C.3   615  SER615      0.2020
     77  C        155.3830  172.6580  157.6620 C.2   615  SER615      0.2619
     78  O        154.8970  173.4630  156.8640 O.2   615  SER615     -0.2717
     79  CB       157.6560  173.4670  158.3770 C.3   615  SER615      0.2103
     80  OG       157.3750  174.7320  157.8070 O.3   615  SER615     -0.2182
     81  N        154.6560  172.0020  158.5560 N.am  616  GLY616     -0.1942
     82  CA       153.2300  172.2280  158.6640 C.3   616  GLY616      0.2014
     83  C        152.5110  170.9920  159.1550 C.2   616  GLY616      0.2640
     84  O        153.0980  169.9220  159.3250 O.2   616  GLY616     -0.2714
     85  N        151.2070  171.1630  159.3820 N.am  617  SER617     -0.1935
     86  CA       150.3840  170.0630  159.8700 C.3   617  SER617      0.2055
     87  C        150.1880  168.9930  158.8090 C.2   617  SER617      0.2643
     88  O        149.9740  167.8230  159.1460 O.2   617  SER617     -0.2714
     89  CB       149.0290  170.5890  160.3300 C.3   617  SER617      0.2130
     90  OG       148.2890  171.0810  159.2280 O.3   617  SER617     -0.2179
     91  N        150.2410  169.3790  157.5320 N.am  618  THR618     -0.1950
     92  CA       150.0720  168.4210  156.4440 C.3   618  THR618      0.1897
     93  C        151.2340  167.4390  156.3940 C.2   618  THR618      0.2313
     94  O        151.0270  166.2260  156.2780 O.2   618  THR618     -0.2863
     95  CB       149.9380  169.1660  155.1170 C.3   618  THR618      0.1794
     96  OG1      148.8180  170.0560  155.1820 O.3   618  THR618     -0.2208
     97  CG2      149.7300  168.1930  153.9740 C.3   618  THR618      0.0378
     98  N        154.7260  177.5770  149.5770 N.3   649  THR649     -0.1218
     99  CA       153.6490  176.9450  148.8230 C.3   649  THR649      0.1862
    100  C        153.7760  177.2440  147.3340 C.2   649  THR649      0.2287
    101  O        153.5530  176.3620  146.4960 O.2   649  THR649     -0.2866
    102  CB       152.2980  177.4080  149.3670 C.3   649  THR649      0.1770
    103  OG1      152.2230  177.0980  150.7630 O.3   649  THR649     -0.2211
    104  CG2      151.1500  176.7070  148.6550 C.3   649  THR649      0.0375
    105  N        151.8190  167.4530  144.2200 N.3   665  TYR665     -0.1241
    106  CA       151.9260  168.2330  145.4400 C.3   665  TYR665      0.1605
    107  C        150.6280  168.1420  146.2230 C.2   665  TYR665      0.2264
    108  O        149.5430  168.0720  145.6410 O.2   665  TYR665     -0.2867
    109  CB       152.2520  169.6950  145.1410 C.3   665  TYR665      0.0534
    110  CG       152.5730  170.4760  146.3810 C.ar  665  TYR665     -0.0201
    111  CD1      153.7610  170.2580  147.0560 C.ar  665  TYR665     -0.0009
    112  CD2      151.6960  171.4260  146.8810 C.ar  665  TYR665     -0.0009
    113  CE1      154.0660  170.9530  148.1940 C.ar  665  TYR665      0.0417
    114  CE2      151.9980  172.1400  148.0260 C.ar  665  TYR665      0.0417
    115  CZ       153.1890  171.8980  148.6760 C.ar  665  TYR665      0.1957
    116  OH       153.5100  172.5960  149.8160 O.3   665  TYR665     -0.2866
    117  N        148.1640  169.7870  149.0920 N.3   667  LEU667     -0.1231
    118  CA       147.8740  171.0700  149.7160 C.3   667  LEU667      0.1693
    119  C        146.3880  171.1220  150.0470 C.2   667  LEU667      0.2591
    120  O        145.6420  170.1720  149.7980 O.2   667  LEU667     -0.2718
    121  CB       148.3180  172.2240  148.8070 C.3   667  LEU667      0.0284
    122  CG       147.5460  172.6390  147.5520 C.3   667  LEU667      0.0019
    123  CD1      146.7970  173.9280  147.8100 C.3   667  LEU667      0.0001
    124  CD2      148.4360  172.7730  146.3440 C.3   667  LEU667      0.0001
    125  N        145.9750  172.2450  150.6330 N.am  668  GLU668     -0.1979
    126  CA       144.6100  172.3950  151.1210 C.3   668  GLU668      0.1602
    127  C        143.6500  172.6290  149.9620 C.2   668  GLU668      0.2287
    128  O        143.8930  173.4860  149.1100 O.2   668  GLU668     -0.2864
    129  CB       144.5460  173.5560  152.1130 C.3   668  GLU668      0.0415
    130  CG       145.3700  173.3270  153.3740 C.3   668  GLU668      0.1163
    131  CD       145.3800  174.5280  154.3000 C.2   668  GLU668      0.3649
    132  OE1      144.8450  175.5860  153.9060 O.co2 668  GLU668     -0.2457
    133  OE2      145.9280  174.4150  155.4190 O.co2 668  GLU668     -0.2457
    134  N        140.7250  173.9450  149.3620 N.3   670  THR670     -0.1203
    135  CA       140.1250  175.2340  149.0390 C.3   670  THR670      0.1994
    136  C        141.1510  176.1700  148.4200 C.2   670  THR670      0.2617
    137  O        140.8250  176.9690  147.5340 O.2   670  THR670     -0.2717
    138  CB       139.5250  175.8480  150.2950 C.3   670  THR670      0.1784
    139  OG1      140.5790  176.1640  151.2100 O.3   670  THR670     -0.2211
    140  CG2      138.5990  174.8460  150.9500 C.3   670  THR670      0.0376
    141  N        142.3980  176.0850  148.8800 N.am  671  MET671     -0.1979
    142  CA       143.4800  176.7950  148.2140 C.3   671  MET671      0.1605
    143  C        143.7960  176.1450  146.8770 C.2   671  MET671      0.2287
    144  O        144.1860  176.8270  145.9230 O.2   671  MET671     -0.2864
    145  CB       144.7130  176.8090  149.1140 C.3   671  MET671      0.0413
    146  CG       145.7650  177.8340  148.7450 C.3   671  MET671      0.0598
    147  SD       145.1880  179.5050  149.1110 S.3   671  MET671     -0.1393
    148  CE       146.2650  180.4780  148.0660 C.3   671  MET671      0.0692
    149  N        139.0550  168.3440  157.3890 N.3   693  LYS693     -0.1245
    150  CA       139.4300  169.4810  158.2120 C.3   693  LYS693      0.1561
    151  C        138.4400  170.6020  157.9520 C.2   693  LYS693      0.2260
    152  O        137.8630  170.7070  156.8690 O.2   693  LYS693     -0.2867
    153  CB       140.8610  169.9500  157.9320 C.3   693  LYS693      0.0271
    154  CG       141.9340  168.9830  158.3950 C.3   693  LYS693      0.0035
    155  CD       143.3190  169.5480  158.1410 C.3   693  LYS693      0.0206
    156  CE       144.3970  168.5790  158.5860 C.3   693  LYS693      0.1093
    157  NZ       145.7620  169.1240  158.3510 N.3   693  LYS693     -0.1314
    158  N        137.5310  174.8680  158.5230 N.3   695  TYR695     -0.1241
    159  CA       137.7360  176.2240  159.0060 C.3   695  TYR695      0.1605
    160  C        136.5000  176.6740  159.7640 C.2   695  TYR695      0.2264
    161  O        135.3720  176.5020  159.2990 O.2   695  TYR695     -0.2867
    162  CB       138.0220  177.1740  157.8460 C.3   695  TYR695      0.0534
    163  CG       139.3700  176.9650  157.2070 C.ar  695  TYR695     -0.0201
    164  CD1      140.3820  176.2870  157.8770 C.ar  695  TYR695     -0.0009
    165  CD2      139.6250  177.4270  155.9230 C.ar  695  TYR695     -0.0009
    166  CE1      141.6110  176.0880  157.2920 C.ar  695  TYR695      0.0417
    167  CE2      140.8540  177.2300  155.3270 C.ar  695  TYR695      0.0417
    168  CZ       141.8420  176.5610  156.0180 C.ar  695  TYR695      0.1957
    169  OH       143.0680  176.3620  155.4290 O.3   695  TYR695     -0.2866
@<TRIPOS>BOND
     1   105   106    1
     2   109   106    1
     3   109   110    1
     4   106   107    1
     5   108   107    2
     6   144   143    2
     7   124   122    1
     8   110   112   ar
     9   110   111   ar
    10   101   100    2
    11   143   142    1
    12   112   114   ar
    13   111   113   ar
    14   100    99    1
    15   137   136    2
    16   122   123    1
    17   122   121    1
    18   114   115   ar
    19   148   147    1
    20   113   115   ar
    21   142   141    1
    22   142   145    1
    23   136   141   am
    24   136   135    1
    25   104   102    1
    26   115   116    1
    27   146   147    1
    28   146   145    1
    29   121   118    1
    30    99   102    1
    31    99    98    1
    32   135   134    1
    33   135   138    1
    34   117   118    1
    35   128   127    2
    36   102   103    1
    37   118   119    1
    38   120   119    2
    39   127   126    1
    40   119   125   am
    41   138   140    1
    42   138   139    1
    43   125   126    1
    44    10    11    1
    45   126   129    1
    46     3     4    2
    47     3     2    1
    48    21    20    1
    49    19    20   ar
    50    19    17   ar
    51    67    68    1
    52    73    72    1
    53   129   130    1
    54    20    18   ar
    55    11    12    1
    56    11    14    1
    57    17    15   ar
    58    68    71    1
    59    68    69    1
    60     2     5    1
    61     2     1    1
    62     8     7   ar
    63    12    13    2
    64    18    16   ar
    65    15    16   ar
    66    15    14    1
    67    71    72    1
    68    72    74    1
    69   130   131    1
    70     5     6    1
    71    69    70    2
    72     7     9   ar
    73     7     6    1
    74   132   131   ar
    75    97    95    1
    76   131   133   ar
    77    95    96    1
    78    95    92    1
    79   167   165   ar
    80   167   168   ar
    81   169   168    1
    82    39    38    1
    83    39    40    1
    84   165   163   ar
    85   168   166   ar
    86    33    32    1
    87    94    93    2
    88    75    76    1
    89    93    92    1
    90    92    91    1
    91    38    35    1
    92    78    77    2
    93   152   151    2
    94    40    34    1
    95   163   162    1
    96   163   164   ar
    97   166   164   ar
    98   149   150    1
    99    32    31   ar
   100    32    30   ar
   101    91    87   am
   102    77    76    1
   103    77    81   am
   104    76    79    1
   105    35    34    1
   106    35    36    1
   107    80    79    1
   108   162   159    1
   109   153   150    1
   110   153   154    1
   111   151   150    1
   112    31    29   ar
   113   155   154    1
   114   155   156    1
   115    30    28   ar
   116   157   156    1
   117   158   159    1
   118    81    82    1
   119    82    83    1
   120    87    88    2
   121    87    86    1
   122    37    36    2
   123    36    41   am
   124   159   160    1
   125    83    84    2
   126    83    85   am
   127    90    89    1
   128   161   160    2
   129    54    53    1
   130    85    86    1
   131    29    27   ar
   132    28    27   ar
   133    86    89    1
   134    41    42    1
   135    27    26    1
   136    55    53    1
   137    53    50    1
   138    49    50    1
   139    49    43   am
   140    42    43    1
   141    42    45    1
   142    50    51    1
   143    43    44    2
   144    26    23    1
   145    22    23    1
   146    45    46    1
   147    23    24    1
   148    51    52    2
   149    65    64    1
   150    47    46    1
   151    66    64    1
   152    46    48    1
   153    24    25    2
   154    64    63    2
   155    63    62    1
   156    62    61    1
   157    61    60    1
   158    60    57    1
   159    57    56    1
   160    57    58    1
   161    58    59    2
