@<TRIPOS>MOLECULE
tmp/5weoA01.pdb
 84 80 0 0 0
SMALL
GASTEIGER

@<TRIPOS>ATOM
      1  N        175.8740  132.4330  172.1170 N.3   484  LYS484     -0.1231
      2  CA       176.1430  133.5110  171.1900 C.3   484  LYS484      0.1678
      3  C        175.2770  133.3330  169.9470 C.2   484  LYS484      0.2434
      4  O        174.9680  132.2050  169.5580 O.2   484  LYS484     -0.2733
      5  CB       177.6170  133.5350  170.8050 C.3   484  LYS484      0.0284
      6  CG       178.5410  133.9480  171.9200 C.3   484  LYS484      0.0035
      7  CD       178.3390  135.4120  172.2460 C.3   484  LYS484      0.0206
      8  CE       179.4170  135.9210  173.1840 C.3   484  LYS484      0.1093
      9  NZ       179.2890  135.3760  174.5560 N.3   484  LYS484     -0.1314
     10  N        174.8430  134.4290  169.3310 N.am  485  PRO485     -0.2718
     11  CA       173.9280  134.3190  168.1940 C.3   485  PRO485      0.1535
     12  C        174.6160  133.7440  166.9780 C.2   485  PRO485      0.2599
     13  O        175.8100  133.9480  166.7550 O.2   485  PRO485     -0.2715
     14  CB       173.4970  135.7630  167.9380 C.3   485  PRO485      0.0310
     15  CG       173.7780  136.4680  169.1990 C.3   485  PRO485      0.0237
     16  CD       174.9890  135.8230  169.7670 C.3   485  PRO485      0.0939
     17  N        173.8450  133.0100  166.1880 N.am  486  PHE486     -0.1960
     18  CA       174.4040  132.2950  165.0610 C.3   486  PHE486      0.1771
     19  C        173.8340  132.7010  163.7190 C.2   486  PHE486      0.2619
     20  O        174.4440  132.3810  162.6960 O.2   486  PHE486     -0.2715
     21  CB       174.2240  130.7800  165.2420 C.3   486  PHE486      0.0574
     22  CG       172.7900  130.3260  165.3060 C.ar  486  PHE486     -0.0200
     23  CD1      172.1230  130.2730  166.5170 C.ar  486  PHE486     -0.0042
     24  CD2      172.1280  129.8930  164.1660 C.ar  486  PHE486     -0.0042
     25  CE1      170.8160  129.8430  166.5810 C.ar  486  PHE486     -0.0003
     26  CE2      170.8250  129.4640  164.2280 C.ar  486  PHE486     -0.0003
     27  CZ       170.1740  129.4290  165.4380 C.ar  486  PHE486     -0.0000
     28  N        172.6830  133.3580  163.6790 N.am  487  MET487     -0.1963
     29  CA       172.1300  133.7810  162.4010 C.3   487  MET487      0.1736
     30  C        171.3890  135.0900  162.5840 C.2   487  MET487      0.2617
     31  O        170.4190  135.1570  163.3420 O.2   487  MET487     -0.2715
     32  CB       171.2040  132.7300  161.8130 C.3   487  MET487      0.0427
     33  CG       170.6670  133.1520  160.4720 C.3   487  MET487      0.0599
     34  SD       169.6410  131.9020  159.6920 S.3   487  MET487     -0.1393
     35  CE       168.1860  131.9950  160.7200 C.3   487  MET487      0.0692
     36  N        171.8320  136.1130  161.8730 N.am  488  SER488     -0.1950
     37  CA       171.2480  137.4370  161.9800 C.3   488  SER488      0.1924
     38  C        169.9830  137.5160  161.1410 C.2   488  SER488      0.2314
     39  O        169.8760  136.8690  160.0970 O.2   488  SER488     -0.2863
     40  CB       172.2470  138.4900  161.5130 C.3   488  SER488      0.2116
     41  OG       173.4200  138.4570  162.3040 O.3   488  SER488     -0.2180
     42  N        168.7740  138.1930  166.0590 N.3   707  GLY707     -0.1225
     43  CA       169.6200  137.0400  165.8830 C.3   707  GLY707      0.1811
     44  C        169.1810  135.8640  166.7180 C.2   707  GLY707      0.2280
     45  O        168.9630  135.9830  167.9280 O.2   707  GLY707     -0.2866
     46  N        181.0170  128.2750  168.0260 N.3   727  LEU727     -0.1245
     47  CA       182.0160  129.1460  167.4380 C.3   727  LEU727      0.1561
     48  C        182.9240  128.4280  166.4670 C.2   727  LEU727      0.2260
     49  O        183.5290  129.0790  165.6150 O.2   727  LEU727     -0.2867
     50  CB       182.8340  129.7710  168.5450 C.3   727  LEU727      0.0270
     51  CG       181.9140  130.6240  169.3930 C.3   727  LEU727      0.0019
     52  CD1      182.6340  131.0360  170.6250 C.3   727  LEU727      0.0001
     53  CD2      181.4940  131.8310  168.5990 C.3   727  LEU727      0.0001
     54  N        180.7220  128.1860  163.0520 N.3   730  SER730     -0.1217
     55  CA       180.7300  129.5080  162.4520 C.3   730  SER730      0.1889
     56  C        182.0880  129.8140  161.8530 C.2   730  SER730      0.2288
     57  O        182.1770  130.3580  160.7480 O.2   730  SER730     -0.2866
     58  CB       180.3730  130.5480  163.5030 C.3   730  SER730      0.2089
     59  OG       181.3760  130.5870  164.5010 O.3   730  SER730     -0.2183
     60  N        177.6600  126.2890  158.8810 N.3   735  LEU735     -0.1231
     61  CA       176.3360  126.8890  158.9090 C.3   735  LEU735      0.1693
     62  C        175.9530  127.4310  157.5450 C.2   735  LEU735      0.2592
     63  O        174.8100  127.2710  157.1030 O.2   735  LEU735     -0.2718
     64  CB       176.3320  128.0160  159.9310 C.3   735  LEU735      0.0284
     65  CG       176.8460  127.5730  161.2940 C.3   735  LEU735      0.0019
     66  CD1      176.9750  128.7650  162.2110 C.3   735  LEU735      0.0001
     67  CD2      175.9330  126.5260  161.8900 C.3   735  LEU735      0.0001
     68  N        176.9130  128.0580  156.8640 N.am  736  ASP736     -0.1974
     69  CA       176.6770  128.6100  155.5380 C.3   736  ASP736      0.1709
     70  C        176.3760  127.5120  154.5460 C.2   736  ASP736      0.2293
     71  O        175.4510  127.6290  153.7380 O.2   736  ASP736     -0.2864
     72  CB       177.9060  129.3800  155.0870 C.3   736  ASP736      0.1436
     73  CG       178.2300  130.5130  156.0040 C.2   736  ASP736      0.3671
     74  OD1      177.2890  131.0450  156.6170 O.co2 736  ASP736     -0.2456
     75  OD2      179.4200  130.8620  156.1240 O.co2 736  ASP736     -0.2456
     76  N        173.2160  126.7370  155.2750 N.3   739  LYS739     -0.1245
     77  CA       172.3470  127.8170  154.8330 C.3   739  LYS739      0.1561
     78  C        172.1480  127.7700  153.3330 C.2   739  LYS739      0.2260
     79  O        171.0720  128.1150  152.8330 O.2   739  LYS739     -0.2867
     80  CB       172.9400  129.1510  155.2510 C.3   739  LYS739      0.0271
     81  CG       172.0330  130.3240  155.0830 C.3   739  LYS739      0.0035
     82  CD       172.7090  131.5290  155.6830 C.3   739  LYS739      0.0206
     83  CE       171.8320  132.7500  155.6470 C.3   739  LYS739      0.1093
     84  NZ       172.5330  133.9020  156.2730 N.3   739  LYS739     -0.1314
@<TRIPOS>BOND
     1    79    78    2
     2    78    77    1
     3    71    70    2
     4    70    69    1
     5    77    80    1
     6    77    76    1
     7    81    80    1
     8    81    82    1
     9    72    69    1
    10    72    73    1
    11    69    68    1
    12    83    82    1
    13    83    84    1
    14    73    75   ar
    15    73    74   ar
    16    68    62   am
    17    63    62    2
    18    62    61    1
    19    60    61    1
    20    61    64    1
    21    34    33    1
    22    34    35    1
    23    64    65    1
    24    39    38    2
    25    33    32    1
    26    57    56    2
    27    38    37    1
    28    65    67    1
    29    65    66    1
    30    40    37    1
    31    40    41    1
    32    32    29    1
    33    56    55    1
    34    36    37    1
    35    36    30   am
    36    29    30    1
    37    29    28    1
    38    55    54    1
    39    55    58    1
    40    30    31    2
    41    20    19    2
    42    58    59    1
    43    28    19   am
    44    19    18    1
    45    24    26   ar
    46    24    22   ar
    47    26    27   ar
    48    18    21    1
    49    18    17    1
    50    21    22    1
    51    22    23   ar
    52    27    25   ar
    53    49    48    2
    54    43    42    1
    55    43    44    1
    56    17    12   am
    57    48    47    1
    58    23    25   ar
    59    44    45    2
    60    13    12    2
    61    12    11    1
    62    47    46    1
    63    47    50    1
    64    14    11    1
    65    14    15    1
    66    11    10    1
    67    50    51    1
    68    53    51    1
    69    15    16    1
    70    10    16    1
    71    10     3   am
    72    51    52    1
    73     4     3    2
    74     3     2    1
    75     5     2    1
    76     5     6    1
    77     2     1    1
    78     6     7    1
    79     7     8    1
    80     8     9    1
