@<TRIPOS>MOLECULE
tmp/5weoA00.pdb
 100 95 0 0 0
SMALL
GASTEIGER

@<TRIPOS>ATOM
      1  N        156.0170  130.2240  170.6230 N.3   441  TYR441     -0.1241
      2  CA       157.4190  130.4800  170.9010 C.3   441  TYR441      0.1605
      3  C        157.6450  130.7270  172.3770 C.2   441  TYR441      0.2264
      4  O        158.6860  130.3440  172.9190 O.2   441  TYR441     -0.2867
      5  CB       157.8900  131.6600  170.0640 C.3   441  TYR441      0.0534
      6  CG       158.0010  131.2990  168.6100 C.ar  441  TYR441     -0.0201
      7  CD1      158.2460  129.9890  168.2260 C.ar  441  TYR441     -0.0009
      8  CD2      157.7880  132.2420  167.6220 C.ar  441  TYR441     -0.0009
      9  CE1      158.3300  129.6410  166.9030 C.ar  441  TYR441      0.0417
     10  CE2      157.8630  131.8980  166.2860 C.ar  441  TYR441      0.0417
     11  CZ       158.1380  130.5950  165.9370 C.ar  441  TYR441      0.1957
     12  OH       158.2180  130.2340  164.6170 O.3   441  TYR441     -0.2866
     13  N        164.2080  128.0190  165.9490 N.3   469  PRO469     -0.2102
     14  CA       164.1900  129.4250  165.5400 C.3   469  PRO469      0.1504
     15  C        163.6540  130.3300  166.6350 C.2   469  PRO469      0.2576
     16  O        162.4710  130.6770  166.6590 O.2   469  PRO469     -0.2718
     17  CB       163.2800  129.4200  164.3060 C.3   469  PRO469      0.0282
     18  CG       162.4860  128.1910  164.4080 C.3   469  PRO469      0.0208
     19  CD       163.3890  127.1920  165.0480 C.3   469  PRO469      0.0893
     20  N        164.5210  130.7000  167.5670 N.am  470  LEU470     -0.1966
     21  CA       164.1280  131.5050  168.7110 C.3   470  LEU470      0.1728
     22  C        164.9810  132.7570  168.7560 C.2   470  LEU470      0.2616
     23  O        166.2110  132.6690  168.7840 O.2   470  LEU470     -0.2715
     24  CB       164.2820  130.7200  170.0060 C.3   470  LEU470      0.0311
     25  CG       163.9190  131.5380  171.2360 C.3   470  LEU470      0.0022
     26  CD1      162.4520  131.9100  171.1930 C.3   470  LEU470      0.0001
     27  CD2      164.2640  130.7730  172.4960 C.3   470  LEU470      0.0001
     28  N        164.3330  133.9130  168.7550 N.am  471  THR471     -0.1951
     29  CA       165.0520  135.1750  168.7770 C.3   471  THR471      0.1897
     30  C        165.4740  135.5100  170.1960 C.2   471  THR471      0.2313
     31  O        164.6830  135.3920  171.1350 O.2   471  THR471     -0.2863
     32  CB       164.1830  136.2950  168.2100 C.3   471  THR471      0.1794
     33  OG1      163.8570  135.9830  166.8560 O.3   471  THR471     -0.2208
     34  CG2      164.9070  137.6280  168.2300 C.3   471  THR471      0.0378
     35  N        163.7830  137.6480  177.5670 N.3   476  ARG476     -0.1245
     36  CA       164.1360  136.2400  177.5930 C.3   476  ARG476      0.1563
     37  C        165.4680  135.9960  178.2750 C.2   476  ARG476      0.2260
     38  O        165.7310  134.8710  178.7050 O.2   476  ARG476     -0.2867
     39  CB       164.1620  135.6940  176.1730 C.3   476  ARG476      0.0307
     40  CG       162.7850  135.5810  175.5770 C.3   476  ARG476      0.0489
     41  CD       162.8520  135.3580  174.0890 C.3   476  ARG476      0.2205
     42  NE       161.5200  135.3500  173.5030 N.pl3 476  ARG476     -0.0865
     43  CZ       161.2760  135.3120  172.2010 C.cat 476  ARG476      0.5346
     44  NH1      162.2770  135.2950  171.3310 N.pl3 476  ARG476      0.1354
     45  NH2      160.0250  135.3070  171.7730 N.pl3 476  ARG476      0.1354
     46  N        152.4550  137.5530  164.3990 N.3   626  LEU626     -0.1245
     47  CA       152.1540  136.2660  164.9900 C.3   626  LEU626      0.1561
     48  C        151.6900  136.4650  166.4240 C.2   626  LEU626      0.2260
     49  O        152.1980  137.3350  167.1360 O.2   626  LEU626     -0.2867
     50  CB       153.3890  135.3700  164.9700 C.3   626  LEU626      0.0270
     51  CG       153.0890  133.9080  165.2790 C.3   626  LEU626      0.0019
     52  CD1      152.2910  133.3610  164.1200 C.3   626  LEU626      0.0001
     53  CD2      154.3460  133.0960  165.5350 C.3   626  LEU626      0.0001
     54  N        154.2660  136.4460  169.6490 N.3   629  GLY629     -0.1210
     55  CA       155.4930  136.7990  168.9790 C.3   629  GLY629      0.1956
     56  C        156.1880  137.9400  169.6900 C.2   629  GLY629      0.2613
     57  O        155.5490  138.8130  170.2700 O.2   629  GLY629     -0.2717
     58  N        157.5200  137.9130  169.6340 N.am  630  SER630     -0.1938
     59  CA       158.3100  138.9870  170.2220 C.3   630  SER630      0.2055
     60  C        158.0790  140.2960  169.4940 C.2   630  SER630      0.2643
     61  O        158.1280  141.3610  170.1120 O.2   630  SER630     -0.2714
     62  CB       159.7910  138.6310  170.1790 C.3   630  SER630      0.2130
     63  OG       160.2460  138.5780  168.8410 O.3   630  SER630     -0.2179
     64  N        157.8160  140.2230  168.1900 N.am  631  THR631     -0.1950
     65  CA       157.5020  141.4160  167.4200 C.3   631  THR631      0.1897
     66  C        156.1820  142.0180  167.8690 C.2   631  THR631      0.2313
     67  O        156.0670  143.2410  168.0260 O.2   631  THR631     -0.2863
     68  CB       157.4530  141.0640  165.9410 C.3   631  THR631      0.1794
     69  OG1      158.6850  140.4340  165.5730 O.3   631  THR631     -0.2208
     70  CG2      157.2820  142.2970  165.1200 C.3   631  THR631      0.0378
     71  N        159.8880  137.5030  159.5070 N.3   681  GLU681     -0.1245
     72  CA       161.3230  137.6980  159.5620 C.3   681  GLU681      0.1567
     73  C        161.9500  137.6060  158.1880 C.2   681  GLU681      0.2260
     74  O        161.3590  137.0960  157.2350 O.2   681  GLU681     -0.2867
     75  CB       161.9670  136.6740  160.4710 C.3   681  GLU681      0.0388
     76  CG       161.5050  136.8030  161.8750 C.3   681  GLU681      0.1160
     77  CD       162.1290  135.7720  162.7570 C.2   681  GLU681      0.3649
     78  OE1      162.8930  134.9350  162.2290 O.co2 681  GLU681     -0.2457
     79  OE2      161.8510  135.7880  163.9740 O.co2 681  GLU681     -0.2457
     80  N        168.2340  141.4360  164.5670 N.3   706  LYS706     -0.1245
     81  CA       168.0140  140.4200  165.5680 C.3   706  LYS706      0.1561
     82  C        168.8630  139.2120  165.2230 C.2   706  LYS706      0.2260
     83  O        169.5800  139.1960  164.2230 O.2   706  LYS706     -0.2867
     84  CB       166.5340  140.0670  165.6460 C.3   706  LYS706      0.0271
     85  CG       165.6910  141.2360  166.0850 C.3   706  LYS706      0.0035
     86  CD       164.2470  140.8320  166.2320 C.3   706  LYS706      0.0206
     87  CE       163.6270  140.5900  164.8680 C.3   706  LYS706      0.1093
     88  NZ       162.1660  140.3150  164.9560 N.3   706  LYS706     -0.1314
     89  N        169.0380  134.7210  166.0690 N.3   708  TYR708     -0.1241
     90  CA       168.7340  133.4920  166.7690 C.3   708  TYR708      0.1605
     91  C        169.9390  133.0360  167.5690 C.2   708  TYR708      0.2264
     92  O        171.0800  133.1900  167.1350 O.2   708  TYR708     -0.2867
     93  CB       168.3540  132.4040  165.7820 C.3   708  TYR708      0.0534
     94  CG       167.0140  132.5600  165.1410 C.ar  708  TYR708     -0.0201
     95  CD1      166.0510  133.3790  165.6900 C.ar  708  TYR708     -0.0009
     96  CD2      166.7160  131.8830  163.9750 C.ar  708  TYR708     -0.0009
     97  CE1      164.8150  133.5020  165.1120 C.ar  708  TYR708      0.0417
     98  CE2      165.4960  132.0140  163.3710 C.ar  708  TYR708      0.0417
     99  CZ       164.5420  132.8190  163.9470 C.ar  708  TYR708      0.1957
    100  OH       163.3160  132.9470  163.3550 O.3   708  TYR708     -0.2866
@<TRIPOS>BOND
     1    74    73    2
     2    73    72    1
     3    71    72    1
     4    72    75    1
     5    75    76    1
     6    76    77    1
     7    78    77   ar
     8    77    79   ar
     9   100    99    1
    10    98    99   ar
    11    98    96   ar
    12    99    97   ar
    13    96    94   ar
    14    52    51    1
    15    83    82    2
    16    17    18    1
    17    17    14    1
    18    46    47    1
    19    18    19    1
    20    80    81    1
    21    12    11    1
    22    87    88    1
    23    87    86    1
    24    50    47    1
    25    50    51    1
    26    47    48    1
    27    19    13    1
    28    97    95   ar
    29    70    68    1
    30    94    95   ar
    31    94    93    1
    32    82    81    1
    33    51    53    1
    34    14    13    1
    35    14    15    1
    36    81    84    1
    37    69    68    1
    38    84    85    1
    39    93    90    1
    40    11    10   ar
    41    11     9   ar
    42    68    65    1
    43    89    90    1
    44    85    86    1
    45    10     8   ar
    46    48    49    2
    47    15    16    2
    48    15    20   am
    49    90    91    1
    50    33    32    1
    51     9     7   ar
    52    92    91    2
    53    65    66    1
    54    65    64    1
    55    20    21    1
    56     8     6   ar
    57    66    67    2
    58    64    60   am
    59    32    34    1
    60    32    29    1
    61     7     6   ar
    62     6     5    1
    63    21    22    1
    64    21    24    1
    65    28    22   am
    66    28    29    1
    67    22    23    2
    68    29    30    1
    69    63    62    1
    70    55    54    1
    71    55    56    1
    72    60    61    2
    73    60    59    1
    74    58    56   am
    75    58    59    1
    76    56    57    2
    77    24    25    1
    78     5     2    1
    79    62    59    1
    80    30    31    2
    81     1     2    1
    82     2     3    1
    83    26    25    1
    84    25    27    1
    85    44    43    1
    86    45    43    1
    87    43    42    2
    88     3     4    2
    89    42    41    1
    90    41    40    1
    91    40    39    1
    92    39    36    1
    93    35    36    1
    94    36    37    1
    95    37    38    2
