@<TRIPOS>MOLECULE
tmp/5wevA00.pdb
 150 144 0 0 0
SMALL
GASTEIGER

@<TRIPOS>ATOM
      1  N          6.4600  -28.7280  -29.5280 N.3    21  GLN21      -0.1245
      2  CA         6.3730  -27.2990  -29.2640 C.3    21  GLN21       0.1566
      3  C          7.7270  -26.6240  -29.1010 C.2    21  GLN21       0.2260
      4  O          8.6950  -27.2460  -28.6600 O.2    21  GLN21      -0.2867
      5  CB         5.5400  -27.0210  -28.0220 C.3    21  GLN21       0.0367
      6  CG         4.7510  -25.7330  -28.1820 C.3    21  GLN21       0.0905
      7  CD         4.3750  -25.1230  -26.8700 C.2    21  GLN21       0.2608
      8  OE1        4.9780  -25.4170  -25.8370 O.2    21  GLN21      -0.2717
      9  NE2        3.3740  -24.2590  -26.8950 N.am   21  GLN21      -0.0878
     10  N          9.8460  -24.0680  -27.0100 N.3    23  LEU23      -0.1231
     11  CA         9.7920  -23.6640  -25.6030 C.3    23  LEU23       0.1693
     12  C         10.4680  -22.3290  -25.2640 C.2    23  LEU23       0.2593
     13  O         10.1550  -21.7230  -24.2340 O.2    23  LEU23      -0.2718
     14  CB        10.3400  -24.7760  -24.6870 C.3    23  LEU23       0.0284
     15  CG         9.6510  -26.1510  -24.6780 C.3    23  LEU23       0.0019
     16  CD1       10.3740  -27.0920  -23.7240 C.3    23  LEU23       0.0001
     17  CD2        8.1670  -26.0460  -24.3350 C.3    23  LEU23       0.0001
     18  N         11.3720  -21.8640  -26.1160 N.am   24  GLY24      -0.1942
     19  CA        12.0790  -20.6050  -25.8570 C.3    24  GLY24       0.2014
     20  C         13.4310  -20.5800  -26.5300 C.2    24  GLY24       0.2638
     21  O         14.0950  -21.6160  -26.6030 O.2    24  GLY24      -0.2714
     22  N         13.8300  -19.3970  -27.0070 N.am   25  LYS25      -0.1977
     23  CA        15.0470  -19.2170  -27.8190 C.3    25  LYS25       0.1596
     24  C         16.1380  -18.4160  -27.1090 C.2    25  LYS25       0.2287
     25  O         15.9110  -17.2930  -26.6650 O.2    25  LYS25      -0.2864
     26  CB        14.7150  -18.5820  -29.1820 C.3    25  LYS25       0.0298
     27  CG        13.9220  -19.4890  -30.1100 C.3    25  LYS25       0.0038
     28  CD        13.7930  -18.9230  -31.5130 C.3    25  LYS25       0.0206
     29  CE        13.2680  -19.9950  -32.4590 C.3    25  LYS25       0.1093
     30  NZ        12.7940  -19.4380  -33.7540 N.3    25  LYS25      -0.1314
     31  N         15.1680  -24.3880  -27.0140 N.3    28  VAL28      -0.1245
     32  CA        14.6690  -25.6350  -26.4560 C.3    28  VAL28       0.1561
     33  C         13.3090  -25.9470  -27.0860 C.2    28  VAL28       0.2260
     34  O         12.4430  -25.0680  -27.1950 O.2    28  VAL28      -0.2867
     35  CB        14.5830  -25.5730  -24.9070 C.3    28  VAL28       0.0252
     36  CG1       14.1130  -26.9040  -24.3250 C.3    28  VAL28       0.0019
     37  CG2       15.9410  -25.2080  -24.3040 C.3    28  VAL28       0.0019
     38  N         12.6670  -32.7910  -23.5060 N.3    45  ALA45      -0.1245
     39  CA        13.1150  -31.4720  -23.9470 C.3    45  ALA45       0.1562
     40  C         14.3890  -31.6340  -24.7660 C.2    45  ALA45       0.2260
     41  O         15.2320  -32.4990  -24.4680 O.2    45  ALA45      -0.2867
     42  CB        13.3250  -30.5260  -22.7680 C.3    45  ALA45       0.0290
     43  N         17.9760  -31.2000  -13.1630 N.3    76  VAL76      -0.1245
     44  CA        17.3790  -31.6390  -14.4500 C.3    76  VAL76       0.1561
     45  C         18.0520  -32.9130  -14.9780 C.2    76  VAL76       0.2260
     46  O         19.2760  -32.9850  -15.0230 O.2    76  VAL76      -0.2867
     47  CB        17.4640  -30.5270  -15.5250 C.3    76  VAL76       0.0252
     48  CG1       16.8590  -30.9920  -16.8410 C.3    76  VAL76       0.0019
     49  CG2       16.7490  -29.2780  -15.0580 C.3    76  VAL76       0.0019
     50  N         16.9610  -33.9990  -22.7480 N.3    94  MET94      -0.1230
     51  CA        16.8060  -33.9520  -21.2870 C.3    94  MET94       0.1702
     52  C         15.3420  -34.1110  -20.8830 C.2    94  MET94       0.2592
     53  O         14.4520  -34.0700  -21.7280 O.2    94  MET94      -0.2718
     54  CB        17.4120  -32.6540  -20.7360 C.3    94  MET94       0.0401
     55  CG        16.7010  -31.3970  -21.1820 C.3    94  MET94       0.0596
     56  SD        17.6420  -29.9050  -20.8010 S.3    94  MET94      -0.1393
     57  CE        17.1290  -28.9390  -22.2180 C.3    94  MET94       0.0692
     58  N         15.0710  -34.2970  -19.5950 N.am   95  GLU95      -0.1966
     59  CA        13.6720  -34.4270  -19.1950 C.3    95  GLU95       0.1733
     60  C         12.9310  -33.1020  -19.4320 C.2    95  GLU95       0.2616
     61  O         13.5330  -32.0180  -19.3950 O.2    95  GLU95      -0.2715
     62  CB        13.5110  -34.9190  -17.7450 C.3    95  GLU95       0.0429
     63  CG        13.7610  -33.8490  -16.7090 C.3    95  GLU95       0.1163
     64  CD        13.5240  -34.3010  -15.2840 C.2    95  GLU95       0.3649
     65  OE1       14.4000  -34.0140  -14.4590 O.co2  95  GLU95      -0.2457
     66  OE2       12.4780  -34.9070  -14.9750 O.co2  95  GLU95      -0.2457
     67  N         11.6390  -33.2200  -19.7210 N.am   96  TYR96      -0.1960
     68  CA        10.7590  -32.0630  -19.8490 C.3    96  TYR96       0.1771
     69  C         10.0940  -31.7760  -18.4920 C.2    96  TYR96       0.2619
     70  O          9.5160  -32.6790  -17.8810 O.2    96  TYR96      -0.2715
     71  CB         9.7060  -32.3120  -20.9360 C.3    96  TYR96       0.0574
     72  CG         8.6430  -31.2440  -20.9600 C.ar   96  TYR96      -0.0198
     73  CD1        8.9380  -29.9590  -21.4180 C.ar   96  TYR96      -0.0009
     74  CD2        7.3490  -31.5110  -20.5000 C.ar   96  TYR96      -0.0009
     75  CE1        7.9670  -28.9610  -21.4250 C.ar   96  TYR96       0.0417
     76  CE2        6.3790  -30.5120  -20.4940 C.ar   96  TYR96       0.0417
     77  CZ         6.6910  -29.2490  -20.9620 C.ar   96  TYR96       0.1957
     78  OH         5.7240  -28.2600  -20.9510 O.3    96  TYR96      -0.2866
     79  N         10.1760  -30.5250  -18.0480 N.am   97  LEU97      -0.1964
     80  CA         9.6030  -30.0990  -16.7730 C.3    97  LEU97       0.1713
     81  C          8.3970  -29.1930  -17.0380 C.2    97  LEU97       0.2458
     82  O          8.5730  -28.0500  -17.4630 O.2    97  LEU97      -0.2730
     83  CB        10.6700  -29.4140  -15.9120 C.3    97  LEU97       0.0310
     84  CG        11.7810  -30.4260  -15.5790 C.3    97  LEU97       0.0022
     85  CD1       13.0080  -29.8010  -14.9460 C.3    97  LEU97       0.0001
     86  CD2       11.2410  -31.5260  -14.6800 C.3    97  LEU97       0.0001
     87  N          7.1680  -29.7190  -16.8200 N.am   98  PRO98      -0.2716
     88  CA         5.9190  -29.0480  -17.2560 C.3    98  PRO98       0.1536
     89  C          5.7000  -27.6160  -16.8070 C.2    98  PRO98       0.2599
     90  O          5.1340  -26.8320  -17.5600 O.2    98  PRO98      -0.2715
     91  CB         4.8100  -29.9680  -16.7250 C.3    98  PRO98       0.0310
     92  CG         5.4540  -31.3040  -16.6510 C.3    98  PRO98       0.0237
     93  CD         6.8710  -31.0290  -16.2020 C.3    98  PRO98       0.0939
     94  N          6.1960  -27.2470  -15.6300 N.am   99  TYR99      -0.1960
     95  CA         5.9030  -25.9060  -15.1260 C.3    99  TYR99       0.1771
     96  C          6.9280  -24.8320  -15.4650 C.2    99  TYR99       0.2620
     97  O          6.7500  -23.6700  -15.0980 O.2    99  TYR99      -0.2715
     98  CB         5.5410  -25.9470  -13.6360 C.3    99  TYR99       0.0574
     99  CG         4.2330  -26.6530  -13.4230 C.ar   99  TYR99      -0.0198
    100  CD1        3.0210  -25.9860  -13.6270 C.ar   99  TYR99      -0.0009
    101  CD2        4.1990  -28.0090  -13.0870 C.ar   99  TYR99      -0.0009
    102  CE1        1.8090  -26.6400  -13.4530 C.ar   99  TYR99       0.0417
    103  CE2        2.9920  -28.6710  -12.9190 C.ar   99  TYR99       0.0417
    104  CZ         1.8050  -27.9780  -13.1090 C.ar   99  TYR99       0.1957
    105  OH         0.6080  -28.6190  -12.9380 O.3    99  TYR99      -0.2866
    106  N          7.9790  -25.2140  -16.1880 N.am  100  GLY100     -0.1940
    107  CA         8.9380  -24.2520  -16.7180 C.3   100  GLY100      0.2014
    108  C          9.7630  -23.6260  -15.6290 C.2   100  GLY100      0.2639
    109  O          9.9860  -24.2500  -14.5950 O.2   100  GLY100     -0.2714
    110  N         10.2020  -22.3910  -15.8520 N.am  101  SER101     -0.1949
    111  CA        11.1210  -21.7670  -14.9190 C.3   101  SER101      0.1924
    112  C         10.3900  -21.3460  -13.6540 C.2   101  SER101      0.2314
    113  O          9.2000  -20.9790  -13.6760 O.2   101  SER101     -0.2863
    114  CB        11.8750  -20.5920  -15.5580 C.3   101  SER101      0.2116
    115  OG        11.1290  -19.4000  -15.4760 O.3   101  SER101     -0.2180
    116  N         15.0800  -17.7990  -12.9010 N.3   145  ARG145     -0.1231
    117  CA        14.8580  -18.1330  -14.3200 C.3   145  ARG145      0.1694
    118  C         15.5560  -19.4370  -14.7590 C.2   145  ARG145      0.2592
    119  O         15.1860  -20.0270  -15.7730 O.2   145  ARG145     -0.2718
    120  CB        15.2350  -16.9620  -15.2450 C.3   145  ARG145      0.0321
    121  CG        16.7300  -16.6640  -15.3540 C.3   145  ARG145      0.0489
    122  CD        17.0280  -15.8080  -16.5830 C.3   145  ARG145      0.2205
    123  NE        16.3760  -14.4960  -16.5180 N.pl3 145  ARG145     -0.0865
    124  CZ        15.8980  -13.8180  -17.5630 C.cat 145  ARG145      0.5346
    125  NH1       15.9790  -14.3070  -18.7980 N.pl3 145  ARG145      0.1354
    126  NH2       15.3240  -12.6380  -17.3680 N.pl3 145  ARG145      0.1354
    127  N         16.5610  -19.8690  -13.9950 N.am  146  ASN146     -0.1974
    128  CA        17.3840  -21.0420  -14.3480 C.3   146  ASN146      0.1688
    129  C         17.1120  -22.2600  -13.4730 C.2   146  ASN146      0.2292
    130  O         17.8450  -23.2480  -13.5280 O.2   146  ASN146     -0.2864
    131  CB        18.8730  -20.6670  -14.2910 C.3   146  ASN146      0.1181
    132  CG        19.1960  -19.5120  -15.2060 C.2   146  ASN146      0.2629
    133  OD1       19.9500  -18.5930  -14.8530 O.2   146  ASN146     -0.2716
    134  ND2       18.5880  -19.5290  -16.3800 N.am  146  ASN146     -0.0877
    135  N         14.0200  -24.9520  -12.5800 N.3   148  LEU148     -0.1245
    136  CA        12.8370  -25.4910  -13.2540 C.3   148  LEU148      0.1561
    137  C         11.9060  -26.2240  -12.2980 C.2   148  LEU148      0.2260
    138  O         12.3440  -26.7680  -11.2920 O.2   148  LEU148     -0.2867
    139  CB        13.2620  -26.3910  -14.4090 C.3   148  LEU148      0.0270
    140  CG        13.9920  -25.7000  -15.5750 C.3   148  LEU148      0.0019
    141  CD1       14.5090  -26.7330  -16.5550 C.3   148  LEU148      0.0001
    142  CD2       13.0890  -24.7250  -16.3080 C.3   148  LEU148      0.0001
    143  N         20.2360  -25.1760  -16.5850 N.3   159  ASP159     -0.1239
    144  CA        21.0940  -24.1330  -17.1480 C.3   159  ASP159      0.1674
    145  C         22.5890  -24.3080  -16.7710 C.2   159  ASP159      0.2266
    146  O         23.1830  -23.4580  -16.0930 O.2   159  ASP159     -0.2867
    147  CB        20.5190  -22.7550  -16.7320 C.3   159  ASP159      0.1410
    148  CG        21.4120  -21.5730  -17.1130 C.2   159  ASP159      0.3668
    149  OD1       21.7420  -21.4080  -18.3030 O.co2 159  ASP159     -0.2456
    150  OD2       21.7630  -20.7940  -16.1990 O.co2 159  ASP159     -0.2456
@<TRIPOS>BOND
     1    30    29    1
     2    29    28    1
     3    28    27    1
     4    27    26    1
     5     1     2    1
     6     2     3    1
     7     2     5    1
     8    26    23    1
     9     3     4    2
    10     6     5    1
    11     6     7    1
    12    23    24    1
    13    23    22    1
    14    34    33    2
    15    24    25    2
    16    33    32    1
    17    31    32    1
    18    10    11    1
    19    22    20   am
    20     9     7   am
    21     7     8    2
    22    21    20    2
    23    20    19    1
    24    32    35    1
    25    18    19    1
    26    18    12   am
    27    11    12    1
    28    11    14    1
    29    12    13    2
    30    35    36    1
    31    35    37    1
    32    40    41    2
    33    40    39    1
    34    14    15    1
    35    15    17    1
    36    15    16    1
    37    39    38    1
    38    39    42    1
    39    50    51    1
    40    57    56    1
    41    53    52    2
    42    75    73   ar
    43    75    77   ar
    44    73    72   ar
    45    51    52    1
    46    51    54    1
    47    55    56    1
    48    55    54    1
    49    77    78    1
    50    77    76   ar
    51    72    71    1
    52    72    74   ar
    53    71    68    1
    54    52    58   am
    55    74    76   ar
    56    68    67    1
    57    68    69    1
    58    67    60   am
    59    58    59    1
    60    60    61    2
    61    60    59    1
    62    59    62    1
    63   125   124    1
    64    69    79   am
    65    69    70    2
    66   149   148   ar
    67    79    80    1
    68    62    63    1
    69   124   126    1
    70   124   123    2
    71    90    89    2
    72    82    81    2
    73    88    87    1
    74    88    89    1
    75    88    91    1
    76   144   145    1
    77   144   147    1
    78   144   143    1
    79   148   147    1
    80   148   150   ar
    81    81    87   am
    82    81    80    1
    83    48    47    1
    84    87    93    1
    85    89    94   am
    86    80    83    1
    87   145   146    2
    88    91    92    1
    89   107   106    1
    90   107   108    1
    91    63    64    1
    92    92    93    1
    93   122   123    1
    94   122   121    1
    95   141   140    1
    96   134   132   am
    97   142   140    1
    98   106    96   am
    99    83    84    1
   100   110   108   am
   101   110   111    1
   102   119   118    2
   103    94    95    1
   104   108   109    2
   105    84    85    1
   106    84    86    1
   107   140   139    1
   108   114   115    1
   109   114   111    1
   110    47    49    1
   111    47    44    1
   112    96    95    1
   113    96    97    2
   114   121   120    1
   115    64    66   ar
   116    64    65   ar
   117   120   117    1
   118   132   133    2
   119   132   131    1
   120    95    98    1
   121    46    45    2
   122    45    44    1
   123   111   112    1
   124   118   117    1
   125   118   127   am
   126    44    43    1
   127   139   136    1
   128   128   131    1
   129   128   127    1
   130   128   129    1
   131   117   116    1
   132   113   112    2
   133    98    99    1
   134   100   102   ar
   135   100    99   ar
   136   130   129    2
   137   102   104   ar
   138    99   101   ar
   139   136   135    1
   140   136   137    1
   141   104   105    1
   142   104   103   ar
   143   101   103   ar
   144   137   138    2
