@<TRIPOS>MOLECULE
tmp/5wewH00.pdb
 101 97 0 0 0
SMALL
GASTEIGER

@<TRIPOS>ATOM
      1  N        -22.4090   44.1500  -13.3850 N.3    65  TYR65      -0.1241
      2  CA       -21.6880   44.0430  -14.6480 C.3    65  TYR65       0.1605
      3  C        -22.4620   44.6000  -15.8400 C.2    65  TYR65       0.2264
      4  O        -21.9140   44.6280  -16.9480 O.2    65  TYR65      -0.2867
      5  CB       -21.3120   42.5800  -14.9040 C.3    65  TYR65       0.0534
      6  CG       -20.3280   42.3800  -16.0340 C.ar   65  TYR65      -0.0201
      7  CD1      -19.0340   42.8740  -15.9440 C.ar   65  TYR65      -0.0009
      8  CD2      -20.6890   41.6960  -17.1880 C.ar   65  TYR65      -0.0009
      9  CE1      -18.1280   42.6970  -16.9680 C.ar   65  TYR65       0.0417
     10  CE2      -19.7880   41.5130  -18.2210 C.ar   65  TYR65       0.0417
     11  CZ       -18.5080   42.0170  -18.1030 C.ar   65  TYR65       0.1957
     12  OH       -17.6000   41.8430  -19.1200 O.3    65  TYR65      -0.2866
     13  N        -23.5630   46.6090  -18.7310 N.3    67  HIS67      -0.1241
     14  CA       -22.8630   47.6380  -19.4840 C.3    67  HIS67       0.1621
     15  C        -23.4090   47.6940  -20.9030 C.2    67  HIS67       0.2264
     16  O        -24.1160   46.7930  -21.3590 O.2    67  HIS67      -0.2867
     17  CB       -21.3480   47.3960  -19.4970 C.3    67  HIS67       0.0745
     18  CG       -20.9360   46.1620  -20.2390 C.ar   67  HIS67       0.0817
     19  ND1      -20.6830   44.9630  -19.6060 N.ar   67  HIS67      -0.2268
     20  CD2      -20.7290   45.9410  -21.5580 C.ar   67  HIS67       0.1154
     21  CE1      -20.3360   44.0590  -20.5040 C.ar   67  HIS67       0.1986
     22  NE2      -20.3590   44.6250  -21.6970 N.ar   67  HIS67      -0.2212
     23  N        -12.5430   48.3090  -16.3120 N.3    93  LYS93      -0.1245
     24  CA       -12.2820   46.8990  -16.5710 C.3    93  LYS93       0.1561
     25  C        -11.2370   46.7760  -17.6720 C.2    93  LYS93       0.2260
     26  O        -11.1920   47.5960  -18.5940 O.2    93  LYS93      -0.2867
     27  CB       -13.5750   46.1670  -16.9620 C.3    93  LYS93       0.0271
     28  CG       -13.4180   44.7020  -17.3310 C.3    93  LYS93       0.0035
     29  CD       -14.7800   44.0410  -17.4660 C.3    93  LYS93       0.0206
     30  CE       -14.6620   42.6280  -18.0000 C.3    93  LYS93       0.1093
     31  NZ       -14.4770   42.6020  -19.4710 N.3    93  LYS93      -0.1314
     32  N        -10.0000   41.2530  -21.8420 N.3    96  ARG96      -0.1231
     33  CA        -9.4660   39.8980  -21.8380 C.3    96  ARG96       0.1694
     34  C        -10.0450   38.9980  -22.9180 C.2    96  ARG96       0.2592
     35  O         -9.4650   37.9360  -23.1770 O.2    96  ARG96      -0.2718
     36  CB        -9.6940   39.2350  -20.4710 C.3    96  ARG96       0.0321
     37  CG        -8.8090   39.8140  -19.3720 C.3    96  ARG96       0.0489
     38  CD        -8.8890   38.9300  -18.1240 C.3    96  ARG96       0.2205
     39  NE       -10.2460   38.9140  -17.5890 N.pl3  96  ARG96      -0.0865
     40  CZ       -10.7710   39.8890  -16.8510 C.cat  96  ARG96       0.5346
     41  NH1      -10.0510   40.9480  -16.5030 N.pl3  96  ARG96       0.1354
     42  NH2      -12.0310   39.8000  -16.4310 N.pl3  96  ARG96       0.1354
     43  N        -11.1510   39.3720  -23.5550 N.am   97  SER97      -0.1952
     44  CA       -11.7950   38.5360  -24.5530 C.3    97  SER97       0.1924
     45  C        -11.3290   38.9290  -25.9530 C.2    97  SER97       0.2314
     46  O        -10.5370   39.8560  -26.1410 O.2    97  SER97      -0.2863
     47  CB       -13.3170   38.6340  -24.4310 C.3    97  SER97       0.2116
     48  OG       -13.8130   39.9410  -24.6280 O.3    97  SER97      -0.2180
     49  N        -13.3750   49.5620  -21.7370 N.3   103  TYR103     -0.1241
     50  CA       -14.4430   49.7030  -20.7570 C.3   103  TYR103      0.1605
     51  C        -14.2730   51.0340  -20.0390 C.2   103  TYR103      0.2264
     52  O        -13.2680   51.2480  -19.3530 O.2   103  TYR103     -0.2867
     53  CB       -14.4120   48.5410  -19.7670 C.3   103  TYR103      0.0534
     54  CG       -14.4860   47.1910  -20.4400 C.ar  103  TYR103     -0.0201
     55  CD1      -13.3320   46.5430  -20.8650 C.ar  103  TYR103     -0.0009
     56  CD2      -15.7050   46.5680  -20.6590 C.ar  103  TYR103     -0.0009
     57  CE1      -13.3920   45.3140  -21.4840 C.ar  103  TYR103      0.0417
     58  CE2      -15.7740   45.3370  -21.2750 C.ar  103  TYR103      0.0417
     59  CZ       -14.6160   44.7160  -21.6880 C.ar  103  TYR103      0.1957
     60  OH       -14.6830   43.4880  -22.3040 O.3   103  TYR103     -0.2866
     61  N        -18.6430   50.7030  -23.0710 N.3   113  GLU113     -0.1245
     62  CA       -17.6030   49.8880  -23.6770 C.3   113  GLU113      0.1567
     63  C        -17.4890   50.2350  -25.1530 C.2   113  GLU113      0.2260
     64  O        -18.4960   50.4940  -25.8160 O.2   113  GLU113     -0.2867
     65  CB       -17.8930   48.3910  -23.4970 C.3   113  GLU113      0.0388
     66  CG       -16.8630   47.4700  -24.1330 C.3   113  GLU113      0.1160
     67  CD       -17.2830   46.0130  -24.1070 C.2   113  GLU113      0.3649
     68  OE1      -18.3340   45.7050  -23.5090 O.co2 113  GLU113     -0.2457
     69  OE2      -16.5590   45.1750  -24.6850 O.co2 113  GLU113     -0.2457
     70  N        -17.8390   36.7300  -32.6970 N.3   122  ARG122     -0.1245
     71  CA       -17.7180   36.2220  -31.3340 C.3   122  ARG122      0.1563
     72  C        -18.1320   34.7580  -31.2640 C.2   122  ARG122      0.2260
     73  O        -17.4410   33.9350  -30.6510 O.2   122  ARG122     -0.2867
     74  CB       -18.5590   37.0720  -30.3810 C.3   122  ARG122      0.0307
     75  CG       -18.6460   36.5220  -28.9610 C.3   122  ARG122      0.0489
     76  CD       -17.2780   36.3770  -28.3110 C.3   122  ARG122      0.2205
     77  NE       -16.6340   37.6650  -28.0690 N.pl3 122  ARG122     -0.0865
     78  CZ       -16.6130   38.2780  -26.8900 C.cat 122  ARG122      0.5346
     79  NH1      -17.2020   37.7210  -25.8400 N.pl3 122  ARG122      0.1354
     80  NH2      -16.0040   39.4480  -26.7580 N.pl3 122  ARG122      0.1354
     81  N        -16.0390   28.6820  -24.1210 N.3   131  TYR131     -0.1227
     82  CA       -16.0200   28.9080  -22.6860 C.3   131  TYR131      0.1736
     83  C        -16.4360   27.6380  -21.9470 C.2   131  TYR131      0.2595
     84  O        -16.9130   26.6660  -22.5390 O.2   131  TYR131     -0.2718
     85  CB       -16.9340   30.0750  -22.3060 C.3   131  TYR131      0.0548
     86  CG       -16.6850   31.3560  -23.0770 C.ar  131  TYR131     -0.0200
     87  CD1      -15.4590   31.6080  -23.6860 C.ar  131  TYR131     -0.0009
     88  CD2      -17.6740   32.3240  -23.1800 C.ar  131  TYR131     -0.0009
     89  CE1      -15.2370   32.7780  -24.3900 C.ar  131  TYR131      0.0417
     90  CE2      -17.4620   33.4940  -23.8810 C.ar  131  TYR131      0.0417
     91  CZ       -16.2410   33.7180  -24.4820 C.ar  131  TYR131      0.1957
     92  OH       -16.0240   34.8850  -25.1780 O.3   131  TYR131     -0.2866
     93  N        -16.2390   27.6530  -20.6310 N.am  132  LYS132     -0.1980
     94  CA       -16.5740   26.5000  -19.8050 C.3   132  LYS132      0.1596
     95  C        -18.0610   26.1840  -19.8960 C.2   132  LYS132      0.2287
     96  O        -18.9060   27.0430  -19.6220 O.2   132  LYS132     -0.2864
     97  CB       -16.1750   26.7720  -18.3570 C.3   132  LYS132      0.0298
     98  CG       -16.4710   25.6340  -17.3940 C.3   132  LYS132      0.0038
     99  CD       -15.9540   25.9630  -16.0020 C.3   132  LYS132      0.0206
    100  CE       -16.6010   25.0920  -14.9370 C.3   132  LYS132      0.1093
    101  NZ       -16.1820   25.4930  -13.5630 N.3   132  LYS132     -0.1314
@<TRIPOS>BOND
     1    70    71    1
     2    71    72    1
     3    71    74    1
     4    72    73    2
     5    74    75    1
     6    75    76    1
     7    76    77    1
     8    77    78    2
     9    78    80    1
    10    78    79    1
    11    46    45    2
    12    45    44    1
    13    64    63    2
    14    92    91    1
    15    63    62    1
    16    69    67   ar
    17    48    47    1
    18    44    47    1
    19    44    43    1
    20    91    89   ar
    21    91    90   ar
    22    89    87   ar
    23    66    67    1
    24    66    65    1
    25    81    82    1
    26    67    68   ar
    27    90    88   ar
    28    87    86   ar
    29    62    65    1
    30    62    61    1
    31    43    34   am
    32    88    86   ar
    33    35    34    2
    34    86    85    1
    35    34    33    1
    36    82    85    1
    37    82    83    1
    38    84    83    2
    39    60    59    1
    40    83    93   am
    41    32    33    1
    42    33    36    1
    43    49    50    1
    44    22    20   ar
    45    22    21   ar
    46    59    57   ar
    47    59    58   ar
    48    20    18   ar
    49    57    55   ar
    50    16    15    2
    51    58    56   ar
    52    15    14    1
    53    55    54   ar
    54    50    51    1
    55    50    53    1
    56    56    54   ar
    57    93    94    1
    58    21    19   ar
    59    36    37    1
    60    54    53    1
    61    18    19   ar
    62    18    17    1
    63    51    52    2
    64    95    94    1
    65    95    96    2
    66    94    97    1
    67    17    14    1
    68    14    13    1
    69    31    30    1
    70    37    38    1
    71    12    11    1
    72    26    25    2
    73    97    98    1
    74    10    11   ar
    75    10     8   ar
    76    38    39    1
    77    11     9   ar
    78    30    29    1
    79    25    24    1
    80    39    40    2
    81    29    28    1
    82    98    99    1
    83    28    27    1
    84     8     6   ar
    85     9     7   ar
    86    27    24    1
    87     4     3    2
    88    40    41    1
    89    40    42    1
    90    24    23    1
    91     6     7   ar
    92     6     5    1
    93    99   100    1
    94     3     2    1
    95   100   101    1
    96     5     2    1
    97     2     1    1
