@<TRIPOS>MOLECULE
tmp/5weyA00.pdb
 87 83 0 0 0
SMALL
GASTEIGER

@<TRIPOS>ATOM
      1  N         17.7180   23.3050   22.0510 N.3    12  TYR12      -0.1241
      2  CA        16.9410   24.1000   23.0070 C.3    12  TYR12       0.1605
      3  C         16.7680   23.4350   24.3610 C.2    12  TYR12       0.2264
      4  O         16.1960   22.3740   24.4520 O.2    12  TYR12      -0.2867
      5  CB        15.5650   24.4030   22.4320 C.3    12  TYR12       0.0534
      6  CG        14.8380   25.4850   23.1870 C.ar   12  TYR12      -0.0201
      7  CD1       15.1290   26.8160   22.9550 C.ar   12  TYR12      -0.0009
      8  CD2       13.8890   25.1760   24.1450 C.ar   12  TYR12      -0.0009
      9  CE1       14.4960   27.8140   23.6490 C.ar   12  TYR12       0.0417
     10  CE2       13.2440   26.1680   24.8440 C.ar   12  TYR12       0.0417
     11  CZ        13.5490   27.4820   24.5960 C.ar   12  TYR12       0.1957
     12  OH        12.9000   28.4720   25.3120 O.3    12  TYR12      -0.2866
     13  N         14.9660   22.4210   27.3650 N.3    14  ASN14      -0.1240
     14  CA        13.6280   22.3450   27.9290 C.3    14  ASN14       0.1653
     15  C         13.8520   21.7970   29.3190 C.2    14  ASN14       0.2266
     16  O         13.7080   20.6010   29.5550 O.2    14  ASN14      -0.2867
     17  CB        12.7240   21.3820   27.1490 C.3    14  ASN14       0.1155
     18  CG        12.4650   21.8360   25.7250 C.2    14  ASN14       0.2627
     19  OD1       13.2370   21.5530   24.8210 O.2    14  ASN14      -0.2716
     20  ND2       11.3750   22.5590   25.5270 N.am   14  ASN14      -0.0877
     21  N         12.1240   21.9920   31.9130 N.3    16  ASP16      -0.1239
     22  CA        10.9060   21.4520   32.5260 C.3    16  ASP16       0.1674
     23  C         10.7060   19.9660   32.2540 C.2    16  ASP16       0.2266
     24  O          9.8540   19.3250   32.8720 O.2    16  ASP16      -0.2867
     25  CB         9.6700   22.2470   32.0860 C.3    16  ASP16       0.1410
     26  CG         9.4470   22.2110   30.5830 C.2    16  ASP16       0.3668
     27  OD1       10.4350   22.0870   29.8280 O.co2  16  ASP16      -0.2456
     28  OD2        8.2820   22.3530   30.1510 O.co2  16  ASP16      -0.2456
     29  N          9.5130   24.9370   17.2030 N.3    98  GLY98      -0.1210
     30  CA         8.2660   25.1500   17.9170 C.3    98  GLY98       0.1956
     31  C          8.1190   26.6480   18.0480 C.2    98  GLY98       0.2612
     32  O          7.9250   27.3170   17.0450 O.2    98  GLY98      -0.2717
     33  N          8.2800   27.1810   19.2590 N.am   99  LEU99      -0.1965
     34  CA         8.2170   28.6300   19.4640 C.3    99  LEU99       0.1728
     35  C          9.4230   29.2760   18.8100 C.2    99  LEU99       0.2616
     36  O          9.2800   30.2530   18.0990 O.2    99  LEU99      -0.2715
     37  CB         8.1800   29.0110   20.9460 C.3    99  LEU99       0.0311
     38  CG         8.2600   30.5200   21.2380 C.3    99  LEU99       0.0022
     39  CD1        7.1630   31.3010   20.5010 C.3    99  LEU99       0.0001
     40  CD2        8.1370   30.7690   22.7320 C.3    99  LEU99       0.0001
     41  N         10.6080   28.7020   19.0300 N.am  100  TYR100     -0.1974
     42  CA        11.8440   29.2000   18.4160 C.3   100  TYR100      0.1639
     43  C         12.2330   28.2320   17.3260 C.2   100  TYR100      0.2290
     44  O         11.8240   27.0780   17.3440 O.2   100  TYR100     -0.2864
     45  CB        12.9610   29.3860   19.4370 C.3   100  TYR100      0.0560
     46  CG        12.6000   30.4390   20.4440 C.ar  100  TYR100     -0.0198
     47  CD1       12.1760   30.0830   21.7170 C.ar  100  TYR100     -0.0009
     48  CD2       12.6350   31.7930   20.1110 C.ar  100  TYR100     -0.0009
     49  CE1       11.8020   31.0430   22.6350 C.ar  100  TYR100      0.0417
     50  CE2       12.2660   32.7620   21.0310 C.ar  100  TYR100      0.0417
     51  CZ        11.8500   32.3780   22.2890 C.ar  100  TYR100      0.1957
     52  OH        11.4690   33.3260   23.2100 O.3   100  TYR100     -0.2866
     53  N         16.0210   26.4170   17.9970 N.3   207  ALA207     -0.1231
     54  CA        15.2960   25.2700   18.5140 C.3   207  ALA207      0.1694
     55  C         14.6220   24.5940   17.3330 C.2   207  ALA207      0.2592
     56  O         14.2620   25.2630   16.3880 O.2   207  ALA207     -0.2718
     57  CB        14.2520   25.7240   19.5460 C.3   207  ALA207      0.0304
     58  N         14.4400   23.2690   17.4020 N.am  208  ASP208     -0.1974
     59  CA        14.5560   22.4470   18.6170 C.3   208  ASP208      0.1709
     60  C         15.6610   21.3960   18.5620 C.2   208  ASP208      0.2293
     61  O         16.0970   20.9050   19.5970 O.2   208  ASP208     -0.2864
     62  CB        13.2260   21.7620   18.8920 C.3   208  ASP208      0.1436
     63  CG        12.3240   22.6020   19.7530 C.2   208  ASP208      0.3671
     64  OD1       12.4860   22.5160   20.9900 O.co2 208  ASP208     -0.2456
     65  OD2       11.4940   23.3580   19.1960 O.co2 208  ASP208     -0.2456
     66  N          5.8350   18.1450   17.5740 N.3   226  THR226     -0.1203
     67  CA         6.6180   19.2960   17.1410 C.3   226  THR226      0.1994
     68  C          7.3900   19.8020   18.3440 C.2   226  THR226      0.2618
     69  O          7.1560   19.3690   19.4670 O.2   226  THR226     -0.2717
     70  CB         5.7170   20.4240   16.6200 C.3   226  THR226      0.1784
     71  OG1        4.7700   20.7940   17.6010 O.3   226  THR226     -0.2211
     72  CG2        4.9660   20.0970   15.3470 C.3   226  THR226      0.0376
     73  N          8.3000   20.7390   18.1250 N.am  227  GLY227     -0.1942
     74  CA         9.0220   21.2860   19.2450 C.3   227  GLY227      0.2014
     75  C          9.9300   20.3120   19.9590 C.2   227  GLY227      0.2638
     76  O         10.6940   19.5830   19.3410 O.2   227  GLY227     -0.2714
     77  N          9.8720   20.3580   21.2790 N.am  228  ARG228     -0.1977
     78  CA        10.7210   19.5640   22.1490 C.3   228  ARG228      0.1597
     79  C         10.7040   18.0620   21.9670 C.2   228  ARG228      0.2287
     80  O         11.6230   17.3870   22.4370 O.2   228  ARG228     -0.2864
     81  CB        10.4210   19.9140   23.5960 C.3   228  ARG228      0.0334
     82  CG         9.0860   19.4040   24.0760 C.3   228  ARG228      0.0492
     83  CD         8.7130   20.1160   25.3430 C.3   228  ARG228      0.2205
     84  NE         7.5870   19.4810   25.9960 N.pl3 228  ARG228     -0.0865
     85  CZ         7.2560   19.7010   27.2640 C.cat 228  ARG228      0.5346
     86  NH1        7.8370   20.6890   27.9590 N.pl3 228  ARG228      0.1354
     87  NH2        6.3270   18.9390   27.8320 N.pl3 228  ARG228      0.1354
@<TRIPOS>BOND
     1    72    70    1
     2    56    55    2
     3    70    67    1
     4    70    71    1
     5    32    31    2
     6    67    66    1
     7    67    68    1
     8    29    30    1
     9    43    44    2
    10    43    42    1
    11    55    58   am
    12    55    54    1
    13    58    59    1
    14    30    31    1
    15    53    54    1
    16    31    33   am
    17    36    35    2
    18    73    68   am
    19    73    74    1
    20    68    69    2
    21    42    41    1
    22    42    45    1
    23    54    57    1
    24    60    59    1
    25    60    61    2
    26    59    62    1
    27    35    41   am
    28    35    34    1
    29    62    63    1
    30    65    63   ar
    31    74    75    1
    32    33    34    1
    33    76    75    2
    34    45    46    1
    35    34    37    1
    36    63    64   ar
    37    75    77   am
    38    48    46   ar
    39    48    50   ar
    40    46    47   ar
    41    39    38    1
    42    37    38    1
    43    50    51   ar
    44    38    40    1
    45    77    78    1
    46    47    49   ar
    47    79    78    1
    48    79    80    2
    49     1     2    1
    50    78    81    1
    51    51    49   ar
    52    51    52    1
    53     5     2    1
    54     5     6    1
    55     7     6   ar
    56     7     9   ar
    57     2     3    1
    58     6     8   ar
    59    81    82    1
    60     9    11   ar
    61    82    83    1
    62     8    10   ar
    63     3     4    2
    64    11    10   ar
    65    11    12    1
    66    19    18    2
    67    83    84    1
    68    20    18   am
    69    18    17    1
    70    84    85    2
    71    17    14    1
    72    85    87    1
    73    85    86    1
    74    13    14    1
    75    14    15    1
    76    15    16    2
    77    27    26   ar
    78    28    26   ar
    79    26    25    1
    80    21    22    1
    81    25    22    1
    82    23    22    1
    83    23    24    2
