@<TRIPOS>MOLECULE
tmp/5wf3A00.pdb
 174 165 0 0 0
SMALL
GASTEIGER

@<TRIPOS>ATOM
      1  N        133.6950  199.6330  273.6050 N.3    24  ALA24      -0.1231
      2  CA       133.7210  198.6910  274.7210 C.3    24  ALA24       0.1694
      3  C        133.1330  197.3430  274.3210 C.2    24  ALA24       0.2591
      4  O        133.7280  196.2880  274.5800 O.2    24  ALA24      -0.2718
      5  CB       132.9620  199.2750  275.9130 C.3    24  ALA24       0.0304
      6  N        131.9590  197.3580  273.6870 N.am   25  MET25      -0.1979
      7  CA       131.3220  196.1090  273.2860 C.3    25  MET25       0.1605
      8  C        132.1370  195.3910  272.2230 C.2    25  MET25       0.2287
      9  O        132.3070  194.1670  272.2860 O.2    25  MET25      -0.2864
     10  CB       129.9060  196.3800  272.7840 C.3    25  MET25       0.0413
     11  CG       128.9700  196.8790  273.8690 C.3    25  MET25       0.0598
     12  SD       127.2510  197.0510  273.3480 S.3    25  MET25      -0.1393
     13  CE       126.7950  195.3480  273.0210 C.3    25  MET25       0.0692
     14  N        135.0810  193.4920  273.4590 N.3    28  TYR28      -0.1241
     15  CA       134.6750  192.2400  274.0770 C.3    28  TYR28       0.1605
     16  C        133.8500  191.3680  273.1380 C.2    28  TYR28       0.2264
     17  O        133.2600  190.3800  273.5840 O.2    28  TYR28      -0.2867
     18  CB       133.8990  192.5160  275.3690 C.3    28  TYR28       0.0534
     19  CG       134.7770  192.9290  276.5370 C.ar   28  TYR28      -0.0201
     20  CD1      134.9750  192.0800  277.6210 C.ar   28  TYR28      -0.0009
     21  CD2      135.4070  194.1700  276.5550 C.ar   28  TYR28      -0.0009
     22  CE1      135.7770  192.4550  278.6890 C.ar   28  TYR28       0.0417
     23  CE2      136.2130  194.5520  277.6160 C.ar   28  TYR28       0.0417
     24  CZ       136.3940  193.6930  278.6800 C.ar   28  TYR28       0.1957
     25  OH       137.1940  194.0740  279.7360 O.3    28  TYR28      -0.2866
     26  N        130.9870  191.9220  271.1250 N.3    30  GLU30      -0.1245
     27  CA       129.5360  192.0200  271.0350 C.3    30  GLU30       0.1567
     28  C        129.1700  193.2230  270.1760 C.2    30  GLU30       0.2260
     29  O        129.9330  194.1870  270.0780 O.2    30  GLU30      -0.2867
     30  CB       128.8860  192.1320  272.4210 C.3    30  GLU30       0.0388
     31  CG       129.6380  191.3860  273.5150 C.3    30  GLU30       0.1160
     32  CD       128.7300  190.8770  274.6240 C.2    30  GLU30       0.3649
     33  OE1      129.0170  189.7920  275.1770 O.co2  30  GLU30      -0.2457
     34  OE2      127.7380  191.5640  274.9490 O.co2  30  GLU30      -0.2457
     35  N        122.0320  195.6420  276.2400 N.3    38  LYS38      -0.1245
     36  CA       123.3560  195.7700  276.7690 C.3    38  LYS38       0.1561
     37  C        124.0000  197.0830  276.3470 C.2    38  LYS38       0.2260
     38  O        124.7480  197.6620  277.0700 O.2    38  LYS38      -0.2867
     39  CB       124.1800  194.6340  276.2810 C.3    38  LYS38       0.0271
     40  CG       125.2510  194.2040  277.2300 C.3    38  LYS38       0.0035
     41  CD       125.7430  192.8540  276.7870 C.3    38  LYS38       0.0206
     42  CE       126.6650  192.2020  277.7840 C.3    38  LYS38       0.1093
     43  NZ       126.7310  190.7400  277.4870 N.3    38  LYS38      -0.1314
     44  N        122.7170  199.6280  278.5940 N.3    41  ALA41      -0.1231
     45  CA       123.2360  199.5380  279.9550 C.3    41  ALA41       0.1694
     46  C        124.6610  200.0760  280.0440 C.2    41  ALA41       0.2591
     47  O        125.0170  200.7380  281.0270 O.2    41  ALA41      -0.2718
     48  CB       123.1610  198.0900  280.4460 C.3    41  ALA41       0.0304
     49  N        125.4840  199.8280  279.0200 N.am   42  ILE42      -0.1980
     50  CA       126.8700  200.2900  279.0560 C.3    42  ILE42       0.1595
     51  C        126.9360  201.8060  278.9270 C.2    42  ILE42       0.2287
     52  O        127.7470  202.4640  279.5930 O.2    42  ILE42      -0.2864
     53  CB       127.6930  199.5830  277.9660 C.3    42  ILE42       0.0276
     54  CG1      127.8900  198.1240  278.3530 C.3    42  ILE42       0.0022
     55  CG2      129.0530  200.2580  277.7700 C.3    42  ILE42       0.0022
     56  CD1      128.1140  197.2200  277.1830 C.3    42  ILE42       0.0001
     57  N        125.8940  203.0760  282.4250 N.3    45  HIS45      -0.1226
     58  CA       126.9820  202.9140  283.3810 C.3    45  HIS45       0.1752
     59  C        128.0970  203.9140  283.1050 C.2    45  HIS45       0.2595
     60  O        128.6660  204.5000  284.0340 O.2    45  HIS45      -0.2718
     61  CB       127.4960  201.4750  283.3170 C.3    45  HIS45       0.0759
     62  CG       128.6170  201.1780  284.2620 C.ar   45  HIS45       0.0818
     63  ND1      129.9420  201.3470  283.9190 N.ar   45  HIS45      -0.2268
     64  CD2      128.6150  200.6810  285.5240 C.ar   45  HIS45       0.1154
     65  CE1      130.7060  200.9950  284.9390 C.ar   45  HIS45       0.1986
     66  NE2      129.9260  200.5810  285.9230 N.ar   45  HIS45      -0.2212
     67  N        128.3970  204.1500  281.8290 N.am   46  LEU46      -0.1980
     68  CA       129.4180  205.1310  281.4760 C.3    46  LEU46       0.1596
     69  C        129.0280  206.5290  281.9450 C.2    46  LEU46       0.2287
     70  O        129.8260  207.2320  282.5800 O.2    46  LEU46      -0.2864
     71  CB       129.6450  205.1160  279.9680 C.3    46  LEU46       0.0297
     72  CG       130.8700  204.3610  279.4710 C.3    46  LEU46       0.0022
     73  CD1      130.8370  204.2910  277.9520 C.3    46  LEU46       0.0001
     74  CD2      132.1320  205.0490  279.9530 C.3    46  LEU46       0.0001
     75  N        137.1650  203.4380  283.9540 N.3    65  GLU65      -0.1245
     76  CA       136.1680  202.9940  282.9900 C.3    65  GLU65       0.1567
     77  C        136.2270  203.8740  281.7480 C.2    65  GLU65       0.2260
     78  O        136.5830  205.0550  281.8110 O.2    65  GLU65      -0.2867
     79  CB       134.7660  203.0330  283.6190 C.3    65  GLU65       0.0388
     80  CG       133.6200  202.5960  282.7010 C.3    65  GLU65       0.1160
     81  CD       133.7680  201.1680  282.2110 C.2    65  GLU65       0.3649
     82  OE1      133.7470  200.2450  283.0520 O.co2  65  GLU65      -0.2457
     83  OE2      133.9190  200.9700  280.9840 O.co2  65  GLU65      -0.2457
     84  N        138.8610  194.9290  286.8830 N.3    91  LEU91      -0.1231
     85  CA       138.9590  196.3460  286.5740 C.3    91  LEU91       0.1678
     86  C        137.9270  197.1360  287.3690 C.2    91  LEU91       0.2434
     87  O        136.7260  196.8390  287.2750 O.2    91  LEU91      -0.2733
     88  CB       138.7510  196.5760  285.0810 C.3    91  LEU91       0.0284
     89  CG       139.9990  196.6490  284.2040 C.3    91  LEU91       0.0019
     90  CD1      139.6290  197.0850  282.7940 C.3    91  LEU91       0.0001
     91  CD2      141.0240  197.5920  284.8090 C.3    91  LEU91       0.0001
     92  N        138.3380  198.1180  288.1610 N.am   92  PRO92      -0.2718
     93  CA       137.3840  199.0240  288.8050 C.3    92  PRO92       0.1535
     94  C        136.9920  200.1290  287.8290 C.2    92  PRO92       0.2598
     95  O        137.4350  200.1600  286.6810 O.2    92  PRO92      -0.2715
     96  CB       138.1830  199.5670  289.9880 C.3    92  PRO92       0.0310
     97  CG       139.5810  199.6150  289.4570 C.3    92  PRO92       0.0237
     98  CD       139.7300  198.4480  288.5130 C.3    92  PRO92       0.0939
     99  N        136.1550  201.0540  288.3080 N.am   93  ASP93      -0.1972
    100  CA       135.6800  202.1580  287.4790 C.3    93  ASP93       0.1709
    101  C        136.3980  203.4690  287.7490 C.2    93  ASP93       0.2293
    102  O        136.5830  204.2620  286.8200 O.2    93  ASP93      -0.2864
    103  CB       134.1750  202.3750  287.6770 C.3    93  ASP93       0.1436
    104  CG       133.3460  201.2060  287.1730 C.2    93  ASP93       0.3671
    105  OD1      132.4110  200.7810  287.8840 O.co2  93  ASP93      -0.2456
    106  OD2      133.6340  200.7060  286.0660 O.co2  93  ASP93      -0.2456
    107  N        134.0490  200.5400  292.2090 N.3   104  ASP104     -0.1225
    108  CA       133.2690  199.9720  291.1160 C.3   104  ASP104      0.1805
    109  C        131.8280  200.4290  291.2760 C.2   104  ASP104      0.2598
    110  O        131.1710  200.1150  292.2770 O.2   104  ASP104     -0.2718
    111  CB       133.3430  198.4470  291.0740 C.3   104  ASP104      0.1424
    112  CG       132.7690  197.8730  289.7740 C.2   104  ASP104      0.3668
    113  OD1      131.8230  198.4610  289.2020 O.co2 104  ASP104     -0.2456
    114  OD2      133.2770  196.8350  289.3080 O.co2 104  ASP104     -0.2456
    115  N        131.3520  201.1450  290.2930 N.am  105  ILE105     -0.1966
    116  CA       130.0060  201.6870  290.2730 C.3   105  ILE105      0.1727
    117  C        129.0860  200.6730  289.6170 C.2   105  ILE105      0.2617
    118  O        129.4270  200.0750  288.5900 O.2   105  ILE105     -0.2715
    119  CB       129.9940  203.0250  289.5220 C.3   105  ILE105      0.0290
    120  CG1      131.0340  203.9590  290.1500 C.3   105  ILE105      0.0022
    121  CG2      128.5960  203.6120  289.5020 C.3   105  ILE105      0.0023
    122  CD1      130.7820  205.4060  289.9140 C.3   105  ILE105      0.0001
    123  N        127.9300  200.4620  290.2210 N.am  106  GLY106     -0.1940
    124  CA       126.9470  199.5260  289.7020 C.3   106  GLY106      0.2014
    125  C        125.6360  200.2450  289.4250 C.2   106  GLY106      0.2638
    126  O        125.2220  201.1050  290.1980 O.2   106  GLY106     -0.2714
    127  N        125.0090  199.8920  288.3110 N.am  107  VAL107     -0.1977
    128  CA       123.6770  200.3790  287.9720 C.3   107  VAL107      0.1596
    129  C        122.8190  199.1500  287.7370 C.2   107  VAL107      0.2287
    130  O        123.1640  198.3010  286.9050 O.2   107  VAL107     -0.2864
    131  CB       123.6860  201.2910  286.7360 C.3   107  VAL107      0.0276
    132  CG1      122.2730  201.5930  286.3110 C.3   107  VAL107      0.0022
    133  CG2      124.4300  202.5760  287.0240 C.3   107  VAL107      0.0022
    134  N        118.6930  197.2090  287.8150 N.3   109  ARG109     -0.1245
    135  CA       117.2380  197.2480  287.8180 C.3   109  ARG109      0.1563
    136  C        116.6410  196.3070  288.8540 C.2   109  ARG109      0.2260
    137  O        115.4150  196.2300  288.9690 O.2   109  ARG109     -0.2867
    138  CB       116.6930  196.9020  286.4290 C.3   109  ARG109      0.0307
    139  CG       117.1950  197.8140  285.3190 C.3   109  ARG109      0.0489
    140  CD       117.4640  197.0510  284.0220 C.3   109  ARG109      0.2205
    141  NE       118.8960  196.9070  283.7610 N.pl3 109  ARG109     -0.0865
    142  CZ       119.4200  196.3710  282.6600 C.cat 109  ARG109      0.5346
    143  NH1      118.6360  195.9220  281.6870 N.pl3 109  ARG109      0.1354
    144  NH2      120.7380  196.2860  282.5330 N.pl3 109  ARG109      0.1354
    145  N        121.9120  192.9520  293.9230 N.3   115  TYR115     -0.1241
    146  CA       123.0390  193.1620  293.0210 C.3   115  TYR115      0.1605
    147  C        124.3390  193.4000  293.7790 C.2   115  TYR115      0.2264
    148  O        125.4110  193.0150  293.2940 O.2   115  TYR115     -0.2867
    149  CB       122.7660  194.3380  292.0760 C.3   115  TYR115      0.0534
    150  CG       123.8900  194.6300  291.0910 C.ar  115  TYR115     -0.0201
    151  CD1      124.4280  193.6240  290.2930 C.ar  115  TYR115     -0.0009
    152  CD2      124.4040  195.9160  290.9500 C.ar  115  TYR115     -0.0009
    153  CE1      125.4560  193.8910  289.3830 C.ar  115  TYR115      0.0417
    154  CE2      125.4260  196.1920  290.0430 C.ar  115  TYR115      0.0417
    155  CZ       125.9490  195.1780  289.2640 C.ar  115  TYR115      0.1957
    156  OH       126.9660  195.4590  288.3690 O.3   115  TYR115     -0.2866
    157  N        128.0160  191.5560  293.1040 N.3   119  LYS119     -0.1245
    158  CA       129.2020  192.3290  292.7430 C.3   119  LYS119      0.1561
    159  C        130.2920  192.2170  293.8030 C.2   119  LYS119      0.2260
    160  O        131.4810  192.3370  293.4850 O.2   119  LYS119     -0.2867
    161  CB       128.8340  193.7960  292.5090 C.3   119  LYS119      0.0271
    162  CG       129.9480  194.7400  292.1940 C.3   119  LYS119      0.0035
    163  CD       130.8450  194.3360  291.0700 C.3   119  LYS119      0.0206
    164  CE       130.1930  194.3920  289.7220 C.3   119  LYS119      0.1093
    165  NZ       131.2110  194.2750  288.5980 N.3   119  LYS119     -0.1314
    166  N        131.7620  188.5010  293.5970 N.3   122  LYS122     -0.1245
    167  CA       132.4360  188.3310  292.3120 C.3   122  LYS122      0.1561
    168  C        133.8010  189.0060  292.3060 C.2   122  LYS122      0.2260
    169  O        134.7720  188.4490  291.7820 O.2   122  LYS122     -0.2867
    170  CB       131.5700  188.8800  291.1780 C.3   122  LYS122      0.0271
    171  CG       132.2100  188.7650  289.7970 C.3   122  LYS122      0.0035
    172  CD       131.2000  189.1450  288.7130 C.3   122  LYS122      0.0206
    173  CE       131.8050  188.9810  287.3270 C.3   122  LYS122      0.1093
    174  NZ       132.6250  190.1680  286.9570 N.3   122  LYS122     -0.1314
@<TRIPOS>BOND
     1    29    28    2
     2    28    27    1
     3    27    26    1
     4    27    30    1
     5     8     9    2
     6     8     7    1
     7    30    31    1
     8    10     7    1
     9    10    11    1
    10    13    12    1
    11    16    17    2
    12    16    15    1
    13     7     6    1
    14    12    11    1
    15    14    15    1
    16    31    32    1
    17     1     2    1
    18     6     3   am
    19    15    18    1
    20     3     4    2
    21     3     2    1
    22    32    34   ar
    23    32    33   ar
    24     2     5    1
    25    18    19    1
    26    35    36    1
    27    39    36    1
    28    39    40    1
    29    37    36    1
    30    37    38    2
    31    19    21   ar
    32    19    20   ar
    33    21    23   ar
    34    41    40    1
    35    41    42    1
    36    56    54    1
    37    43    42    1
    38    23    24   ar
    39    20    22   ar
    40    55    53    1
    41    73    72    1
    42    53    54    1
    43    53    50    1
    44    44    45    1
    45    24    22   ar
    46    24    25    1
    47    51    50    1
    48    51    52    2
    49    49    50    1
    50    49    46   am
    51    72    74    1
    52    72    71    1
    53    45    46    1
    54    45    48    1
    55    71    68    1
    56    46    47    2
    57    83    81   ar
    58    68    67    1
    59    68    69    1
    60   143   142    1
    61    77    78    2
    62    77    76    1
    63    67    59   am
    64    69    70    2
    65    81    80    1
    66    81    82   ar
    67    57    58    1
    68   144   142    1
    69   142   141    2
    70    80    79    1
    71    90    89    1
    72    76    79    1
    73    76    75    1
    74    59    58    1
    75    59    60    2
    76    61    58    1
    77    61    62    1
    78   141   140    1
    79    63    62   ar
    80    63    65   ar
    81   140   139    1
    82    89    91    1
    83    89    88    1
    84    62    64   ar
    85    65    66   ar
    86    88    85    1
    87   139   138    1
    88    64    66   ar
    89   106   104   ar
    90   132   131    1
    91   138   135    1
    92    85    84    1
    93    85    86    1
    94    95    94    2
    95   131   133    1
    96   131   128    1
    97   102   101    2
    98   130   129    2
    99   174   173    1
   100   104   103    1
   101   104   105   ar
   102    87    86    2
   103   173   172    1
   104    86    92   am
   105   100   103    1
   106   100   101    1
   107   100    99    1
   108   129   128    1
   109   134   135    1
   110   135   136    1
   111    94    99   am
   112    94    93    1
   113   128   127    1
   114    92    98    1
   115    92    93    1
   116   127   125   am
   117   156   155    1
   118    98    97    1
   119   118   117    2
   120   165   164    1
   121   172   171    1
   122    93    96    1
   123   136   137    2
   124   113   112   ar
   125   155   153   ar
   126   155   154   ar
   127   114   112   ar
   128   153   151   ar
   129   125   124    1
   130   125   126    2
   131    97    96    1
   132   121   119    1
   133   119   120    1
   134   119   116    1
   135   117   123   am
   136   117   116    1
   137   124   123    1
   138   164   163    1
   139   112   111    1
   140   171   170    1
   141   122   120    1
   142   154   152   ar
   143   116   115    1
   144   151   150   ar
   145   115   109   am
   146   152   150   ar
   147   163   162    1
   148   111   108    1
   149   150   149    1
   150   108   109    1
   151   108   107    1
   152   170   167    1
   153   109   110    2
   154   169   168    2
   155   149   146    1
   156   162   161    1
   157   168   167    1
   158   167   166    1
   159   161   158    1
   160   158   157    1
   161   158   159    1
   162   146   147    1
   163   146   145    1
   164   148   147    2
   165   160   159    2
