@<TRIPOS>MOLECULE
tmp/5wf7B00.pdb
 156 155 0 0 0
SMALL
GASTEIGER

@<TRIPOS>ATOM
      1  N        -16.1070    1.7740  -22.2330 N.3   102  PRO102     -0.2102
      2  CA       -16.8430    0.4970  -22.2840 C.3   102  PRO102      0.1504
      3  C        -17.6750    0.3480  -23.5520 C.2   102  PRO102      0.2576
      4  O        -18.0200    1.3230  -24.2270 O.2   102  PRO102     -0.2718
      5  CB       -17.7460    0.5450  -21.0430 C.3   102  PRO102      0.0282
      6  CG       -17.8680    2.0180  -20.7260 C.3   102  PRO102      0.0208
      7  CD       -16.5170    2.6200  -21.1030 C.3   102  PRO102      0.0893
      8  N        -18.0060   -0.9070  -23.8670 N.am  103  TYR103     -0.1963
      9  CA       -18.8660   -1.2020  -25.0040 C.3   103  TYR103      0.1771
     10  C        -19.3660   -2.6310  -24.8800 C.2   103  TYR103      0.2619
     11  O        -18.7940   -3.4410  -24.1420 O.2   103  TYR103     -0.2715
     12  CB       -18.1270   -1.0140  -26.3290 C.3   103  TYR103      0.0574
     13  CG       -16.9470   -1.9620  -26.5260 C.ar  103  TYR103     -0.0198
     14  CD1      -17.1410   -3.2700  -26.9730 C.ar  103  TYR103     -0.0009
     15  CD2      -15.6340   -1.5400  -26.2850 C.ar  103  TYR103     -0.0009
     16  CE1      -16.0440   -4.1490  -27.1540 C.ar  103  TYR103      0.0417
     17  CE2      -14.5660   -2.3850  -26.4650 C.ar  103  TYR103      0.0417
     18  CZ       -14.7720   -3.6910  -26.9030 C.ar  103  TYR103      0.1957
     19  OH       -13.6930   -4.5490  -27.0770 O.3   103  TYR103     -0.2866
     20  N        -20.4100   -2.9450  -25.6440 N.am  104  ARG104     -0.1963
     21  CA       -20.9690   -4.2910  -25.7120 C.3   104  ARG104      0.1729
     22  C        -20.9760   -4.7580  -27.1630 C.2   104  ARG104      0.2616
     23  O        -21.3320   -3.9870  -28.0590 O.2   104  ARG104     -0.2715
     24  CB       -22.3950   -4.3510  -25.1430 C.3   104  ARG104      0.0348
     25  CG       -22.4850   -4.1830  -23.6090 C.3   104  ARG104      0.0492
     26  CD       -21.5100   -5.1070  -22.8280 C.3   104  ARG104      0.2205
     27  NE       -21.4980   -4.8190  -21.3890 N.pl3 104  ARG104     -0.0865
     28  CZ       -20.5090   -4.1960  -20.7380 C.cat 104  ARG104      0.5346
     29  NH1      -20.5940   -3.9750  -19.4190 N.pl3 104  ARG104      0.1354
     30  NH2      -19.4310   -3.7920  -21.3950 N.pl3 104  ARG104      0.1354
     31  N        -20.5700   -6.0240  -27.3760 N.am  105  PHE105     -0.1974
     32  CA       -20.5470   -6.7180  -28.6650 C.3   105  PHE105      0.1639
     33  C        -19.3370   -6.3110  -29.4900 C.2   105  PHE105      0.2290
     34  O        -18.7330   -5.2640  -29.2510 O.2   105  PHE105     -0.2864
     35  CB       -21.7950   -6.4580  -29.5220 C.3   105  PHE105      0.0560
     36  CG       -23.0870   -6.5510  -28.8010 C.ar  105  PHE105     -0.0200
     37  CD1      -23.4970   -7.7360  -28.2410 C.ar  105  PHE105     -0.0042
     38  CD2      -23.9230   -5.4550  -28.7260 C.ar  105  PHE105     -0.0042
     39  CE1      -24.7300   -7.8300  -27.5840 C.ar  105  PHE105     -0.0003
     40  CE2      -25.1520   -5.5350  -28.0670 C.ar  105  PHE105     -0.0003
     41  CZ       -25.5530   -6.7290  -27.5010 C.ar  105  PHE105     -0.0000
     42  N        -18.1000   -4.6910  -32.6590 N.3   107  HIS107     -0.1241
     43  CA       -18.6730   -3.7680  -33.6280 C.3   107  HIS107      0.1621
     44  C        -17.9920   -3.9990  -34.9720 C.2   107  HIS107      0.2264
     45  O        -16.7890   -3.7580  -35.1130 O.2   107  HIS107     -0.2867
     46  CB       -18.5210   -2.3400  -33.1030 C.3   107  HIS107      0.0745
     47  CG       -19.2280   -2.1260  -31.8020 C.ar  107  HIS107      0.0817
     48  ND1      -19.0530   -1.0070  -31.0160 N.ar  107  HIS107     -0.2268
     49  CD2      -20.1260   -2.9090  -31.1490 C.ar  107  HIS107      0.1154
     50  CE1      -19.8170   -1.1070  -29.9380 C.ar  107  HIS107      0.1986
     51  NE2      -20.4620   -2.2610  -29.9860 N.ar  107  HIS107     -0.2212
     52  N        -21.0180   10.4950  -21.8510 N.3   510  CYS510     -0.1221
     53  CA       -20.8820    9.5620  -22.9540 C.3   510  CYS510      0.1808
     54  C        -19.5760    8.7960  -22.8250 C.2   510  CYS510      0.2602
     55  O        -18.6730    9.1750  -22.0740 O.2   510  CYS510     -0.2717
     56  CB       -20.9240   10.3120  -24.2840 C.3   510  CYS510      0.0970
     57  SG       -22.2000   11.6010  -24.3270 S.3   510  CYS510     -0.0800
     58  N        -19.4910    7.6990  -23.5660 N.am  511  GLY511     -0.1942
     59  CA       -18.2750    6.9120  -23.6820 C.3   511  GLY511      0.2014
     60  C        -17.5130    7.3290  -24.8910 C.2   511  GLY511      0.2638
     61  O        -16.7000    8.2840  -24.8630 O.2   511  GLY511     -0.2714
     62  N        -17.7470    6.6710  -26.0320 N.am  512  TYR512     -0.1973
     63  CA       -17.0890    7.0080  -27.2780 C.3   512  TYR512      0.1639
     64  C        -17.7950    8.1840  -27.9580 C.2   512  TYR512      0.2290
     65  O        -18.9710    8.4720  -27.7050 O.2   512  TYR512     -0.2864
     66  CB       -17.0730    5.7980  -28.2180 C.3   512  TYR512      0.0560
     67  CG       -16.2210    4.6520  -27.7300 C.ar  512  TYR512     -0.0198
     68  CD1      -14.8540    4.6290  -28.0170 C.ar  512  TYR512     -0.0009
     69  CD2      -16.7730    3.5850  -26.9760 C.ar  512  TYR512     -0.0009
     70  CE1      -14.0320    3.5810  -27.5900 C.ar  512  TYR512      0.0417
     71  CE2      -15.9440    2.5180  -26.5370 C.ar  512  TYR512      0.0417
     72  CZ       -14.5720    2.5370  -26.8590 C.ar  512  TYR512      0.1957
     73  OH       -13.7090    1.5480  -26.4550 O.3   512  TYR512     -0.2866
     74  N        -31.7350   -6.9020  -24.5110 N.3   546  ARG546     -0.1231
     75  CA       -30.6290   -6.0390  -24.1210 C.3   546  ARG546      0.1694
     76  C        -30.9050   -5.2950  -22.8200 C.2   546  ARG546      0.2592
     77  O        -30.2080   -4.3300  -22.5140 O.2   546  ARG546     -0.2718
     78  CB       -30.3260   -5.0390  -25.2400 C.3   546  ARG546      0.0321
     79  CG       -29.4980   -5.6080  -26.3810 C.3   546  ARG546      0.0489
     80  CD       -29.7480   -4.8850  -27.6870 C.3   546  ARG546      0.2205
     81  NE       -29.3580   -5.7100  -28.8300 N.pl3 546  ARG546     -0.0865
     82  CZ       -29.4030   -5.3020  -30.0950 C.cat 546  ARG546      0.5346
     83  NH1      -29.8160   -4.0710  -30.3850 N.pl3 546  ARG546      0.1354
     84  NH2      -29.0400   -6.1240  -31.0680 N.pl3 546  ARG546      0.1354
     85  N        -31.9220   -5.7020  -22.0650 N.am  547  GLY547     -0.1957
     86  CA       -32.2020   -5.0930  -20.7820 C.3   547  GLY547      0.1869
     87  C        -32.7070   -3.6740  -20.8310 C.2   547  GLY547      0.2309
     88  O        -32.7690   -3.0160  -19.7900 O.2   547  GLY547     -0.2863
     89  N        -30.9110    2.5870  -23.1520 N.3   552  VAL552     -0.1245
     90  CA       -29.7530    1.7910  -23.5420 C.3   552  VAL552      0.1561
     91  C        -29.8480    1.2940  -24.9840 C.2   552  VAL552      0.2260
     92  O        -28.8240    0.8800  -25.5590 O.2   552  VAL552     -0.2867
     93  CB       -29.5600    0.6120  -22.5560 C.3   552  VAL552      0.0252
     94  CG1      -28.5540   -0.4350  -23.0580 C.3   552  VAL552      0.0019
     95  CG2      -29.1610    1.1450  -21.1700 C.3   552  VAL552      0.0019
     96  N        -27.5300   -0.3260  -35.2750 N.3   568  ALA568     -0.1231
     97  CA       -26.0970   -0.4760  -35.4830 C.3   568  ALA568      0.1694
     98  C        -25.3830   -1.0270  -34.2490 C.2   568  ALA568      0.2591
     99  O        -24.1780   -0.8110  -34.0890 O.2   568  ALA568     -0.2718
    100  CB       -25.4680    0.8540  -35.9090 C.3   568  ALA568      0.0304
    101  N        -26.1040   -1.7480  -33.3880 N.am  569  ALA569     -0.1980
    102  CA       -25.5220   -2.2190  -32.1390 C.3   569  ALA569      0.1597
    103  C        -24.2990   -3.0780  -32.3840 C.2   569  ALA569      0.2287
    104  O        -23.3410   -3.0550  -31.6020 O.2   569  ALA569     -0.2864
    105  CB       -26.5550   -3.0210  -31.3500 C.3   569  ALA569      0.0319
    106  N        -22.1910    5.1260  -35.7990 N.3   576  ARG576     -0.1231
    107  CA       -22.8900    4.6930  -34.5950 C.3   576  ARG576      0.1694
    108  C        -22.3280    5.3120  -33.3210 C.2   576  ARG576      0.2592
    109  O        -22.9800    5.2220  -32.2730 O.2   576  ARG576     -0.2718
    110  CB       -22.8510    3.1740  -34.4730 C.3   576  ARG576      0.0321
    111  CG       -21.5700    2.6430  -33.8540 C.3   576  ARG576      0.0489
    112  CD       -21.5570    1.1350  -33.9010 C.3   576  ARG576      0.2205
    113  NE       -20.8190    0.6260  -35.0570 N.pl3 576  ARG576     -0.0865
    114  CZ       -20.9260   -0.6200  -35.5080 C.cat 576  ARG576      0.5346
    115  NH1      -21.7550   -1.4730  -34.8990 N.pl3 576  ARG576      0.1354
    116  NH2      -20.2060   -1.0180  -36.5540 N.pl3 576  ARG576      0.1354
    117  N        -21.1570    5.9380  -33.3810 N.am  577  TYR577     -0.1962
    118  CA       -20.5560    6.5700  -32.2230 C.3   577  TYR577      0.1771
    119  C        -20.8270    8.0580  -32.1330 C.2   577  TYR577      0.2619
    120  O        -20.2700    8.7050  -31.2410 O.2   577  TYR577     -0.2715
    121  CB       -19.0490    6.3490  -32.2280 C.3   577  TYR577      0.0574
    122  CG       -18.6920    4.8950  -32.1900 C.ar  577  TYR577     -0.0198
    123  CD1      -18.9730    4.1200  -31.0640 C.ar  577  TYR577     -0.0009
    124  CD2      -18.0890    4.2780  -33.2820 C.ar  577  TYR577     -0.0009
    125  CE1      -18.6290    2.7680  -31.0180 C.ar  577  TYR577      0.0417
    126  CE2      -17.7560    2.9180  -33.2500 C.ar  577  TYR577      0.0417
    127  CZ       -18.0170    2.1780  -32.1160 C.ar  577  TYR577      0.1957
    128  OH       -17.6870    0.8390  -32.0860 O.3   577  TYR577     -0.2866
    129  N        -21.6440    8.6260  -33.0250 N.am  578  ILE578     -0.1963
    130  CA       -21.8660   10.0700  -32.9930 C.3   578  ILE578      0.1727
    131  C        -22.7880   10.4080  -31.8320 C.2   578  ILE578      0.2616
    132  O        -23.8910    9.8610  -31.7120 O.2   578  ILE578     -0.2715
    133  CB       -22.4560   10.5760  -34.3150 C.3   578  ILE578      0.0290
    134  CG1      -21.5460   10.2730  -35.5020 C.3   578  ILE578      0.0022
    135  CG2      -22.6940   12.0790  -34.2410 C.3   578  ILE578      0.0023
    136  CD1      -22.3080   10.3950  -36.8450 C.3   578  ILE578      0.0001
    137  N        -22.3570   11.3420  -30.9900 N.am  579  ASN579     -0.1972
    138  CA       -23.0930   11.6890  -29.7820 C.3   579  ASN579      0.1688
    139  C        -24.1890   12.7250  -30.0390 C.2   579  ASN579      0.2292
    140  O        -24.1650   13.4690  -31.0260 O.2   579  ASN579     -0.2864
    141  CB       -22.1220   12.2140  -28.7320 C.3   579  ASN579      0.1181
    142  CG       -21.3680   11.1060  -28.0650 C.2   579  ASN579      0.2629
    143  OD1      -21.9640   10.2640  -27.4140 O.2   579  ASN579     -0.2716
    144  ND2      -20.0570   11.0770  -28.2470 N.am  579  ASN579     -0.0877
    145  N        -30.4210   14.0590  -31.6720 N.3   617  TYR617     -0.1241
    146  CA       -31.0960   12.7850  -31.8670 C.3   617  TYR617      0.1605
    147  C        -32.5750   12.9480  -32.2080 C.2   617  TYR617      0.2264
    148  O        -33.1290   12.1220  -32.9400 O.2   617  TYR617     -0.2867
    149  CB       -30.9540   11.9290  -30.6100 C.3   617  TYR617      0.0534
    150  CG       -29.6110   11.3020  -30.4330 C.ar  617  TYR617     -0.0201
    151  CD1      -28.5430   11.6460  -31.2510 C.ar  617  TYR617     -0.0009
    152  CD2      -29.4040   10.3550  -29.4480 C.ar  617  TYR617     -0.0009
    153  CE1      -27.3030   11.0580  -31.0870 C.ar  617  TYR617      0.0417
    154  CE2      -28.1720    9.7690  -29.2680 C.ar  617  TYR617      0.0417
    155  CZ       -27.1250   10.1160  -30.0890 C.ar  617  TYR617      0.1957
    156  OH       -25.8920    9.5230  -29.8970 O.3   617  TYR617     -0.2866
@<TRIPOS>BOND
     1   136   134    1
     2   116   114    1
     3   100    97    1
     4   106   107    1
     5   114   113    2
     6   114   115    1
     7   134   133    1
     8    97    96    1
     9    97    98    1
    10    45    44    2
    11   113   112    1
    12    44    43    1
    13   107   110    1
    14   107   108    1
    15   110   111    1
    16   133   135    1
    17   133   130    1
    18    98    99    2
    19    98   101   am
    20   112   111    1
    21    43    46    1
    22    43    42    1
    23   101   102    1
    24   117   108   am
    25   117   118    1
    26   108   109    2
    27   124   126   ar
    28   124   122   ar
    29   126   127   ar
    30    46    47    1
    31   129   130    1
    32   129   119   am
    33   130   131    1
    34   148   147    2
    35   103   102    1
    36   103   104    2
    37   121   118    1
    38   121   122    1
    39   118   119    1
    40   147   146    1
    41   122   123   ar
    42   102   105    1
    43   119   120    2
    44   127   128    1
    45   127   125   ar
    46   146   145    1
    47   146   149    1
    48   131   132    2
    49   131   137   am
    50    47    49   ar
    51    47    48   ar
    52   151   153   ar
    53   151   150   ar
    54    49    51   ar
    55   153   155   ar
    56    84    82    1
    57   123   125   ar
    58   140   139    2
    59    48    50   ar
    60   137   138    1
    61   149   150    1
    62   150   152   ar
    63    83    82    1
    64    82    81    2
    65   155   156    1
    66   155   154   ar
    67   139   138    1
    68    51    50   ar
    69   138   141    1
    70    35    36    1
    71    35    32    1
    72    33    34    2
    73    33    32    1
    74   152   154   ar
    75    81    80    1
    76    36    38   ar
    77    36    37   ar
    78   141   142    1
    79    38    40   ar
    80    32    31    1
    81   144   142   am
    82    37    39   ar
    83    66    67    1
    84    66    63    1
    85    40    41   ar
    86   142   143    2
    87    23    22    2
    88    68    67   ar
    89    68    70   ar
    90    64    65    2
    91    64    63    1
    92    67    69   ar
    93    80    79    1
    94    70    72   ar
    95    39    41   ar
    96    31    22   am
    97    63    62    1
    98    22    21    1
    99    16    14   ar
   100    16    18   ar
   101    19    18    1
   102    69    71   ar
   103    14    13   ar
   104    18    17   ar
   105    72    71   ar
   106    72    73    1
   107    13    12    1
   108    13    15   ar
   109    17    15   ar
   110    79    78    1
   111    12     9    1
   112    62    60   am
   113    21    20    1
   114    21    24    1
   115    20    10   am
   116    92    91    2
   117    78    75    1
   118    24    25    1
   119     9    10    1
   120     9     8    1
   121    91    90    1
   122    60    61    2
   123    60    59    1
   124    10    11    2
   125    74    75    1
   126    57    56    1
   127    56    53    1
   128     4     3    2
   129    75    76    1
   130     8     3   am
   131    59    58    1
   132    25    26    1
   133    58    54   am
   134     3     2    1
   135    90    89    1
   136    90    93    1
   137    94    93    1
   138    53    54    1
   139    53    52    1
   140    26    27    1
   141    54    55    2
   142    76    77    2
   143    76    85   am
   144    93    95    1
   145     2     1    1
   146     2     5    1
   147     1     7    1
   148    85    86    1
   149    30    28    1
   150    27    28    2
   151     7     6    1
   152     5     6    1
   153    87    86    1
   154    87    88    2
   155    28    29    1
