@<TRIPOS>MOLECULE
tmp/5wfcB00.pdb
 158 158 0 0 0
SMALL
GASTEIGER

@<TRIPOS>ATOM
      1  N         16.3730   -1.8120  -22.4680 N.3   100  ILE100     -0.1231
      2  CA        17.1420   -0.5810  -22.3590 C.3   100  ILE100      0.1692
      3  C         17.9540   -0.3350  -23.6240 C.2   100  ILE100      0.2592
      4  O         18.3500   -1.2750  -24.3370 O.2   100  ILE100     -0.2718
      5  CB        18.0330   -0.7130  -21.1090 C.3   100  ILE100      0.0266
      6  CG1       17.1880   -0.4640  -19.8640 C.3   100  ILE100      0.0019
      7  CG2       19.2410    0.2370  -21.1340 C.3   100  ILE100      0.0020
      8  CD1       17.8640   -0.9680  -18.6250 C.3   100  ILE100      0.0001
      9  N         18.2020    0.9390  -23.9280 N.am  101  TYR101     -0.1962
     10  CA        19.0870    1.2600  -25.0480 C.3   101  TYR101      0.1771
     11  C         19.5980    2.6800  -24.8770 C.2   101  TYR101      0.2620
     12  O         19.0380    3.4730  -24.1170 O.2   101  TYR101     -0.2715
     13  CB        18.3760    1.0930  -26.4040 C.3   101  TYR101      0.0574
     14  CG        17.1890    2.0060  -26.5960 C.ar  101  TYR101     -0.0198
     15  CD1       17.3560    3.3140  -27.0330 C.ar  101  TYR101     -0.0009
     16  CD2       15.8950    1.5590  -26.3560 C.ar  101  TYR101     -0.0009
     17  CE1       16.2680    4.1590  -27.2170 C.ar  101  TYR101      0.0417
     18  CE2       14.8050    2.3910  -26.5370 C.ar  101  TYR101      0.0417
     19  CZ        14.9920    3.6990  -26.9570 C.ar  101  TYR101      0.1957
     20  OH        13.9120    4.5550  -27.1280 O.3   101  TYR101     -0.2866
     21  N         20.6520    2.9970  -25.6250 N.am  102  TYR102     -0.1960
     22  CA        21.2100    4.3370  -25.6980 C.3   102  TYR102      0.1771
     23  C         21.2130    4.8250  -27.1440 C.2   102  TYR102      0.2619
     24  O         21.4920    4.0550  -28.0700 O.2   102  TYR102     -0.2715
     25  CB        22.6280    4.3760  -25.1140 C.3   102  TYR102      0.0574
     26  CG        22.6250    4.3320  -23.6050 C.ar  102  TYR102     -0.0198
     27  CD1       22.5050    3.1180  -22.9360 C.ar  102  TYR102     -0.0009
     28  CD2       22.7150    5.5040  -22.8450 C.ar  102  TYR102     -0.0009
     29  CE1       22.4870    3.0580  -21.5460 C.ar  102  TYR102      0.0417
     30  CE2       22.7020    5.4570  -21.4440 C.ar  102  TYR102      0.0417
     31  CZ        22.5860    4.2210  -20.8000 C.ar  102  TYR102      0.1957
     32  OH        22.5690    4.1240  -19.4140 O.3   102  TYR102     -0.2866
     33  N         20.8630    6.1070  -27.3210 N.am  103  PHE103     -0.1974
     34  CA        20.8140    6.8200  -28.5950 C.3   103  PHE103      0.1639
     35  C         19.6060    6.4260  -29.4110 C.2   103  PHE103      0.2290
     36  O         18.9420    5.4160  -29.1340 O.2   103  PHE103     -0.2864
     37  CB        22.0910    6.5910  -29.4230 C.3   103  PHE103      0.0560
     38  CG        23.3590    6.7650  -28.6430 C.ar  103  PHE103     -0.0200
     39  CD1       23.6840    8.0000  -28.0770 C.ar  103  PHE103     -0.0042
     40  CD2       24.2290    5.6960  -28.4560 C.ar  103  PHE103     -0.0042
     41  CE1       24.8640    8.1620  -27.3430 C.ar  103  PHE103     -0.0003
     42  CE2       25.4140    5.8510  -27.7180 C.ar  103  PHE103     -0.0003
     43  CZ        25.7300    7.0860  -27.1640 C.ar  103  PHE103     -0.0000
     44  N         18.4010    4.8450  -32.6550 N.3   105  HIS105     -0.1241
     45  CA        19.0000    3.8940  -33.5790 C.3   105  HIS105      0.1621
     46  C         18.3510    4.1060  -34.9390 C.2   105  HIS105      0.2264
     47  O         17.1480    3.8930  -35.1090 O.2   105  HIS105     -0.2867
     48  CB        18.8280    2.4540  -33.0840 C.3   105  HIS105      0.0745
     49  CG        19.5610    2.1810  -31.8050 C.ar  105  HIS105      0.0817
     50  ND1       19.3180    1.0720  -31.0210 N.ar  105  HIS105     -0.2268
     51  CD2       20.5120    2.8970  -31.1590 C.ar  105  HIS105      0.1154
     52  CE1       20.1050    1.1020  -29.9620 C.ar  105  HIS105      0.1986
     53  NE2       20.8410    2.2000  -30.0190 N.ar  105  HIS105     -0.2212
     54  N         19.5240   -7.7410  -23.6540 N.3   522  GLY522     -0.1210
     55  CA        18.3410   -6.9190  -23.8470 C.3   522  GLY522      0.1956
     56  C         17.5660   -7.2980  -25.0960 C.2   522  GLY522      0.2611
     57  O         16.7610   -8.2440  -25.0750 O.2   522  GLY522     -0.2717
     58  N         17.8000   -6.5730  -26.1930 N.am  523  TYR523     -0.1976
     59  CA        17.1880   -6.9010  -27.4770 C.3   523  TYR523      0.1639
     60  C         17.9010   -8.0650  -28.1520 C.2   523  TYR523      0.2290
     61  O         19.0860   -8.3290  -27.9120 O.2   523  TYR523     -0.2864
     62  CB        17.2270   -5.6960  -28.4270 C.3   523  TYR523      0.0560
     63  CG        16.3910   -4.5740  -27.9430 C.ar  523  TYR523     -0.0198
     64  CD1       15.0300   -4.5470  -28.2010 C.ar  523  TYR523     -0.0009
     65  CD2       16.9510   -3.5520  -27.1640 C.ar  523  TYR523     -0.0009
     66  CE1       14.2320   -3.5030  -27.7470 C.ar  523  TYR523      0.0417
     67  CE2       16.1660   -2.4930  -26.6830 C.ar  523  TYR523      0.0417
     68  CZ        14.8050   -2.4810  -26.9740 C.ar  523  TYR523      0.1957
     69  OH        14.0080   -1.4710  -26.4970 O.3   523  TYR523     -0.2866
     70  N         32.0170    6.7710  -24.1660 N.3   557  ARG557     -0.1245
     71  CA        30.8760    5.9370  -23.7880 C.3   557  ARG557      0.1563
     72  C         31.1780    5.0830  -22.5610 C.2   557  ARG557      0.2260
     73  O         30.7340    3.9370  -22.4610 O.2   557  ARG557     -0.2867
     74  CB        30.4350    5.0740  -24.9710 C.3   557  ARG557      0.0307
     75  CG        29.9430    5.8890  -26.1780 C.3   557  ARG557      0.0489
     76  CD        29.9430    5.0670  -27.4740 C.3   557  ARG557      0.2205
     77  NE        29.5100    5.8570  -28.6340 N.pl3 557  ARG557     -0.0865
     78  CZ        29.5570    5.4390  -29.9040 C.cat 557  ARG557      0.5346
     79  NH1       30.0120    4.2260  -30.2070 N.pl3 557  ARG557      0.1354
     80  NH2       29.1520    6.2450  -30.8830 N.pl3 557  ARG557      0.1354
     81  N         31.1190   -0.9150  -25.6400 N.3   559  SER559     -0.1202
     82  CA        31.2380   -0.4690  -27.0340 C.3   559  SER559      0.2020
     83  C         31.6550   -1.6010  -27.9810 C.2   559  SER559      0.2618
     84  O         32.6990   -2.2330  -27.7880 O.2   559  SER559     -0.2717
     85  CB        32.2300    0.6920  -27.1430 C.3   559  SER559      0.2103
     86  OG        31.5490    1.9360  -27.0900 O.3   559  SER559     -0.2182
     87  N         30.8370   -1.8450  -29.0090 N.am  560  PHE560     -0.1975
     88  CA        31.0520   -2.9390  -29.9540 C.3   560  PHE560      0.1639
     89  C         31.4180   -2.3670  -31.3220 C.2   560  PHE560      0.2290
     90  O         30.5810   -1.7680  -31.9970 O.2   560  PHE560     -0.2864
     91  CB        29.8140   -3.8310  -30.0310 C.3   560  PHE560      0.0560
     92  CG        29.6350   -4.7170  -28.8170 C.ar  560  PHE560     -0.0200
     93  CD1       30.3340   -5.9170  -28.7040 C.ar  560  PHE560     -0.0042
     94  CD2       28.7850   -4.3370  -27.7800 C.ar  560  PHE560     -0.0042
     95  CE1       30.1790   -6.7360  -27.5750 C.ar  560  PHE560     -0.0003
     96  CE2       28.6240   -5.1440  -26.6500 C.ar  560  PHE560     -0.0003
     97  CZ        29.3230   -6.3490  -26.5490 C.ar  560  PHE560     -0.0000
     98  N         27.8900    0.5020  -35.1670 N.3   574  ALA574     -0.1231
     99  CA        26.4400    0.5410  -35.3380 C.3   574  ALA574      0.1694
    100  C         25.7110    1.0500  -34.0880 C.2   574  ALA574      0.2591
    101  O         24.5040    0.8110  -33.9260 O.2   574  ALA574     -0.2718
    102  CB        25.9280   -0.8510  -35.7280 C.3   574  ALA574      0.0304
    103  N         26.4170    1.7620  -33.2080 N.am  575  ALA575     -0.1980
    104  CA        25.7900    2.2700  -31.9940 C.3   575  ALA575      0.1597
    105  C         24.6300    3.2100  -32.2970 C.2   575  ALA575      0.2287
    106  O         23.6730    3.2890  -31.5220 O.2   575  ALA575     -0.2864
    107  CB        26.8320    2.9870  -31.1250 C.3   575  ALA575      0.0319
    108  N         22.5210   -5.0590  -35.8600 N.3   582  ARG582     -0.1231
    109  CA        23.2040   -4.6360  -34.6420 C.3   582  ARG582      0.1694
    110  C         22.6540   -5.3160  -33.3870 C.2   582  ARG582      0.2592
    111  O         23.3520   -5.3600  -32.3600 O.2   582  ARG582     -0.2718
    112  CB        23.1140   -3.1190  -34.5430 C.3   582  ARG582      0.0321
    113  CG        21.8810   -2.6280  -33.8410 C.3   582  ARG582      0.0489
    114  CD        21.8160   -1.1190  -33.9070 C.3   582  ARG582      0.2205
    115  NE        21.1500   -0.6190  -35.1020 N.pl3 582  ARG582     -0.0865
    116  CZ        21.2760    0.6250  -35.5560 C.cat 582  ARG582      0.5346
    117  NH1       22.0660    1.5000  -34.9180 N.pl3 582  ARG582      0.1354
    118  NH2       20.5450    1.0110  -36.5960 N.pl3 582  ARG582      0.1354
    119  N         21.4430   -5.8730  -33.4450 N.am  583  TYR583     -0.1962
    120  CA        20.8140   -6.4870  -32.2920 C.3   583  TYR583      0.1771
    121  C         21.0370   -7.9940  -32.2100 C.2   583  TYR583      0.2619
    122  O         20.5050   -8.6230  -31.2950 O.2   583  TYR583     -0.2715
    123  CB        19.3130   -6.1980  -32.3000 C.3   583  TYR583      0.0574
    124  CG        18.9580   -4.7220  -32.3260 C.ar  583  TYR583     -0.0198
    125  CD1       19.1950   -3.9060  -31.2220 C.ar  583  TYR583     -0.0009
    126  CD2       18.3850   -4.1470  -33.4610 C.ar  583  TYR583     -0.0009
    127  CE1       18.8620   -2.5650  -31.2420 C.ar  583  TYR583      0.0417
    128  CE2       18.0480   -2.8030  -33.4930 C.ar  583  TYR583      0.0417
    129  CZ        18.2940   -2.0160  -32.3780 C.ar  583  TYR583      0.1957
    130  OH        17.9580   -0.6860  -32.4040 O.3   583  TYR583     -0.2866
    131  N         21.7930   -8.5930  -33.1330 N.am  584  ILE584     -0.1963
    132  CA        22.0200  -10.0380  -33.0820 C.3   584  ILE584      0.1727
    133  C         22.9690  -10.3740  -31.9350 C.2   584  ILE584      0.2616
    134  O         24.0670   -9.8080  -31.8280 O.2   584  ILE584     -0.2715
    135  CB        22.5780  -10.5430  -34.4180 C.3   584  ILE584      0.0290
    136  CG1       21.6280  -10.2040  -35.5600 C.3   584  ILE584      0.0022
    137  CG2       22.8320  -12.0600  -34.3760 C.3   584  ILE584      0.0023
    138  CD1       22.2440  -10.4540  -36.9350 C.3   584  ILE584      0.0001
    139  N         22.5560  -11.3010  -31.0760 N.am  585  ASN585     -0.1972
    140  CA        23.3090  -11.6410  -29.8730 C.3   585  ASN585      0.1688
    141  C         24.3930  -12.6760  -30.1570 C.2   585  ASN585      0.2292
    142  O         24.3900  -13.3630  -31.1820 O.2   585  ASN585     -0.2864
    143  CB        22.3780  -12.1770  -28.7760 C.3   585  ASN585      0.1181
    144  CG        21.5460  -11.0610  -28.1220 C.2   585  ASN585      0.2629
    145  OD1       20.3290  -10.9950  -28.2830 O.2   585  ASN585     -0.2716
    146  ND2       22.2140  -10.1760  -27.4070 N.am  585  ASN585     -0.0877
    147  N         30.6240  -14.0520  -31.6450 N.3   623  TYR623     -0.1241
    148  CA        31.3390  -12.7860  -31.7980 C.3   623  TYR623      0.1605
    149  C         32.8250  -13.0010  -32.0760 C.2   623  TYR623      0.2264
    150  O         33.4550  -12.1720  -32.7480 O.2   623  TYR623     -0.2867
    151  CB        31.1610  -11.9300  -30.5490 C.3   623  TYR623      0.0534
    152  CG        29.8190  -11.2320  -30.4510 C.ar  623  TYR623     -0.0201
    153  CD1       28.7330  -11.6320  -31.2300 C.ar  623  TYR623     -0.0009
    154  CD2       29.6440  -10.1670  -29.5790 C.ar  623  TYR623     -0.0009
    155  CE1       27.4970  -10.9830  -31.1320 C.ar  623  TYR623      0.0417
    156  CE2       28.4310   -9.5140  -29.4760 C.ar  623  TYR623      0.0417
    157  CZ        27.3570   -9.9280  -30.2470 C.ar  623  TYR623      0.1957
    158  OH        26.1610   -9.2580  -30.1380 O.3   623  TYR623     -0.2866
@<TRIPOS>BOND
     1   138   136    1
     2   118   116    1
     3   108   109    1
     4   102    99    1
     5   136   135    1
     6   116   115    2
     7   116   117    1
     8    99    98    1
     9    99   100    1
    10    47    46    2
    11   115   114    1
    12    46    45    1
    13   109   112    1
    14   109   110    1
    15   112   113    1
    16   135   137    1
    17   135   132    1
    18   100   101    2
    19   100   103   am
    20   114   113    1
    21    45    48    1
    22    45    44    1
    23   128   126   ar
    24   128   129   ar
    25   126   124   ar
    26   119   110   am
    27   119   120    1
    28   110   111    2
    29   103   104    1
    30   131   132    1
    31   131   121   am
    32    48    49    1
    33   132   133    1
    34   150   149    2
    35   130   129    1
    36   129   127   ar
    37   124   123    1
    38   124   125   ar
    39   123   120    1
    40   105   104    1
    41   105   106    2
    42   120   121    1
    43   121   122    2
    44   149   148    1
    45    90    89    2
    46   104   107    1
    47   133   134    2
    48   133   139   am
    49    49    51   ar
    50    49    50   ar
    51   148   147    1
    52   148   151    1
    53    89    88    1
    54   127   125   ar
    55   153   155   ar
    56   153   152   ar
    57   142   141    2
    58    51    53   ar
    59   155   157   ar
    60   139   140    1
    61    50    52   ar
    62    80    78    1
    63   151   152    1
    64   152   154   ar
    65   157   158    1
    66   157   156   ar
    67    79    78    1
    68   141   140    1
    69    91    88    1
    70    91    92    1
    71    53    52   ar
    72    88    87    1
    73    78    77    2
    74   140   143    1
    75   154   156   ar
    76    37    38    1
    77    37    34    1
    78    35    36    2
    79    35    34    1
    80    87    83   am
    81    92    93   ar
    82    92    94   ar
    83   143   144    1
    84    93    95   ar
    85    38    40   ar
    86    38    39   ar
    87    77    76    1
    88    34    33    1
    89    40    42   ar
    90    62    63    1
    91    62    59    1
    92   145   144    2
    93    64    63   ar
    94    64    66   ar
    95    60    61    2
    96    60    59    1
    97   144   146   am
    98    39    41   ar
    99    24    23    2
   100    83    84    2
   101    83    82    1
   102    63    65   ar
   103    94    96   ar
   104    66    68   ar
   105    42    43   ar
   106    95    97   ar
   107    59    58    1
   108    76    75    1
   109    41    43   ar
   110    33    23   am
   111    17    15   ar
   112    17    19   ar
   113    65    67   ar
   114    23    22    1
   115    85    86    1
   116    85    82    1
   117    20    19    1
   118    82    81    1
   119    15    14   ar
   120    68    67   ar
   121    68    69    1
   122    19    18   ar
   123    96    97   ar
   124    14    13    1
   125    14    16   ar
   126    18    16   ar
   127    13    10    1
   128    58    56   am
   129    75    74    1
   130    22    21    1
   131    22    25    1
   132    21    11   am
   133    25    26    1
   134    56    57    2
   135    56    55    1
   136    10    11    1
   137    10     9    1
   138    74    71    1
   139    11    12    2
   140     4     3    2
   141    70    71    1
   142     9     3   am
   143    55    54    1
   144    71    72    1
   145     3     2    1
   146    26    27   ar
   147    26    28   ar
   148    27    29   ar
   149    28    30   ar
   150    72    73    2
   151     1     2    1
   152     2     5    1
   153    29    31   ar
   154    30    31   ar
   155     7     5    1
   156     5     6    1
   157    31    32    1
   158     6     8    1
