@<TRIPOS>MOLECULE
tmp/5wfdB00.pdb
 156 156 0 0 0
SMALL
GASTEIGER

@<TRIPOS>ATOM
      1  N         16.4870   -1.7360  -22.3420 N.3    99  ILE99      -0.1231
      2  CA        17.3940   -0.5860  -22.3400 C.3    99  ILE99       0.1692
      3  C         17.9840   -0.3600  -23.7290 C.2    99  ILE99       0.2592
      4  O         18.2820   -1.3210  -24.4450 O.2    99  ILE99      -0.2718
      5  CB        18.5390   -0.8170  -21.3290 C.3    99  ILE99       0.0266
      6  CG1       18.0250   -0.9340  -19.9100 C.3    99  ILE99       0.0019
      7  CG2       19.6170    0.2970  -21.4230 C.3    99  ILE99       0.0020
      8  CD1       17.0350    0.1040  -19.6210 C.3    99  ILE99       0.0001
      9  N         18.1960    0.9130  -24.0900 N.am  100  TYR100     -0.1962
     10  CA        19.0630    1.2800  -25.2100 C.3   100  TYR100      0.1771
     11  C         19.5200    2.7270  -25.0720 C.2   100  TYR100      0.2620
     12  O         18.8740    3.5420  -24.4150 O.2   100  TYR100     -0.2715
     13  CB        18.3740    1.1110  -26.5610 C.3   100  TYR100      0.0574
     14  CG        17.1650    2.0040  -26.7350 C.ar  100  TYR100     -0.0198
     15  CD1       17.2890    3.3060  -27.2000 C.ar  100  TYR100     -0.0009
     16  CD2       15.9020    1.5330  -26.4690 C.ar  100  TYR100     -0.0009
     17  CE1       16.1710    4.1200  -27.3710 C.ar  100  TYR100      0.0417
     18  CE2       14.7930    2.3200  -26.6560 C.ar  100  TYR100      0.0417
     19  CZ        14.9230    3.6130  -27.0900 C.ar  100  TYR100      0.1957
     20  OH        13.7820    4.3940  -27.2310 O.3   100  TYR100     -0.2866
     21  N         20.6360    3.0420  -25.7270 N.am  101  TYR101     -0.1960
     22  CA        21.1340    4.4080  -25.8460 C.3   101  TYR101      0.1771
     23  C         21.1210    4.8530  -27.3110 C.2   101  TYR101      0.2619
     24  O         21.3600    4.0520  -28.2180 O.2   101  TYR101     -0.2715
     25  CB        22.5500    4.5420  -25.2540 C.3   101  TYR101      0.0574
     26  CG        22.5790    4.4520  -23.7440 C.ar  101  TYR101     -0.0198
     27  CD1       22.4630    3.2240  -23.1080 C.ar  101  TYR101     -0.0009
     28  CD2       22.6860    5.5970  -22.9510 C.ar  101  TYR101     -0.0009
     29  CE1       22.4620    3.1290  -21.7220 C.ar  101  TYR101      0.0417
     30  CE2       22.6860    5.5160  -21.5810 C.ar  101  TYR101      0.0417
     31  CZ        22.5740    4.2750  -20.9630 C.ar  101  TYR101      0.1957
     32  OH        22.5820    4.1640  -19.5810 O.3   101  TYR101     -0.2866
     33  N         20.8380    6.1400  -27.5240 N.am  102  PHE102     -0.1974
     34  CA        20.7460    6.8100  -28.8170 C.3   102  PHE102      0.1639
     35  C         19.5450    6.3120  -29.6020 C.2   102  PHE102      0.2290
     36  O         19.0420    5.2130  -29.3770 O.2   102  PHE102     -0.2864
     37  CB        22.0380    6.6480  -29.6380 C.3   102  PHE102      0.0560
     38  CG        23.3000    6.7580  -28.8070 C.ar  102  PHE102     -0.0200
     39  CD1       23.6380    7.9640  -28.1810 C.ar  102  PHE102     -0.0042
     40  CD2       24.1190    5.6490  -28.6130 C.ar  102  PHE102     -0.0042
     41  CE1       24.7780    8.0510  -27.3800 C.ar  102  PHE102     -0.0003
     42  CE2       25.2560    5.7270  -27.8300 C.ar  102  PHE102     -0.0003
     43  CZ        25.5910    6.9260  -27.2060 C.ar  102  PHE102     -0.0000
     44  N         18.2310    4.7340  -32.8320 N.3   104  HIS104     -0.1241
     45  CA        18.8540    3.8360  -33.8090 C.3   104  HIS104      0.1621
     46  C         18.2230    4.0860  -35.1730 C.2   104  HIS104      0.2264
     47  O         17.0430    3.7840  -35.3850 O.2   104  HIS104     -0.2867
     48  CB        18.7030    2.3870  -33.3560 C.3   104  HIS104      0.0745
     49  CG        19.3910    2.0990  -32.0550 C.ar  104  HIS104      0.0817
     50  ND1       19.1300    0.9750  -31.3010 N.ar  104  HIS104     -0.2268
     51  CD2       20.3410    2.7920  -31.3790 C.ar  104  HIS104      0.1154
     52  CE1       19.8900    0.9870  -30.2180 C.ar  104  HIS104      0.1986
     53  NE2       20.6280    2.0840  -30.2390 N.ar  104  HIS104     -0.2212
     54  N         19.8630   -7.4710  -23.9040 N.3   530  GLY530     -0.1210
     55  CA        18.6400   -6.6950  -23.9960 C.3   530  GLY530      0.1956
     56  C         17.7980   -7.1220  -25.1750 C.2   530  GLY530      0.2611
     57  O         16.8900   -7.9500  -25.0390 O.2   530  GLY530     -0.2717
     58  N         18.1180   -6.5670  -26.3420 N.am  531  TYR531     -0.1976
     59  CA        17.4680   -6.8690  -27.6080 C.3   531  TYR531      0.1639
     60  C         18.2010   -7.9840  -28.3380 C.2   531  TYR531      0.2290
     61  O         19.4140   -8.1880  -28.1840 O.2   531  TYR531     -0.2864
     62  CB        17.4200   -5.6390  -28.5150 C.3   531  TYR531      0.0560
     63  CG        16.5420   -4.5340  -27.9910 C.ar  531  TYR531     -0.0198
     64  CD1       15.1960   -4.5080  -28.3170 C.ar  531  TYR531     -0.0009
     65  CD2       17.0570   -3.5210  -27.1720 C.ar  531  TYR531     -0.0009
     66  CE1       14.3740   -3.5380  -27.8470 C.ar  531  TYR531      0.0417
     67  CE2       16.2460   -2.5470  -26.7000 C.ar  531  TYR531      0.0417
     68  CZ        14.8850   -2.5570  -27.0420 C.ar  531  TYR531      0.1957
     69  OH        14.0020   -1.5990  -26.5980 O.3   531  TYR531     -0.2866
     70  N         32.0580    6.9670  -24.4880 N.3   565  ARG565     -0.1231
     71  CA        30.8700    6.2040  -24.1200 C.3   565  ARG565      0.1694
     72  C         31.0330    5.3990  -22.8380 C.2   565  ARG565      0.2592
     73  O         30.0890    4.7130  -22.4380 O.2   565  ARG565     -0.2718
     74  CB        30.4650    5.2580  -25.2600 C.3   565  ARG565      0.0321
     75  CG        29.9140    5.9340  -26.5140 C.3   565  ARG565      0.0489
     76  CD        29.8940    4.9660  -27.6860 C.3   565  ARG565      0.2205
     77  NE        29.5040    5.6190  -28.9360 N.pl3 565  ARG565     -0.0865
     78  CZ        29.7020    5.0980  -30.1490 C.cat 565  ARG565      0.5346
     79  NH1       30.2830    3.9000  -30.2860 N.pl3 565  ARG565      0.1354
     80  NH2       29.3130    5.7760  -31.2260 N.pl3 565  ARG565      0.1354
     81  N         32.1950    5.4530  -22.1890 N.am  566  GLY566     -0.1957
     82  CA        32.4440    4.6630  -20.9930 C.3   566  GLY566      0.1869
     83  C         32.8650    3.2430  -21.3020 C.2   566  GLY566      0.2309
     84  O         32.6330    2.3370  -20.5020 O.2   566  GLY566     -0.2863
     85  N         31.5310   -2.5760  -28.8950 N.3   567  PHE567     -0.1241
     86  CA        30.7810   -3.0390  -30.0660 C.3   567  PHE567      0.1605
     87  C         31.1510   -2.2830  -31.3670 C.2   567  PHE567      0.2264
     88  O         30.3200   -1.5820  -31.9610 O.2   567  PHE567     -0.2867
     89  CB        29.2770   -2.9280  -29.8030 C.3   567  PHE567      0.0534
     90  CG        28.7010   -4.0850  -29.0070 C.ar  567  PHE567     -0.0203
     91  CD1       29.0910   -4.3080  -27.6810 C.ar  567  PHE567     -0.0042
     92  CD2       27.7520   -4.9370  -29.5810 C.ar  567  PHE567     -0.0042
     93  CE1       28.5550   -5.3630  -26.9450 C.ar  567  PHE567     -0.0003
     94  CE2       27.2100   -5.9910  -28.8550 C.ar  567  PHE567     -0.0003
     95  CZ        27.6140   -6.2090  -27.5330 C.ar  567  PHE567     -0.0000
     96  N         27.9610    0.5790  -35.2950 N.3   581  ALA581     -0.1231
     97  CA        26.5100    0.5830  -35.4730 C.3   581  ALA581      0.1694
     98  C         25.7610    1.0980  -34.2350 C.2   581  ALA581      0.2591
     99  O         24.5660    0.8310  -34.0700 O.2   581  ALA581     -0.2718
    100  CB        26.0230   -0.8150  -35.8520 C.3   581  ALA581      0.0304
    101  N         26.4370    1.8510  -33.3680 N.am  582  ALA582     -0.1980
    102  CA        25.7850    2.3450  -32.1600 C.3   582  ALA582      0.1597
    103  C         24.5840    3.2350  -32.4670 C.2   582  ALA582      0.2287
    104  O         23.6720    3.3310  -31.6440 O.2   582  ALA582     -0.2864
    105  CB        26.7800    3.1070  -31.2900 C.3   582  ALA582      0.0319
    106  N         22.5940   -4.9230  -36.0970 N.3   589  ARG589     -0.1231
    107  CA        23.3090   -4.5260  -34.8940 C.3   589  ARG589      0.1694
    108  C         22.7660   -5.2310  -33.6630 C.2   589  ARG589      0.2592
    109  O         23.4490   -5.2710  -32.6370 O.2   589  ARG589     -0.2718
    110  CB        23.2430   -3.0210  -34.7000 C.3   589  ARG589      0.0321
    111  CG        21.9250   -2.5160  -34.1810 C.3   589  ARG589      0.0489
    112  CD        21.9260   -0.9990  -34.1940 C.3   589  ARG589      0.2205
    113  NE        21.1920   -0.4540  -35.3300 N.pl3 589  ARG589     -0.0865
    114  CZ        21.2590    0.8200  -35.7100 C.cat 589  ARG589      0.5346
    115  NH1       22.0310    1.6610  -35.0410 N.pl3 589  ARG589      0.1354
    116  NH2       20.5460    1.2640  -36.7380 N.pl3 589  ARG589      0.1354
    117  N         21.5900   -5.8410  -33.7550 N.am  590  TYR590     -0.1962
    118  CA        20.9530   -6.4200  -32.5880 C.3   590  TYR590      0.1771
    119  C         21.1600   -7.9250  -32.4710 C.2   590  TYR590      0.2619
    120  O         20.6280   -8.5270  -31.5360 O.2   590  TYR590     -0.2715
    121  CB        19.4580   -6.1110  -32.6000 C.3   590  TYR590      0.0574
    122  CG        19.0640   -4.6420  -32.5390 C.ar  590  TYR590     -0.0198
    123  CD1       19.2770   -3.8780  -31.3920 C.ar  590  TYR590     -0.0009
    124  CD2       18.4250   -4.0440  -33.6140 C.ar  590  TYR590     -0.0009
    125  CE1       18.8760   -2.5590  -31.3400 C.ar  590  TYR590      0.0417
    126  CE2       18.0370   -2.7370  -33.5770 C.ar  590  TYR590      0.0417
    127  CZ        18.2570   -1.9880  -32.4410 C.ar  590  TYR590      0.1957
    128  OH        17.8430   -0.6570  -32.4350 O.3   590  TYR590     -0.2866
    129  N         21.9320   -8.5370  -33.3720 N.am  591  ILE591     -0.1963
    130  CA        22.2260   -9.9720  -33.3010 C.3   591  ILE591      0.1727
    131  C         23.1830  -10.2630  -32.1460 C.2   591  ILE591      0.2616
    132  O         24.2170   -9.6050  -31.9920 O.2   591  ILE591     -0.2715
    133  CB        22.8250  -10.4610  -34.6300 C.3   591  ILE591      0.0290
    134  CG1       21.8870  -10.1640  -35.8120 C.3   591  ILE591      0.0022
    135  CG2       23.1650  -11.9370  -34.5380 C.3   591  ILE591      0.0023
    136  CD1       22.5430  -10.3310  -37.2100 C.3   591  ILE591      0.0001
    137  N         22.8700  -11.2890  -31.3570 N.am  592  ASN592     -0.1972
    138  CA        23.5860  -11.5820  -30.1220 C.3   592  ASN592      0.1688
    139  C         24.7030  -12.5940  -30.3420 C.2   592  ASN592      0.2292
    140  O         24.7790  -13.2690  -31.3710 O.2   592  ASN592     -0.2864
    141  CB        22.6180  -12.1070  -29.0670 C.3   592  ASN592      0.1181
    142  CG        21.7190  -11.0240  -28.5270 C.2   592  ASN592      0.2629
    143  OD1       20.5000  -11.0190  -28.7550 O.2   592  ASN592     -0.2716
    144  ND2       22.3130  -10.0850  -27.8170 N.am  592  ASN592     -0.0877
    145  N         30.9730  -14.0170  -31.7250 N.3   630  TYR630     -0.1241
    146  CA        31.6600  -12.7450  -31.9020 C.3   630  TYR630      0.1605
    147  C         33.1170  -12.9350  -32.3030 C.2   630  TYR630      0.2264
    148  O         33.5920  -12.3040  -33.2540 O.2   630  TYR630     -0.2867
    149  CB        31.5510  -11.9400  -30.6250 C.3   630  TYR630      0.0534
    150  CG        30.2300  -11.2160  -30.5140 C.ar  630  TYR630     -0.0201
    151  CD1       29.1940  -11.4760  -31.4040 C.ar  630  TYR630     -0.0009
    152  CD2       30.0200  -10.2730  -29.5200 C.ar  630  TYR630     -0.0009
    153  CE1       27.9780  -10.8100  -31.3040 C.ar  630  TYR630      0.0417
    154  CE2       28.8190   -9.6120  -29.4070 C.ar  630  TYR630      0.0417
    155  CZ        27.7950   -9.8750  -30.2970 C.ar  630  TYR630      0.1957
    156  OH        26.5940   -9.2020  -30.1750 O.3   630  TYR630     -0.2866
@<TRIPOS>BOND
     1   136   134    1
     2   116   114    1
     3   106   107    1
     4   100    97    1
     5   134   133    1
     6   114   113    2
     7   114   115    1
     8    97    96    1
     9    97    98    1
    10    47    46    2
    11   113   112    1
    12    46    45    1
    13   107   110    1
    14   107   108    1
    15   110   111    1
    16   133   135    1
    17   133   130    1
    18    98    99    2
    19    98   101   am
    20   112   111    1
    21    45    48    1
    22    45    44    1
    23   117   108   am
    24   117   118    1
    25   108   109    2
    26   124   126   ar
    27   124   122   ar
    28   126   127   ar
    29   129   130    1
    30   129   119   am
    31   101   102    1
    32    48    49    1
    33   130   131    1
    34   148   147    2
    35   121   118    1
    36   121   122    1
    37   118   119    1
    38   122   123   ar
    39   119   120    2
    40   103   102    1
    41   103   104    2
    42   127   128    1
    43   127   125   ar
    44   147   146    1
    45   102   105    1
    46   131   132    2
    47   131   137   am
    48    49    51   ar
    49    49    50   ar
    50    88    87    2
    51   146   145    1
    52   146   149    1
    53   151   153   ar
    54   151   150   ar
    55   123   125   ar
    56    51    53   ar
    57   140   139    2
    58    87    86    1
    59   137   138    1
    60   153   155   ar
    61    50    52   ar
    62    80    78    1
    63   149   150    1
    64   150   152   ar
    65   139   138    1
    66   155   156    1
    67   155   154   ar
    68    79    78    1
    69    53    52   ar
    70    78    77    2
    71   138   141    1
    72    86    89    1
    73    86    85    1
    74    89    90    1
    75    37    34    1
    76    37    38    1
    77    35    36    2
    78    35    34    1
    79    92    90   ar
    80    92    94   ar
    81   152   154   ar
    82   141   142    1
    83    90    91   ar
    84    77    76    1
    85    94    95   ar
    86    34    33    1
    87    38    40   ar
    88    38    39   ar
    89   143   142    2
    90    40    42   ar
    91   142   144   am
    92    62    63    1
    93    62    59    1
    94    60    61    2
    95    60    59    1
    96    64    63   ar
    97    64    66   ar
    98    24    23    2
    99    39    41   ar
   100    63    65   ar
   101    66    68   ar
   102    42    43   ar
   103    76    75    1
   104    91    93   ar
   105    59    58    1
   106    95    93   ar
   107    33    23   am
   108    41    43   ar
   109    17    15   ar
   110    17    19   ar
   111    23    22    1
   112    20    19    1
   113    15    14   ar
   114    65    67   ar
   115    19    18   ar
   116    68    67   ar
   117    68    69    1
   118    14    13    1
   119    14    16   ar
   120    18    16   ar
   121    13    10    1
   122    75    74    1
   123    58    56   am
   124    22    21    1
   125    22    25    1
   126    21    11   am
   127    74    71    1
   128    25    26    1
   129    10    11    1
   130    10     9    1
   131    56    57    2
   132    56    55    1
   133    11    12    2
   134    70    71    1
   135     4     3    2
   136    71    72    1
   137     9     3   am
   138    55    54    1
   139    26    27   ar
   140    26    28   ar
   141     3     2    1
   142    27    29   ar
   143    28    30   ar
   144    72    73    2
   145    72    81   am
   146     1     2    1
   147     2     5    1
   148    81    82    1
   149    29    31   ar
   150    30    31   ar
   151     7     5    1
   152     5     6    1
   153    83    82    1
   154    83    84    2
   155    31    32    1
   156     6     8    1
