@<TRIPOS>MOLECULE
tmp/5wfgE00.pdb
 132 125 0 0 0
SMALL
GASTEIGER

@<TRIPOS>ATOM
      1  N         73.5650  -24.4560  -43.0750 N.3    35  THR35      -0.1218
      2  CA        74.2960  -23.2020  -43.3350 C.3    35  THR35       0.1862
      3  C         75.6950  -23.5200  -43.8960 C.2    35  THR35       0.2287
      4  O         76.6830  -23.3740  -43.1580 O.2    35  THR35      -0.2866
      5  CB        74.3260  -22.3250  -42.0710 C.3    35  THR35       0.1770
      6  OG1       75.0280  -23.0220  -41.0430 O.3    35  THR35      -0.2211
      7  CG2       72.9360  -21.9690  -41.5730 C.3    35  THR35       0.0375
      8  N         79.4340  -23.5260  -45.4790 N.3    37  ASN37      -0.1240
      9  CA        80.6100  -22.6630  -45.5290 C.3    37  ASN37       0.1653
     10  C         81.7170  -23.4140  -46.3150 C.2    37  ASN37       0.2266
     11  O         81.4420  -24.5120  -46.8250 O.2    37  ASN37      -0.2867
     12  CB        81.0400  -22.2320  -44.1320 C.3    37  ASN37       0.1155
     13  CG        81.5240  -23.3130  -43.2190 C.2    37  ASN37       0.2627
     14  OD1       81.6570  -24.4800  -43.5720 O.2    37  ASN37      -0.2716
     15  ND2       81.8190  -22.9370  -41.9970 N.am   37  ASN37      -0.0877
     16  N         84.4210  -24.9820  -45.1830 N.3    39  GLU39      -0.1231
     17  CA        84.7030  -26.2420  -44.4760 C.3    39  GLU39       0.1699
     18  C         83.6450  -27.2870  -44.8230 C.2    39  GLU39       0.2592
     19  O         84.0060  -28.4170  -45.1510 O.2    39  GLU39      -0.2718
     20  CB        84.7670  -26.0510  -42.9570 C.3    39  GLU39       0.0402
     21  CG        86.1040  -25.5590  -42.4030 C.3    39  GLU39       0.1161
     22  CD        86.2660  -24.0460  -42.3240 C.2    39  GLU39       0.3649
     23  OE1       85.3430  -23.3210  -42.6330 O.co2  39  GLU39      -0.2457
     24  OE2       87.4050  -23.6580  -41.9260 O.co2  39  GLU39      -0.2457
     25  N         82.3470  -26.9040  -44.8070 N.am   40  ILE40      -0.1980
     26  CA        81.2170  -27.7840  -45.1480 C.3    40  ILE40       0.1595
     27  C         81.2850  -28.2330  -46.6090 C.2    40  ILE40       0.2287
     28  O         81.1860  -29.4290  -46.8680 O.2    40  ILE40      -0.2864
     29  CB        79.8450  -27.1490  -44.7640 C.3    40  ILE40       0.0276
     30  CG1       79.6260  -27.2130  -43.2250 C.3    40  ILE40       0.0022
     31  CG2       78.6720  -27.8020  -45.5360 C.3    40  ILE40       0.0022
     32  CD1       78.5270  -26.3530  -42.7110 C.3    40  ILE40       0.0001
     33  N         75.6410  -29.7830  -27.8770 N.3   103  ALA103     -0.1231
     34  CA        76.7920  -29.2810  -27.1080 C.3   103  ALA103      0.1694
     35  C         76.9230  -29.9930  -25.7490 C.2   103  ALA103      0.2591
     36  O         76.0220  -30.7400  -25.3660 O.2   103  ALA103     -0.2718
     37  CB        76.7670  -27.7660  -26.9710 C.3   103  ALA103      0.0304
     38  N         78.0610  -29.8030  -25.0550 N.am  104  ALA104     -0.1980
     39  CA        78.3500  -30.4440  -23.7720 C.3   104  ALA104      0.1597
     40  C         77.2950  -30.1910  -22.7080 C.2   104  ALA104      0.2287
     41  O         76.3770  -29.3960  -22.9280 O.2   104  ALA104     -0.2864
     42  CB        79.7290  -30.0480  -23.2770 C.3   104  ALA104      0.0319
     43  N         74.5650  -32.9930  -26.6510 N.3   130  GLY130     -0.1210
     44  CA        74.8930  -33.6890  -27.8900 C.3   130  GLY130      0.1956
     45  C         75.7560  -34.9310  -27.7930 C.2   130  GLY130      0.2611
     46  O         76.1960  -35.4460  -28.8210 O.2   130  GLY130     -0.2717
     47  N         76.0210  -35.4110  -26.5720 N.am  131  TYR131     -0.1976
     48  CA        76.8820  -36.5670  -26.3100 C.3   131  TYR131      0.1639
     49  C         76.0640  -37.7750  -25.8110 C.2   131  TYR131      0.2290
     50  O         76.4840  -38.4880  -24.8960 O.2   131  TYR131     -0.2864
     51  CB        78.0120  -36.1720  -25.3350 C.3   131  TYR131      0.0560
     52  CG        78.9100  -35.0690  -25.8550 C.ar  131  TYR131     -0.0198
     53  CD1       78.4940  -33.7400  -25.8490 C.ar  131  TYR131     -0.0009
     54  CD2       80.1800  -35.3520  -26.3550 C.ar  131  TYR131     -0.0009
     55  CE1       79.2990  -32.7290  -26.3690 C.ar  131  TYR131      0.0417
     56  CE2       81.0160  -34.3380  -26.8290 C.ar  131  TYR131      0.0417
     57  CZ        80.5700  -33.0300  -26.8310 C.ar  131  TYR131      0.1957
     58  OH        81.3720  -32.0310  -27.3210 O.3   131  TYR131     -0.2866
     59  N         73.0340  -28.8530  -32.4830 N.3   155  ALA155     -0.1231
     60  CA        74.4000  -28.3830  -32.2000 C.3   155  ALA155      0.1694
     61  C         75.3970  -29.5120  -31.9950 C.2   155  ALA155      0.2592
     62  O         76.0370  -29.5610  -30.9440 O.2   155  ALA155     -0.2718
     63  CB        74.3830  -27.4810  -30.9660 C.3   155  ALA155      0.0304
     64  N         75.5490  -30.3940  -33.0060 N.am  156  LEU156     -0.1966
     65  CA        76.4210  -31.5730  -32.9920 C.3   156  LEU156      0.1728
     66  C         77.6740  -31.4030  -33.8860 C.2   156  LEU156      0.2617
     67  O         78.5320  -32.2930  -33.9810 O.2   156  LEU156     -0.2715
     68  CB        75.6080  -32.8040  -33.4580 C.3   156  LEU156      0.0311
     69  CG        74.2670  -33.1050  -32.7640 C.3   156  LEU156      0.0022
     70  CD1       73.5380  -34.1990  -33.4650 C.3   156  LEU156      0.0001
     71  CD2       74.4570  -33.5250  -31.3460 C.3   156  LEU156      0.0001
     72  N         77.7620  -30.2510  -34.5320 N.am  157  GLY157     -0.1940
     73  CA        78.8250  -29.9480  -35.4750 C.3   157  GLY157      0.2014
     74  C         78.6390  -30.6290  -36.8190 C.2   157  GLY157      0.2638
     75  O         77.9900  -31.6820  -36.9210 O.2   157  GLY157     -0.2714
     76  N         79.2040  -30.0130  -37.8730 N.am  158  ALA158     -0.1977
     77  CA        79.1080  -30.5480  -39.2240 C.3   158  ALA158      0.1597
     78  C         80.1370  -31.6730  -39.3700 C.2   158  ALA158      0.2287
     79  O         81.2370  -31.5420  -38.8220 O.2   158  ALA158     -0.2864
     80  CB        79.3620  -29.4450  -40.2320 C.3   158  ALA158      0.0319
     81  N         77.9600  -34.1890  -38.5570 N.3   160  LYS160     -0.1231
     82  CA        77.1790  -34.9200  -37.5500 C.3   160  LYS160      0.1693
     83  C         75.7410  -34.4110  -37.4220 C.2   160  LYS160      0.2591
     84  O         74.8300  -35.2300  -37.4210 O.2   160  LYS160     -0.2718
     85  CB        77.9050  -34.9360  -36.1860 C.3   160  LYS160      0.0285
     86  CG        77.4160  -36.0470  -35.2640 C.3   160  LYS160      0.0035
     87  CD        78.0610  -35.9770  -33.8880 C.3   160  LYS160      0.0206
     88  CE        77.4240  -36.9840  -32.9340 C.3   160  LYS160      0.1093
     89  NZ        75.9580  -36.7490  -32.7610 N.3   160  LYS160     -0.1314
     90  N         75.5330  -33.0660  -37.3600 N.am  161  GLN161     -0.1979
     91  CA        74.1990  -32.4470  -37.2240 C.3   161  GLN161      0.1601
     92  C         73.2780  -32.7460  -38.4420 C.2   161  GLN161      0.2287
     93  O         72.1730  -33.2670  -38.2550 O.2   161  GLN161     -0.2864
     94  CB        74.2850  -30.9410  -36.8880 C.3   161  GLN161      0.0394
     95  CG        75.1160  -30.1170  -37.8710 C.3   161  GLN161      0.0908
     96  CD        75.6070  -28.7960  -37.3310 C.2   161  GLN161      0.2608
     97  OE1       75.7020  -28.5790  -36.1270 O.2   161  GLN161     -0.2717
     98  NE2       75.9780  -27.8930  -38.2210 N.am  161  GLN161     -0.0878
     99  N         73.2020  -25.9730  -36.2570 N.3   179  VAL179     -0.1231
    100  CA        73.7100  -24.6940  -35.7290 C.3   179  VAL179      0.1692
    101  C         75.1610  -24.7450  -35.2010 C.2   179  VAL179      0.2593
    102  O         75.6350  -23.7420  -34.6850 O.2   179  VAL179     -0.2718
    103  CB        72.7620  -24.0660  -34.6670 C.3   179  VAL179      0.0266
    104  CG1       71.3990  -23.7300  -35.2690 C.3   179  VAL179      0.0020
    105  CG2       72.6190  -24.9650  -33.4370 C.3   179  VAL179      0.0020
    106  N         75.8310  -25.8860  -35.3220 N.am  180  GLY180     -0.1942
    107  CA        77.2180  -26.0700  -34.8960 C.3   180  GLY180      0.2014
    108  C         77.5480  -25.5780  -33.5040 C.2   180  GLY180      0.2639
    109  O         76.9250  -25.9950  -32.5320 O.2   180  GLY180     -0.2714
    110  N         78.5020  -24.6680  -33.4110 N.am  181  GLY181     -0.1954
    111  CA        78.9210  -24.0890  -32.1330 C.3   181  GLY181      0.1869
    112  C         78.1590  -22.8630  -31.6790 C.2   181  GLY181      0.2309
    113  O         78.7070  -22.0950  -30.9000 O.2   181  GLY181     -0.2863
    114  N         75.2940  -22.7510  -29.8100 N.3   183  PHE183     -0.1227
    115  CA        74.8840  -22.9380  -28.4110 C.3   183  PHE183      0.1736
    116  C         76.0190  -22.5300  -27.4670 C.2   183  PHE183      0.2595
    117  O         75.7410  -21.9420  -26.4330 O.2   183  PHE183     -0.2718
    118  CB        74.5170  -24.4080  -28.1450 C.3   183  PHE183      0.0547
    119  CG        73.2080  -24.9470  -28.6890 C.ar  183  PHE183     -0.0202
    120  CD1       72.4540  -24.2180  -29.6100 C.ar  183  PHE183     -0.0042
    121  CD2       72.7280  -26.1830  -28.2800 C.ar  183  PHE183     -0.0042
    122  CE1       71.2610  -24.7330  -30.1280 C.ar  183  PHE183     -0.0003
    123  CE2       71.5420  -26.7000  -28.8070 C.ar  183  PHE183     -0.0003
    124  CZ        70.8220  -25.9730  -29.7330 C.ar  183  PHE183     -0.0000
    125  N         77.2860  -22.8640  -27.8200 N.am  184  ASP184     -0.1974
    126  CA        78.4930  -22.5600  -27.0570 C.3   184  ASP184      0.1709
    127  C         78.7180  -21.0690  -26.8570 C.2   184  ASP184      0.2293
    128  O         79.0500  -20.6750  -25.7360 O.2   184  ASP184     -0.2864
    129  CB        79.7410  -23.2400  -27.6500 C.3   184  ASP184      0.1436
    130  CG        79.9930  -24.6840  -27.1740 C.2   184  ASP184      0.3671
    131  OD1       79.7230  -24.9900  -25.9780 O.co2 184  ASP184     -0.2456
    132  OD2       80.5270  -25.4810  -27.9650 O.co2 184  ASP184     -0.2456
@<TRIPOS>BOND
     1    28    27    2
     2    11    10    2
     3    27    26    1
     4    10     9    1
     5    31    29    1
     6     9     8    1
     7     9    12    1
     8    16    17    1
     9    19    18    2
    10    26    25    1
    11    26    29    1
    12    18    25   am
    13    18    17    1
    14    29    30    1
    15    17    20    1
    16    12    13    1
    17     3     2    1
    18     3     4    2
    19    14    13    2
    20     2     1    1
    21     2     5    1
    22    30    32    1
    23    13    15   am
    24    20    21    1
    25    23    22   ar
    26    21    22    1
    27    22    24   ar
    28     5     7    1
    29     5     6    1
    30    80    77    1
    31    78    77    1
    32    78    79    2
    33    77    76    1
    34    81    82    1
    35    92    93    2
    36    92    91    1
    37    98    96   am
    38    76    74   am
    39    95    96    1
    40    95    94    1
    41    82    83    1
    42    82    85    1
    43    83    84    2
    44    83    90   am
    45    90    91    1
    46    96    97    2
    47    91    94    1
    48    75    74    2
    49    74    73    1
    50    99   100    1
    51    85    86    1
    52   100   101    1
    53   100   103    1
    54    73    72    1
    55   106   101   am
    56   106   107    1
    57   104   103    1
    58    86    87    1
    59   101   102    2
    60   107   108    1
    61   103   105    1
    62    72    66   am
    63    67    66    2
    64    87    88    1
    65    66    65    1
    66   108   110   am
    67   108   109    2
    68    70    69    1
    69    68    65    1
    70    68    69    1
    71   110   111    1
    72    64    65    1
    73    64    61   am
    74    88    89    1
    75    69    71    1
    76    59    60    1
    77    60    61    1
    78    60    63    1
    79   111   112    1
    80    61    62    2
    81   112   113    2
    82   122   124   ar
    83   122   120   ar
    84   114   115    1
    85   124   123   ar
    86   120   119   ar
    87    46    45    2
    88   123   121   ar
    89   119   121   ar
    90   119   118    1
    91   115   118    1
    92   115   116    1
    93   132   130   ar
    94    44    45    1
    95    44    43    1
    96    33    34    1
    97   125   116   am
    98   125   126    1
    99    45    47   am
   100   129   130    1
   101   129   126    1
   102   116   117    2
   103    58    57    1
   104   130   131   ar
   105    34    37    1
   106    34    35    1
   107   126   127    1
   108   127   128    2
   109    57    56   ar
   110    57    55   ar
   111    56    54   ar
   112    47    48    1
   113    55    53   ar
   114    54    52   ar
   115    48    49    1
   116    48    51    1
   117    52    53   ar
   118    52    51    1
   119    49    50    2
   120    35    36    2
   121    35    38   am
   122    38    39    1
   123    39    42    1
   124    39    40    1
   125    41    40    2
