@<TRIPOS>MOLECULE
tmp/5wfjA00.pdb
 144 136 0 0 0
SMALL
GASTEIGER

@<TRIPOS>ATOM
      1  N          2.8530  -18.9110    0.8430 N.3    12  LEU12      -0.1231
      2  CA         2.0870  -18.8260   -0.4100 C.3    12  LEU12       0.1693
      3  C          2.9640  -19.1050   -1.6430 C.2    12  LEU12       0.2592
      4  O          2.5980  -19.9290   -2.4800 O.2    12  LEU12      -0.2718
      5  CB         1.3520  -17.4660   -0.5410 C.3    12  LEU12       0.0284
      6  CG         0.3490  -17.1080    0.5590 C.3    12  LEU12       0.0019
      7  CD1       -0.1630  -15.6810    0.3880 C.3    12  LEU12       0.0001
      8  CD2       -0.8130  -18.1170    0.6220 C.3    12  LEU12       0.0001
      9  N          4.0950  -18.4050   -1.7350 N.am   13  GLY13      -0.1957
     10  CA         5.0680  -18.5410   -2.8090 C.3    13  GLY13       0.1869
     11  C          6.4600  -18.7130   -2.2460 C.2    13  GLY13       0.2309
     12  O          6.6880  -18.4530   -1.0620 O.2    13  GLY13      -0.2863
     13  N          6.5570  -15.1970   -0.2200 N.3    16  VAL16      -0.1245
     14  CA         5.2690  -14.5550    0.0110 C.3    16  VAL16       0.1561
     15  C          4.5450  -15.3960    1.0640 C.2    16  VAL16       0.2260
     16  O          4.4220  -16.6130    0.9070 O.2    16  VAL16      -0.2867
     17  CB         4.4410  -14.4060   -1.2940 C.3    16  VAL16       0.0252
     18  CG1        3.0740  -13.7920   -1.0230 C.3    16  VAL16       0.0019
     19  CG2        5.1980  -13.5880   -2.3290 C.3    16  VAL16       0.0019
     20  N         -1.2760  -10.6890    1.8050 N.3    33  ALA33      -0.1245
     21  CA        -0.1510  -11.4380    1.2480 C.3    33  ALA33       0.1562
     22  C          1.0780  -10.5060    1.4290 C.2    33  ALA33       0.2260
     23  O          1.0410   -9.3150    1.0650 O.2    33  ALA33      -0.2867
     24  CB        -0.3960  -11.7750   -0.2200 C.3    33  ALA33       0.0290
     25  N         -2.4020   -7.4230   -9.5250 N.3    61  VAL61      -0.1245
     26  CA        -2.4920   -7.6140   -8.0580 C.3    61  VAL61       0.1561
     27  C         -2.2320   -6.2490   -7.3450 C.2    61  VAL61       0.2260
     28  O         -1.2670   -5.5260   -7.6680 O.2    61  VAL61      -0.2867
     29  CB        -1.5900   -8.7880   -7.5480 C.3    61  VAL61       0.0252
     30  CG1       -0.1120   -8.5250   -7.8080 C.3    61  VAL61       0.0019
     31  CG2       -1.8360   -9.0980   -6.0770 C.3    61  VAL61       0.0019
     32  N          0.4430   -6.7760    0.1020 N.3    75  MET75      -0.1230
     33  CA        -0.4730   -6.8290   -1.0460 C.3    75  MET75       0.1702
     34  C         -1.7600   -7.5130   -0.6330 C.2    75  MET75       0.2592
     35  O         -1.8150   -8.1340    0.4340 O.2    75  MET75      -0.2718
     36  CB         0.1350   -7.6140   -2.2310 C.3    75  MET75       0.0401
     37  CG         1.4110   -7.0540   -2.7720 C.3    75  MET75       0.0596
     38  SD         2.3430   -8.3090   -3.6900 S.3    75  MET75      -0.1393
     39  CE         2.9300   -9.3630   -2.3340 C.3    75  MET75       0.0692
     40  N         -2.7750   -7.4450   -1.5130 N.am   76  GLU76      -0.1966
     41  CA        -4.0600   -8.0980   -1.3270 C.3    76  GLU76       0.1733
     42  C         -3.8950   -9.6270   -1.4540 C.2    76  GLU76       0.2616
     43  O         -2.9800  -10.1160   -2.1300 O.2    76  GLU76      -0.2715
     44  CB        -5.1010   -7.5610   -2.3280 C.3    76  GLU76       0.0429
     45  CG        -5.1050   -8.2870   -3.6640 C.3    76  GLU76       0.1163
     46  CD        -5.8980   -7.6700   -4.7940 C.2    76  GLU76       0.3649
     47  OE1       -7.0830   -7.3270   -4.5900 O.co2  76  GLU76      -0.2457
     48  OE2       -5.3300   -7.5480   -5.9020 O.co2  76  GLU76      -0.2457
     49  N         -4.7760  -10.3620   -0.7680 N.am   77  TYR77      -0.1960
     50  CA        -4.7910  -11.8140   -0.7660 C.3    77  TYR77       0.1771
     51  C         -6.0130  -12.2650   -1.5400 C.2    77  TYR77       0.2619
     52  O         -7.1090  -11.7560   -1.3130 O.2    77  TYR77      -0.2715
     53  CB        -4.7780  -12.3610    0.6690 C.3    77  TYR77       0.0574
     54  CG        -5.0140  -13.8540    0.7570 C.ar   77  TYR77      -0.0198
     55  CD1       -4.1250  -14.7570    0.1800 C.ar   77  TYR77      -0.0009
     56  CD2       -6.1220  -14.3670    1.4250 C.ar   77  TYR77      -0.0009
     57  CE1       -4.3470  -16.1290    0.2390 C.ar   77  TYR77       0.0417
     58  CE2       -6.3390  -15.7420    1.5160 C.ar   77  TYR77       0.0417
     59  CZ        -5.4410  -16.6200    0.9300 C.ar   77  TYR77       0.1957
     60  OH        -5.6320  -17.9750    1.0210 O.3    77  TYR77      -0.2866
     61  N         -5.8050  -13.1670   -2.5040 N.am   78  LEU78      -0.1964
     62  CA        -6.8360  -13.7210   -3.3900 C.3    78  LEU78       0.1713
     63  C         -6.9820  -15.2100   -3.0220 C.2    78  LEU78       0.2458
     64  O         -6.1510  -16.0240   -3.4330 O.2    78  LEU78      -0.2730
     65  CB        -6.4100  -13.5520   -4.8670 C.3    78  LEU78       0.0310
     66  CG        -6.2910  -12.1280   -5.4080 C.3    78  LEU78       0.0022
     67  CD1       -4.9040  -11.5700   -5.1680 C.3    78  LEU78       0.0001
     68  CD2       -6.5040  -12.1150   -6.9060 C.3    78  LEU78       0.0001
     69  N         -7.9640  -15.5630   -2.1610 N.am   79  PRO79      -0.2727
     70  CA        -8.0800  -16.9590   -1.6740 C.3    79  PRO79       0.1402
     71  C         -8.0470  -18.0680   -2.7250 C.2    79  PRO79       0.2269
     72  O         -7.5130  -19.1420   -2.4540 O.2    79  PRO79      -0.2865
     73  CB        -9.4120  -16.9460   -0.9280 C.3    79  PRO79       0.0296
     74  CG        -9.5290  -15.5360   -0.4290 C.3    79  PRO79       0.0237
     75  CD        -8.9750  -14.6920   -1.5230 C.3    79  PRO79       0.0939
     76  N         -6.1950  -18.3550   -5.3070 N.3    81  GLY81      -0.1210
     77  CA        -4.8150  -18.6620   -5.6730 C.3    81  GLY81       0.1956
     78  C         -4.5020  -18.5910   -7.1590 C.2    81  GLY81       0.2612
     79  O         -5.2070  -17.9120   -7.9200 O.2    81  GLY81      -0.2717
     80  N         -3.4180  -19.2860   -7.5790 N.am   82  CYS82      -0.1970
     81  CA        -2.9330  -19.2420   -8.9630 C.3    82  CYS82       0.1712
     82  C         -3.9160  -19.8350   -9.9930 C.2    82  CYS82       0.2296
     83  O         -4.6680  -20.7740   -9.7040 O.2    82  CYS82      -0.2864
     84  CB        -1.5400  -19.8510   -9.0950 C.3    82  CYS82       0.0983
     85  SG        -1.4970  -21.6580   -8.9690 S.3    82  CYS82      -0.0798
     86  N         -3.0860  -21.5400  -12.6820 N.3    84  ARG84      -0.1231
     87  CA        -2.6890  -22.9070  -13.0640 C.3    84  ARG84       0.1694
     88  C         -3.4920  -23.9940  -12.3210 C.2    84  ARG84       0.2592
     89  O         -4.1210  -24.8190  -12.9720 O.2    84  ARG84      -0.2718
     90  CB        -1.1660  -23.1270  -12.9270 C.3    84  ARG84       0.0321
     91  CG        -0.7280  -24.5340  -13.3590 C.3    84  ARG84       0.0489
     92  CD         0.7010  -24.9010  -13.0100 C.3    84  ARG84       0.2205
     93  NE         0.9250  -24.9460  -11.5680 N.pl3  84  ARG84      -0.0865
     94  CZ         2.1140  -24.8040  -10.9950 C.cat  84  ARG84       0.5346
     95  NH1        3.1980  -24.6170  -11.7390 N.pl3  84  ARG84       0.1354
     96  NH2        2.2260  -24.8220   -9.6740 N.pl3  84  ARG84       0.1354
     97  N         -3.4960  -23.9670  -10.9870 N.am   85  ASP85      -0.1974
     98  CA        -4.1860  -24.9480  -10.1550 C.3    85  ASP85       0.1709
     99  C         -5.7430  -24.8320  -10.2440 C.2    85  ASP85       0.2293
    100  O         -6.4470  -25.8530  -10.2360 O.2    85  ASP85      -0.2864
    101  CB        -3.6600  -24.8790   -8.6960 C.3    85  ASP85       0.1436
    102  CG        -2.1550  -25.1430   -8.4850 C.2    85  ASP85       0.3671
    103  OD1       -1.4470  -25.4240   -9.4800 O.co2  85  ASP85      -0.2456
    104  OD2       -1.6910  -25.0680   -7.3200 O.co2  85  ASP85      -0.2456
    105  N          0.9550  -20.1000  -13.9180 N.3   126  ARG126     -0.1231
    106  CA         1.3180  -20.3070  -12.5100 C.3   126  ARG126      0.1694
    107  C          1.4570  -18.9750  -11.7770 C.2   126  ARG126      0.2592
    108  O          1.2350  -18.9550  -10.5740 O.2   126  ARG126     -0.2718
    109  CB         2.5950  -21.1580  -12.3680 C.3   126  ARG126      0.0321
    110  CG         3.8840  -20.4280  -12.7690 C.3   126  ARG126      0.0489
    111  CD         5.1520  -21.2710  -12.7600 C.3   126  ARG126      0.2205
    112  NE         6.2650  -20.4860  -13.3100 N.pl3 126  ARG126     -0.0865
    113  CZ         6.6700  -20.5170  -14.5800 C.cat 126  ARG126      0.5346
    114  NH1        6.1130  -21.3580  -15.4440 N.pl3 126  ARG126      0.1354
    115  NH2        7.6600  -19.7310  -14.9870 N.pl3 126  ARG126      0.1354
    116  N          1.7900  -17.8620  -12.5120 N.am  127  ASN127     -0.1974
    117  CA         2.0260  -16.5170  -11.9680 C.3   127  ASN127      0.1688
    118  C          0.8450  -15.5090  -12.1240 C.2   127  ASN127      0.2292
    119  O          1.0050  -14.3130  -11.8620 O.2   127  ASN127     -0.2864
    120  CB         3.3090  -15.9490  -12.5540 C.3   127  ASN127      0.1181
    121  CG         4.5450  -16.6370  -12.0570 C.2   127  ASN127      0.2629
    122  OD1        4.6500  -17.0270  -10.8950 O.2   127  ASN127     -0.2716
    123  ND2        5.5290  -16.7550  -12.9180 N.am  127  ASN127     -0.0877
    124  N         -3.1450  -14.7560  -10.7170 N.3   129  LEU129     -0.1245
    125  CA        -4.0500  -15.0660   -9.5920 C.3   129  LEU129      0.1561
    126  C         -5.5300  -14.8470   -9.9430 C.2   129  LEU129      0.2260
    127  O         -5.8690  -13.9820  -10.7630 O.2   129  LEU129     -0.2867
    128  CB        -3.6630  -14.2720   -8.3270 C.3   129  LEU129      0.0270
    129  CG        -2.2670  -14.5290   -7.7540 C.3   129  LEU129      0.0019
    130  CD1       -1.8770  -13.4510   -6.7810 C.3   129  LEU129      0.0001
    131  CD2       -2.1450  -15.9310   -7.1370 C.3   129  LEU129      0.0001
    132  N          0.3090  -11.2200  -11.3590 N.3   139  ALA139     -0.1231
    133  CA         1.1120  -11.1680  -10.1440 C.3   139  ALA139      0.1694
    134  C          2.5710  -11.5600  -10.4080 C.2   139  ALA139      0.2592
    135  O          2.9540  -11.6960  -11.5790 O.2   139  ALA139     -0.2718
    136  CB         0.5050  -12.0780   -9.0950 C.3   139  ALA139      0.0304
    137  N          3.3830  -11.7370   -9.3040 N.am  140  ASP140     -0.1974
    138  CA         4.8000  -12.1140   -9.2900 C.3   140  ASP140      0.1709
    139  C          5.6530  -11.1010  -10.0700 C.2   140  ASP140      0.2293
    140  O          6.0540  -11.3550  -11.2050 O.2   140  ASP140     -0.2864
    141  CB         5.0010  -13.5810   -9.7500 C.3   140  ASP140      0.1436
    142  CG         6.4350  -14.1030   -9.7000 C.2   140  ASP140      0.3671
    143  OD1        7.1950  -13.8450  -10.6590 O.co2 140  ASP140     -0.2456
    144  OD2        6.7590  -14.8680   -8.7690 O.co2 140  ASP140     -0.2456
@<TRIPOS>BOND
     1   114   113    1
     2   115   113    1
     3   113   112    2
     4   105   106    1
     5    91    92    1
     6    91    90    1
     7   112   111    1
     8    87    90    1
     9    87    86    1
    10    87    88    1
    11    92    93    1
    12    89    88    2
    13   123   121   am
    14   110   111    1
    15   110   109    1
    16   120   121    1
    17   120   117    1
    18   116   117    1
    19   116   107   am
    20   106   109    1
    21   106   107    1
    22    88    97   am
    23   118   117    1
    24   118   119    2
    25   121   122    2
    26   107   108    2
    27    95    94    1
    28   135   134    2
    29    93    94    2
    30   132   133    1
    31   140   139    2
    32    94    96    1
    33    97    98    1
    34   127   126    2
    35   124   125    1
    36   143   142   ar
    37   134   133    1
    38   134   137   am
    39    99   100    2
    40    99    98    1
    41    98   101    1
    42   133   136    1
    43   139   138    1
    44    82    83    2
    45    82    81    1
    46   126   125    1
    47   141   142    1
    48   141   138    1
    49   142   144   ar
    50   125   128    1
    51    25    26    1
    52   103   102   ar
    53   137   138    1
    54    84    85    1
    55    84    81    1
    56    81    80    1
    57   101   102    1
    58   102   104   ar
    59   128   129    1
    60    26    29    1
    61    26    27    1
    62    79    78    2
    63    30    29    1
    64   129   131    1
    65   129   130    1
    66    28    27    2
    67    80    78   am
    68    29    31    1
    69    78    77    1
    70    68    66    1
    71    48    46   ar
    72    77    76    1
    73    66    67    1
    74    66    65    1
    75    65    62    1
    76    46    47   ar
    77    46    45    1
    78    38    37    1
    79    38    39    1
    80    45    44    1
    81    64    63    2
    82    62    63    1
    83    62    61    1
    84    63    69   am
    85    10    11    1
    86    10     9    1
    87    37    36    1
    88    71    72    2
    89    71    70    1
    90    61    51   am
    91     4     3    2
    92    19    17    1
    93    44    41    1
    94    11    12    2
    95    36    33    1
    96    69    70    1
    97    69    75    1
    98    43    42    2
    99     9     3   am
   100    70    73    1
   101     3     2    1
   102    51    52    2
   103    51    50    1
   104    75    74    1
   105    40    41    1
   106    40    34   am
   107    42    41    1
   108    42    49   am
   109    17    18    1
   110    17    14    1
   111    33    34    1
   112    33    32    1
   113    73    74    1
   114    49    50    1
   115    50    53    1
   116    34    35    2
   117     5     2    1
   118     5     6    1
   119     2     1    1
   120    13    14    1
   121    24    21    1
   122    14    15    1
   123    55    57   ar
   124    55    54   ar
   125    57    59   ar
   126     7     6    1
   127     6     8    1
   128    53    54    1
   129    54    56   ar
   130    16    15    2
   131    59    60    1
   132    59    58   ar
   133    23    22    2
   134    21    22    1
   135    21    20    1
   136    56    58   ar
