@<TRIPOS>MOLECULE
tmp/5wfpC00.pdb
 135 127 0 0 0
SMALL
GASTEIGER

@<TRIPOS>ATOM
      1  N         26.4450   37.9650   17.5810 N.3   274  VAL274     -0.1245
      2  CA        27.3110   37.4730   18.6440 C.3   274  VAL274      0.1561
      3  C         28.0400   38.6400   19.3120 C.2   274  VAL274      0.2260
      4  O         28.0930   38.7330   20.5320 O.2   274  VAL274     -0.2867
      5  CB        28.3380   36.4430   18.1250 C.3   274  VAL274      0.0252
      6  CG1       29.4350   36.1960   19.1630 C.3   274  VAL274      0.0019
      7  CG2       27.6410   35.1300   17.7730 C.3   274  VAL274      0.0019
      8  N         27.9540   39.8350   23.3270 N.3   278  ILE278     -0.1245
      9  CA        29.1270   40.0300   24.1730 C.3   278  ILE278      0.1561
     10  C         29.1790   41.4480   24.7430 C.2   278  ILE278      0.2260
     11  O         29.6310   41.6470   25.8680 O.2   278  ILE278     -0.2867
     12  CB        30.4220   39.7040   23.3970 C.3   278  ILE278      0.0252
     13  CG1       30.4050   38.2170   23.0090 C.3   278  ILE278      0.0019
     14  CG2       31.6760   40.0430   24.2320 C.3   278  ILE278      0.0019
     15  CD1       31.4760   37.8060   22.0070 C.3   278  ILE278      0.0001
     16  N         27.4120   33.3970   28.8900 N.3   297  VAL297     -0.1245
     17  CA        28.4390   32.3570   28.8170 C.3   297  VAL297      0.1561
     18  C         27.8330   30.9740   28.5120 C.2   297  VAL297      0.2260
     19  O         28.3250   30.2560   27.6520 O.2   297  VAL297     -0.2867
     20  CB        29.2510   32.2710   30.1210 C.3   297  VAL297      0.0252
     21  CG1       30.1300   31.0260   30.1100 C.3   297  VAL297      0.0019
     22  CG2       30.0920   33.5430   30.3160 C.3   297  VAL297      0.0019
     23  N         27.0000   30.8010   24.8580 N.3   300  MET300     -0.1230
     24  CA        28.1740   30.6950   23.9830 C.3   300  MET300      0.1702
     25  C         28.8770   29.3390   24.0850 C.2   300  MET300      0.2592
     26  O         29.5230   28.9120   23.1350 O.2   300  MET300     -0.2718
     27  CB        29.1730   31.8210   24.2760 C.3   300  MET300      0.0401
     28  CG        28.5850   33.2340   24.0920 C.3   300  MET300      0.0596
     29  SD        27.9350   33.5810   22.4390 S.3   300  MET300     -0.1393
     30  CE        29.3160   33.1540   21.3930 C.3   300  MET300      0.0692
     31  N         28.7230   28.6530   25.2130 N.am  301  ASN301     -0.1974
     32  CA        29.3000   27.3190   25.3830 C.3   301  ASN301      0.1688
     33  C         28.3350   26.1810   25.0520 C.2   301  ASN301      0.2292
     34  O         28.6710   25.0090   25.1890 O.2   301  ASN301     -0.2864
     35  CB        29.8200   27.1390   26.8060 C.3   301  ASN301      0.1181
     36  CG        31.1800   27.7640   27.0020 C.2   301  ASN301      0.2629
     37  OD1       32.1640   27.3170   26.4280 O.2   301  ASN301     -0.2716
     38  ND2       31.2410   28.8140   27.8040 N.am  301  ASN301     -0.0877
     39  N         26.1400   26.6290   19.5400 N.3   305  VAL305     -0.1231
     40  CA        26.8930   27.8620   19.3130 C.3   305  VAL305      0.1692
     41  C         28.4010   27.6470   19.3550 C.2   305  VAL305      0.2592
     42  O         29.1150   28.1640   18.5030 O.2   305  VAL305     -0.2718
     43  CB        26.5030   28.9550   20.3360 C.3   305  VAL305      0.0266
     44  CG1       27.4150   30.1750   20.1920 C.3   305  VAL305      0.0020
     45  CG2       25.0280   29.3620   20.1450 C.3   305  VAL305      0.0020
     46  N         28.8730   26.8750   20.3300 N.am  306  TYR306     -0.1976
     47  CA        30.3010   26.6810   20.5680 C.3   306  TYR306      0.1639
     48  C         31.0600   26.2710   19.3020 C.2   306  TYR306      0.2290
     49  O         32.1900   26.6930   19.0800 O.2   306  TYR306     -0.2864
     50  CB        30.5190   25.6210   21.6560 C.3   306  TYR306      0.0560
     51  CG        31.9620   25.4480   22.0570 C.ar  306  TYR306     -0.0198
     52  CD1       32.5200   26.2350   23.0520 C.ar  306  TYR306     -0.0009
     53  CD2       32.7740   24.5030   21.4360 C.ar  306  TYR306     -0.0009
     54  CE1       33.8330   26.0920   23.4170 C.ar  306  TYR306      0.0417
     55  CE2       34.0980   24.3580   21.7930 C.ar  306  TYR306      0.0417
     56  CZ        34.6200   25.1520   22.7820 C.ar  306  TYR306      0.1957
     57  OH        35.9350   25.0140   23.1450 O.3   306  TYR306     -0.2866
     58  N         30.6140   26.9670   16.2370 N.3   308  LEU308     -0.1231
     59  CA        30.5830   27.8960   15.1060 C.3   308  LEU308      0.1693
     60  C         31.9220   28.6140   14.9170 C.2   308  LEU308      0.2592
     61  O         32.0210   29.8280   15.0760 O.2   308  LEU308     -0.2718
     62  CB        29.4620   28.9200   15.2780 C.3   308  LEU308      0.0284
     63  CG        28.0280   28.3740   15.3160 C.3   308  LEU308      0.0019
     64  CD1       27.0520   29.5120   15.5450 C.3   308  LEU308      0.0001
     65  CD2       27.6810   27.5900   14.0470 C.3   308  LEU308      0.0001
     66  N         32.9390   27.8390   14.5580 N.am  309  ASP309     -0.1974
     67  CA        34.3110   28.3320   14.3930 C.3   309  ASP309      0.1709
     68  C         34.4810   29.5310   13.4690 C.2   309  ASP309      0.2293
     69  O         35.3100   30.3980   13.7290 O.2   309  ASP309     -0.2864
     70  CB        35.1870   27.1940   13.8880 C.3   309  ASP309      0.1436
     71  CG        35.3470   26.1110   14.9180 C.2   309  ASP309      0.3671
     72  OD1       35.2820   26.4460   16.1130 O.co2 309  ASP309     -0.2456
     73  OD2       35.5200   24.9360   14.5480 O.co2 309  ASP309     -0.2456
     74  N         32.3620   31.9010   12.9420 N.3   311  THR311     -0.1203
     75  CA        31.8220   33.0750   13.6160 C.3   311  THR311      0.1994
     76  C         32.8390   33.5610   14.6400 C.2   311  THR311      0.2617
     77  O         33.1840   34.7400   14.6790 O.2   311  THR311     -0.2717
     78  CB        30.4730   32.7620   14.2980 C.3   311  THR311      0.1784
     79  OG1       29.5850   32.2000   13.3290 O.3   311  THR311     -0.2211
     80  CG2       29.8450   34.0340   14.8780 C.3   311  THR311      0.0376
     81  N         33.3250   32.6180   15.4400 N.am  312  PHE312     -0.1975
     82  CA        34.3760   32.8420   16.4330 C.3   312  PHE312      0.1639
     83  C         35.5930   33.5460   15.8170 C.2   312  PHE312      0.2290
     84  O         36.0680   34.5420   16.3520 O.2   312  PHE312     -0.2864
     85  CB        34.7650   31.4860   17.0600 C.3   312  PHE312      0.0560
     86  CG        35.9900   31.5220   17.9360 C.ar  312  PHE312     -0.0200
     87  CD1       35.9440   32.0830   19.2030 C.ar  312  PHE312     -0.0042
     88  CD2       37.1800   30.9510   17.5050 C.ar  312  PHE312     -0.0042
     89  CE1       37.0710   32.1000   20.0170 C.ar  312  PHE312     -0.0003
     90  CE2       38.3030   30.9670   18.3050 C.ar  312  PHE312     -0.0003
     91  CZ        38.2490   31.5380   19.5640 C.ar  312  PHE312     -0.0000
     92  N         35.0610   37.3430   15.4100 N.3   315  ILE315     -0.1245
     93  CA        34.7940   38.1740   16.5800 C.3   315  ILE315      0.1561
     94  C         36.0820   38.9030   16.9640 C.2   315  ILE315      0.2260
     95  O         37.1400   38.2730   17.0590 O.2   315  ILE315     -0.2867
     96  CB        34.2760   37.3260   17.7600 C.3   315  ILE315      0.0252
     97  CG1       32.9020   36.7420   17.4170 C.3   315  ILE315      0.0019
     98  CG2       34.2320   38.1440   19.0420 C.3   315  ILE315      0.0019
     99  CD1       31.8460   37.8150   17.0950 C.3   315  ILE315      0.0001
    100  N         36.6230   38.4820   22.2960 N.3   320  LYS320     -0.1245
    101  CA        37.0330   37.1320   22.6540 C.3   320  LYS320      0.1561
    102  C         37.5560   37.1130   24.0850 C.2   320  LYS320      0.2260
    103  O         37.2480   36.2030   24.8490 O.2   320  LYS320     -0.2867
    104  CB        38.1150   36.6060   21.7030 C.3   320  LYS320      0.0271
    105  CG        37.6390   36.0700   20.3440 C.3   320  LYS320      0.0035
    106  CD        38.8660   35.6210   19.5330 C.3   320  LYS320      0.0206
    107  CE        38.5280   34.9020   18.2380 C.3   320  LYS320      0.1093
    108  NZ        38.4150   35.8230   17.0780 N.3   320  LYS320     -0.1314
    109  N         34.7450   37.5420   26.7340 N.3   323  LEU323     -0.1231
    110  CA        33.9970   36.3050   26.8730 C.3   323  LEU323      0.1693
    111  C         34.8080   35.2650   27.6410 C.2   323  LEU323      0.2591
    112  O         34.2900   34.5980   28.5460 O.2   323  LEU323     -0.2718
    113  CB        33.5830   35.7710   25.4960 C.3   323  LEU323      0.0284
    114  CG        32.8560   34.4220   25.4680 C.3   323  LEU323      0.0019
    115  CD1       31.5940   34.4400   26.3340 C.3   323  LEU323      0.0001
    116  CD2       32.5200   34.0320   24.0340 C.3   323  LEU323      0.0001
    117  N         36.0860   35.1410   27.3040 N.am  324  GLU324     -0.1979
    118  CA        36.9260   34.1360   27.9470 C.3   324  GLU324      0.1602
    119  C         37.1200   34.4480   29.4380 C.2   324  GLU324      0.2287
    120  O         37.1250   33.5490   30.2590 O.2   324  GLU324     -0.2864
    121  CB        38.2820   34.0230   27.2340 C.3   324  GLU324      0.0415
    122  CG        39.3420   33.1780   27.9720 C.3   324  GLU324      0.1163
    123  CD        39.0360   31.6770   27.9990 C.2   324  GLU324      0.3649
    124  OE1       38.0630   31.2370   27.3400 O.co2 324  GLU324     -0.2457
    125  OE2       39.7830   30.9330   28.6820 O.co2 324  GLU324     -0.2457
    126  N         33.9610   33.4240   31.1640 N.3   327  HIS327     -0.1241
    127  CA        33.9400   31.9760   31.2960 C.3   327  HIS327      0.1621
    128  C         34.8770   31.4890   32.4000 C.2   327  HIS327      0.2264
    129  O         34.5880   30.5140   33.0910 O.2   327  HIS327     -0.2867
    130  CB        34.3190   31.3160   29.9680 C.3   327  HIS327      0.0745
    131  CG        34.4360   29.8300   30.0520 C.ar  327  HIS327      0.0817
    132  ND1       33.3690   29.0180   30.3720 N.ar  327  HIS327     -0.2268
    133  CD2       35.4990   29.0100   29.8930 C.ar  327  HIS327      0.1154
    134  CE1       33.7650   27.7580   30.3850 C.ar  327  HIS327      0.1986
    135  NE2       35.0550   27.7270   30.1020 N.ar  327  HIS327     -0.2212
@<TRIPOS>BOND
     1    74    75    1
     2    79    78    1
     3    68    69    2
     4    68    67    1
     5    75    78    1
     6    75    76    1
     7    70    67    1
     8    70    71    1
     9    65    63    1
    10    78    80    1
    11    67    66    1
    12    73    71   ar
    13    66    60   am
    14    76    77    2
    15    76    81   am
    16    60    61    2
    17    60    59    1
    18    71    72   ar
    19    59    62    1
    20    59    58    1
    21    62    63    1
    22    63    64    1
    23    92    93    1
    24    81    82    1
    25    83    84    2
    26    83    82    1
    27    82    85    1
    28    93    94    1
    29    93    96    1
    30    94    95    2
    31    85    86    1
    32   108   107    1
    33    99    97    1
    34    97    96    1
    35    88    86   ar
    36    88    90   ar
    37     1     2    1
    38    96    98    1
    39     7     5    1
    40    86    87   ar
    41     5     2    1
    42     5     6    1
    43   107   106    1
    44    90    91   ar
    45    42    41    2
    46     2     3    1
    47    49    48    2
    48    87    89   ar
    49    48    47    1
    50     3     4    2
    51    40    41    1
    52    40    39    1
    53    40    43    1
    54    41    46   am
    55   106   105    1
    56    91    89   ar
    57    45    43    1
    58    44    43    1
    59    46    47    1
    60   105   104    1
    61    47    50    1
    62    30    29    1
    63    53    55   ar
    64    53    51   ar
    65    50    51    1
    66   104   101    1
    67    55    56   ar
    68    15    13    1
    69    51    52   ar
    70   100   101    1
    71    29    28    1
    72   101   102    1
    73    56    57    1
    74    56    54   ar
    75    13    12    1
    76    52    54   ar
    77    26    25    2
    78     8     9    1
    79    12     9    1
    80    12    14    1
    81    24    25    1
    82    24    27    1
    83    24    23    1
    84   116   114    1
    85    25    31   am
    86   102   103    2
    87    28    27    1
    88     9    10    1
    89    10    11    2
    90    33    34    2
    91    33    32    1
    92    31    32    1
    93    32    35    1
    94   114   113    1
    95   114   115    1
    96   113   110    1
    97    37    36    2
    98   109   110    1
    99    35    36    1
   100   110   111    1
   101    36    38   am
   102   121   118    1
   103   121   122    1
   104   117   111   am
   105   117   118    1
   106   124   123   ar
   107   111   112    2
   108    19    18    2
   109   118   119    1
   110   122   123    1
   111   123   125   ar
   112    18    17    1
   113    17    16    1
   114    17    20    1
   115   119   120    2
   116   133   131   ar
   117   133   135   ar
   118   130   131    1
   119   130   127    1
   120   131   132   ar
   121   135   134   ar
   122    21    20    1
   123    20    22    1
   124   132   134   ar
   125   126   127    1
   126   127   128    1
   127   128   129    2
