@<TRIPOS>MOLECULE
tmp/5wfrC00.pdb
 139 133 0 0 0
SMALL
GASTEIGER

@<TRIPOS>ATOM
      1  N         26.7500   38.1370   17.6890 N.3   274  VAL274     -0.1245
      2  CA        27.6120   37.6370   18.7530 C.3   274  VAL274      0.1561
      3  C         28.3240   38.8020   19.4360 C.2   274  VAL274      0.2260
      4  O         28.4350   38.8610   20.6690 O.2   274  VAL274     -0.2867
      5  CB        28.6430   36.6210   18.2240 C.3   274  VAL274      0.0252
      6  CG1       29.7090   36.2930   19.2810 C.3   274  VAL274      0.0019
      7  CG2       27.9440   35.3610   17.7940 C.3   274  VAL274      0.0019
      8  N         28.2860   40.0490   23.4510 N.3   278  ILE278     -0.1245
      9  CA        29.4740   40.2160   24.2820 C.3   278  ILE278      0.1561
     10  C         29.5170   41.6310   24.8850 C.2   278  ILE278      0.2260
     11  O         30.0060   41.8190   25.9910 O.2   278  ILE278     -0.2867
     12  CB        30.7710   39.9250   23.4860 C.3   278  ILE278      0.0252
     13  CG1       30.7920   38.4600   23.0430 C.3   278  ILE278      0.0019
     14  CG2       32.0210   40.2410   24.3120 C.3   278  ILE278      0.0019
     15  CD1       31.9080   38.1470   22.1020 C.3   278  ILE278      0.0001
     16  N         27.3200   30.8920   24.9520 N.3   300  MET300     -0.1230
     17  CA        28.5160   30.7480   24.1220 C.3   300  MET300      0.1702
     18  C         29.1480   29.3640   24.2490 C.2   300  MET300      0.2592
     19  O         29.8200   28.9110   23.3230 O.2   300  MET300     -0.2718
     20  CB        29.5580   31.8170   24.4640 C.3   300  MET300      0.0401
     21  CG        29.0440   33.2510   24.3240 C.3   300  MET300      0.0596
     22  SD        28.5040   33.6290   22.6520 S.3   300  MET300     -0.1393
     23  CE        28.0290   35.3390   22.8390 C.3   300  MET300      0.0692
     24  N         28.9390   28.6920   25.3810 N.am  301  ASN301     -0.1974
     25  CA        29.4940   27.3530   25.5600 C.3   301  ASN301      0.1688
     26  C         28.5270   26.2280   25.1990 C.2   301  ASN301      0.2292
     27  O         28.8490   25.0490   25.3390 O.2   301  ASN301     -0.2864
     28  CB        29.9750   27.1670   26.9920 C.3   301  ASN301      0.1181
     29  CG        31.3030   27.8280   27.2370 C.2   301  ASN301      0.2629
     30  OD1       32.3180   27.4000   26.7060 O.2   301  ASN301     -0.2716
     31  ND2       31.3060   28.8830   28.0370 N.am  301  ASN301     -0.0877
     32  N         26.4200   26.8270   19.6280 N.3   305  VAL305     -0.1231
     33  CA        27.1650   28.0660   19.4410 C.3   305  VAL305      0.1692
     34  C         28.6750   27.8600   19.5440 C.2   305  VAL305      0.2592
     35  O         29.4310   28.4320   18.7670 O.2   305  VAL305     -0.2718
     36  CB        26.7010   29.1330   20.4560 C.3   305  VAL305      0.0266
     37  CG1       27.6040   30.3640   20.4270 C.3   305  VAL305      0.0020
     38  CG2       25.2370   29.5080   20.1820 C.3   305  VAL305      0.0020
     39  N         29.1010   27.0270   20.4850 N.am  306  TYR306     -0.1962
     40  CA        30.5180   26.7790   20.7410 C.3   306  TYR306      0.1771
     41  C         31.2960   26.3600   19.4910 C.2   306  TYR306      0.2619
     42  O         32.4640   26.7110   19.3280 O.2   306  TYR306     -0.2715
     43  CB        30.6570   25.6990   21.8230 C.3   306  TYR306      0.0574
     44  CG        32.0720   25.4380   22.2660 C.ar  306  TYR306     -0.0198
     45  CD1       32.6690   26.2280   23.2410 C.ar  306  TYR306     -0.0009
     46  CD2       32.8130   24.3980   21.7190 C.ar  306  TYR306     -0.0009
     47  CE1       33.9610   25.9950   23.6530 C.ar  306  TYR306      0.0417
     48  CE2       34.1180   24.1630   22.1250 C.ar  306  TYR306      0.0417
     49  CZ        34.6800   24.9620   23.0870 C.ar  306  TYR306      0.1957
     50  OH        35.9680   24.7260   23.4950 O.3   306  TYR306     -0.2866
     51  N         30.6380   25.6130   18.6100 N.am  307  ARG307     -0.1963
     52  CA        31.3170   25.0160   17.4680 C.3   307  ARG307      0.1729
     53  C         31.4450   25.9560   16.2690 C.2   307  ARG307      0.2616
     54  O         32.0550   25.5900   15.2730 O.2   307  ARG307     -0.2715
     55  CB        30.5990   23.7360   17.0320 C.3   307  ARG307      0.0348
     56  CG        29.1440   23.9280   16.7000 C.3   307  ARG307      0.0492
     57  CD        28.5430   22.6440   16.1870 C.3   307  ARG307      0.2205
     58  NE        29.2110   22.1860   14.9670 N.pl3 307  ARG307     -0.0865
     59  CZ        28.9640   22.6860   13.7590 C.cat 307  ARG307      0.5346
     60  NH1       28.0710   23.6620   13.6090 N.pl3 307  ARG307      0.1354
     61  NH2       29.6170   22.2250   12.6990 N.pl3 307  ARG307      0.1354
     62  N         30.8860   27.1600   16.3620 N.am  308  LEU308     -0.1963
     63  CA        30.9230   28.1040   15.2460 C.3   308  LEU308      0.1728
     64  C         32.2630   28.8300   15.1080 C.2   308  LEU308      0.2616
     65  O         32.3420   30.0450   15.2810 O.2   308  LEU308     -0.2715
     66  CB        29.8070   29.1320   15.3930 C.3   308  LEU308      0.0311
     67  CG        28.3980   28.5720   15.4650 C.3   308  LEU308      0.0022
     68  CD1       27.4250   29.7350   15.6440 C.3   308  LEU308      0.0001
     69  CD2       28.0870   27.7790   14.2110 C.3   308  LEU308      0.0001
     70  N         33.3020   28.0820   14.7610 N.am  309  ASP309     -0.1971
     71  CA        34.6590   28.6150   14.6230 C.3   309  ASP309      0.1709
     72  C         34.8060   29.7780   13.6440 C.2   309  ASP309      0.2293
     73  O         35.5830   30.6920   13.8980 O.2   309  ASP309     -0.2864
     74  CB        35.6040   27.4900   14.2210 C.3   309  ASP309      0.1436
     75  CG        35.7460   26.4460   15.3080 C.2   309  ASP309      0.3671
     76  OD1       35.7620   26.8370   16.4980 O.co2 309  ASP309     -0.2456
     77  OD2       35.8180   25.2420   14.9810 O.co2 309  ASP309     -0.2456
     78  N         32.7130   32.0790   13.0190 N.3   311  THR311     -0.1203
     79  CA        32.0950   33.2600   13.5860 C.3   311  THR311      0.1994
     80  C         33.0470   33.8930   14.5920 C.2   311  THR311      0.2617
     81  O         33.2800   35.0930   14.5670 O.2   311  THR311     -0.2717
     82  CB        30.7500   32.9030   14.2420 C.3   311  THR311      0.1784
     83  OG1       29.9360   32.2200   13.2810 O.3   311  THR311     -0.2211
     84  CG2       30.0250   34.1490   14.7150 C.3   311  THR311      0.0376
     85  N         33.6290   33.0520   15.4370 N.am  312  PHE312     -0.1975
     86  CA        34.5240   33.4750   16.5030 C.3   312  PHE312      0.1639
     87  C         35.8620   33.9900   15.9590 C.2   312  PHE312      0.2290
     88  O         36.4520   34.8940   16.5480 O.2   312  PHE312     -0.2864
     89  CB        34.6930   32.2990   17.4930 C.3   312  PHE312      0.0560
     90  CG        36.0380   32.2230   18.1840 C.ar  312  PHE312     -0.0200
     91  CD1       36.2440   32.8500   19.4130 C.ar  312  PHE312     -0.0042
     92  CD2       37.0780   31.4550   17.6430 C.ar  312  PHE312     -0.0042
     93  CE1       37.4750   32.7540   20.0700 C.ar  312  PHE312     -0.0003
     94  CE2       38.3120   31.3580   18.2930 C.ar  312  PHE312     -0.0003
     95  CZ        38.5080   32.0070   19.5070 C.ar  312  PHE312     -0.0000
     96  N         35.5140   37.7700   15.4470 N.3   315  ILE315     -0.1245
     97  CA        35.2480   38.6340   16.5940 C.3   315  ILE315      0.1561
     98  C         36.5230   39.3800   16.9920 C.2   315  ILE315      0.2260
     99  O         37.5910   38.7870   17.0350 O.2   315  ILE315     -0.2867
    100  CB        34.7110   37.8110   17.7930 C.3   315  ILE315      0.0252
    101  CG1       33.3610   37.1790   17.4410 C.3   315  ILE315      0.0019
    102  CG2       34.5990   38.6630   19.0350 C.3   315  ILE315      0.0019
    103  CD1       32.2460   38.1800   17.1970 C.3   315  ILE315      0.0001
    104  N         37.0740   38.8570   22.4570 N.3   320  LYS320     -0.1245
    105  CA        37.4270   37.4850   22.8010 C.3   320  LYS320      0.1561
    106  C         37.9570   37.4310   24.2200 C.2   320  LYS320      0.2260
    107  O         37.6630   36.5040   24.9630 O.2   320  LYS320     -0.2867
    108  CB        38.4680   36.9130   21.8430 C.3   320  LYS320      0.0271
    109  CG        37.9510   36.5810   20.4700 C.3   320  LYS320      0.0035
    110  CD        39.0550   35.9440   19.6350 C.3   320  LYS320      0.0206
    111  CE        38.8550   36.2050   18.1610 C.3   320  LYS320      0.1093
    112  NZ        39.2750   35.0350   17.3550 N.3   320  LYS320     -0.1314
    113  N         35.0880   37.8030   26.7840 N.3   323  LEU323     -0.1231
    114  CA        34.3780   36.5420   26.8990 C.3   323  LEU323      0.1693
    115  C         35.1960   35.4800   27.6440 C.2   323  LEU323      0.2591
    116  O         34.6580   34.7580   28.4960 O.2   323  LEU323     -0.2718
    117  CB        33.9720   36.0260   25.5140 C.3   323  LEU323      0.0284
    118  CG        33.1870   34.7100   25.5310 C.3   323  LEU323      0.0019
    119  CD1       31.9480   34.8380   26.4200 C.3   323  LEU323      0.0001
    120  CD2       32.8120   34.2740   24.1180 C.3   323  LEU323      0.0001
    121  N         36.4880   35.3840   27.3510 N.am  324  GLU324     -0.1979
    122  CA        37.2960   34.3230   27.9590 C.3   324  GLU324      0.1602
    123  C         37.4910   34.5420   29.4680 C.2   324  GLU324      0.2287
    124  O         37.5150   33.5920   30.2490 O.2   324  GLU324     -0.2864
    125  CB        38.6540   34.2050   27.2520 C.3   324  GLU324      0.0415
    126  CG        39.6450   33.2320   27.9210 C.3   324  GLU324      0.1163
    127  CD        39.1280   31.7920   28.0040 C.2   324  GLU324      0.3649
    128  OE1       38.3100   31.3860   27.1410 O.co2 324  GLU324     -0.2457
    129  OE2       39.5460   31.0630   28.9370 O.co2 324  GLU324     -0.2457
    130  N         34.3540   33.4970   31.2060 N.3   327  HIS327     -0.1241
    131  CA        34.3000   32.0440   31.2610 C.3   327  HIS327      0.1621
    132  C         35.1940   31.5080   32.3810 C.2   327  HIS327      0.2264
    133  O         34.8790   30.5030   33.0250 O.2   327  HIS327     -0.2867
    134  CB        34.7080   31.4520   29.8950 C.3   327  HIS327      0.0745
    135  CG        34.8720   29.9680   29.9080 C.ar  327  HIS327      0.0817
    136  ND1       33.8020   29.0990   29.9030 N.ar  327  HIS327     -0.2268
    137  CD2       35.9830   29.1960   29.9630 C.ar  327  HIS327      0.1154
    138  CE1       34.2440   27.8580   29.9370 C.ar  327  HIS327      0.1986
    139  NE2       35.5650   27.8870   29.9750 N.ar  327  HIS327     -0.2212
@<TRIPOS>BOND
     1    61    59    1
     2    78    79    1
     3    83    82    1
     4    79    82    1
     5    79    80    1
     6    60    59    1
     7    72    73    2
     8    72    71    1
     9    59    58    2
    10    69    67    1
    11    74    71    1
    12    74    75    1
    13    82    84    1
    14    81    80    2
    15    80    85   am
    16    71    70    1
    17    70    64   am
    18    58    57    1
    19    77    75   ar
    20    64    63    1
    21    64    65    2
    22    63    66    1
    23    63    62    1
    24    54    53    2
    25    75    76   ar
    26    66    67    1
    27    85    86    1
    28    96    97    1
    29    67    68    1
    30    87    86    1
    31    87    88    2
    32    57    56    1
    33    53    62   am
    34    53    52    1
    35    86    89    1
    36    97    98    1
    37    97   100    1
    38    56    55    1
    39    98    99    2
    40    55    52    1
    41   103   101    1
    42   112   111    1
    43   101   100    1
    44    52    51    1
    45    89    90    1
    46    92    90   ar
    47    92    94   ar
    48     1     2    1
    49   100   102    1
    50     7     5    1
    51   111   110    1
    52    90    91   ar
    53     5     2    1
    54     5     6    1
    55    94    95   ar
    56    51    41   am
    57     2     3    1
    58    35    34    2
    59    42    41    2
    60    91    93   ar
    61     3     4    2
    62    33    34    1
    63    33    32    1
    64    33    36    1
    65    41    40    1
    66    95    93   ar
    67    34    39   am
    68   110   109    1
    69    38    36    1
    70    37    36    1
    71   109   108    1
    72    39    40    1
    73    40    43    1
    74    46    48   ar
    75    46    44   ar
    76    43    44    1
    77   108   105    1
    78    15    13    1
    79    48    49   ar
    80    44    45   ar
    81   104   105    1
    82    22    23    1
    83    22    21    1
    84   105   106    1
    85    13    12    1
    86    49    50    1
    87    49    47   ar
    88    45    47   ar
    89    19    18    2
    90     8     9    1
    91    12     9    1
    92    12    14    1
    93   120   118    1
    94    17    18    1
    95    17    20    1
    96    17    16    1
    97   106   107    2
    98    18    24   am
    99     9    10    1
   100    21    20    1
   101    10    11    2
   102    26    27    2
   103    26    25    1
   104    24    25    1
   105   117   118    1
   106   117   114    1
   107   118   119    1
   108    25    28    1
   109    30    29    2
   110   113   114    1
   111   114   115    1
   112    28    29    1
   113   128   127   ar
   114    29    31   am
   115   125   126    1
   116   125   122    1
   117   121   115   am
   118   121   122    1
   119   115   116    2
   120   126   127    1
   121   122   123    1
   122   127   129   ar
   123   123   124    2
   124   134   135    1
   125   134   131    1
   126   136   135   ar
   127   136   138   ar
   128   135   137   ar
   129   138   139   ar
   130   137   139   ar
   131   130   131    1
   132   131   132    1
   133   132   133    2
