@<TRIPOS>MOLECULE
tmp/5wfuC00.pdb
 89 86 0 0 0
SMALL
GASTEIGER

@<TRIPOS>ATOM
      1  N         97.4110   -5.1400   48.7780 N.3    32  THR32      -0.1218
      2  CA        96.3400   -4.9420   49.7620 C.3    32  THR32       0.1862
      3  C         95.9740   -3.4860   49.9230 C.2    32  THR32       0.2287
      4  O         94.7830   -3.1040   50.0190 O.2    32  THR32      -0.2866
      5  CB        96.7720   -5.5570   51.1000 C.3    32  THR32       0.1770
      6  OG1       97.0600   -6.9540   50.8880 O.3    32  THR32      -0.2211
      7  CG2       95.7010   -5.3370   52.1250 C.3    32  THR32       0.0375
      8  N         93.2330   -1.4260   48.1280 N.3    35  GLY35      -0.1210
      9  CA        91.9060   -1.2340   48.6490 C.3    35  GLY35       0.1956
     10  C         90.8260   -2.0710   47.9970 C.2    35  GLY35       0.2612
     11  O         89.6600   -1.8680   48.2760 O.2    35  GLY35      -0.2717
     12  N         91.2140   -3.0570   47.1950 N.am   36  HIS36      -0.1961
     13  CA        90.2820   -3.9920   46.6270 C.3    36  HIS36       0.1787
     14  C         90.2890   -5.2870   47.3610 C.2    36  HIS36       0.2620
     15  O         91.3260   -5.7540   47.8300 O.2    36  HIS36      -0.2715
     16  CB        90.6290   -4.2680   45.1760 C.3    36  HIS36       0.0785
     17  CG        90.6770   -3.0230   44.3370 C.ar   36  HIS36       0.0821
     18  ND1       91.7630   -2.6730   43.5650 N.ar   36  HIS36      -0.2267
     19  CD2       89.7660   -2.0410   44.1700 C.ar   36  HIS36       0.1154
     20  CE1       91.5350   -1.5070   42.9800 C.ar   36  HIS36       0.1986
     21  NE2       90.3280   -1.1050   43.3310 N.ar   36  HIS36      -0.2212
     22  N         89.1510   -5.9570   47.3220 N.am   37  GLU37      -0.1963
     23  CA        89.0460   -7.2770   47.8800 C.3    37  GLU37       0.1733
     24  C         90.0350   -8.2260   47.1310 C.2    37  GLU37       0.2616
     25  O         90.1610   -8.1600   45.9070 O.2    37  GLU37      -0.2715
     26  CB        87.5400   -7.6710   47.7470 C.3    37  GLU37       0.0429
     27  CG        87.1140   -8.6480   48.7180 C.3    37  GLU37       0.1163
     28  CD        85.6020   -8.7570   48.9100 C.2    37  GLU37       0.3649
     29  OE1       84.6940   -8.1600   48.2020 O.co2  37  GLU37      -0.2457
     30  OE2       85.3580   -9.4680   49.8650 O.co2  37  GLU37      -0.2457
     31  N         90.7710   -9.0620   47.8750 N.am   38  LEU38      -0.1977
     32  CA        91.8000   -9.9280   47.3170 C.3    38  LEU38       0.1596
     33  C         91.1680  -11.1630   46.7630 C.2    38  LEU38       0.2287
     34  O         90.2910  -11.7690   47.4040 O.2    38  LEU38      -0.2864
     35  CB        92.8130  -10.3750   48.3980 C.3    38  LEU38       0.0297
     36  CG        93.6820   -9.3080   49.0930 C.3    38  LEU38       0.0022
     37  CD1       94.8170   -9.9140   49.9140 C.3    38  LEU38       0.0001
     38  CD2       94.2830   -8.3520   48.0490 C.3    38  LEU38       0.0001
     39  N         92.0660   -2.5780   55.7730 N.3   106  TYR106     -0.1227
     40  CA        91.6350   -2.9390   54.4620 C.3   106  TYR106      0.1736
     41  C         90.8760   -4.2720   54.4400 C.2   106  TYR106      0.2595
     42  O         89.7590   -4.3450   53.9600 O.2   106  TYR106     -0.2718
     43  CB        92.8250   -3.0910   53.5450 C.3   106  TYR106      0.0548
     44  CG        93.5840   -1.8520   53.4020 C.ar  106  TYR106     -0.0200
     45  CD1       93.1020   -0.8100   52.5840 C.ar  106  TYR106     -0.0009
     46  CD2       94.7760   -1.6760   54.0950 C.ar  106  TYR106     -0.0009
     47  CE1       93.8280    0.3690   52.4640 C.ar  106  TYR106      0.0417
     48  CE2       95.4810   -0.5190   53.9880 C.ar  106  TYR106      0.0417
     49  CZ        95.0020    0.4860   53.1470 C.ar  106  TYR106      0.1957
     50  OH        95.7440    1.5840   53.0770 O.3   106  TYR106     -0.2866
     51  N         91.4730   -5.3320   54.9710 N.am  107  LEU107     -0.1980
     52  CA        90.9630   -6.6980   54.6170 C.3   107  LEU107      0.1596
     53  C         89.6000   -6.9740   55.2880 C.2   107  LEU107      0.2287
     54  O         88.6450   -7.4550   54.6800 O.2   107  LEU107     -0.2864
     55  CB        92.0380   -7.7060   55.0130 C.3   107  LEU107      0.0297
     56  CG        93.3810   -7.5550   54.2320 C.3   107  LEU107      0.0022
     57  CD1       94.5170   -8.2750   54.9530 C.3   107  LEU107      0.0001
     58  CD2       93.3360   -8.0620   52.8460 C.3   107  LEU107      0.0001
     59  N         86.6830   -4.3890   54.1060 N.3   110  ASN110     -0.1225
     60  CA        86.2880   -4.5670   52.7080 C.3   110  ASN110      0.1785
     61  C         85.7550   -5.9370   52.3650 C.2   110  ASN110      0.2597
     62  O         85.3470   -6.1370   51.2300 O.2   110  ASN110     -0.2718
     63  CB        87.4470   -4.2810   51.7500 C.3   110  ASN110      0.1169
     64  CG        87.9360   -2.8280   51.8600 C.2   110  ASN110      0.2627
     65  OD1       87.2390   -1.9830   52.4360 O.2   110  ASN110     -0.2716
     66  ND2       89.1320   -2.5500   51.3680 N.am  110  ASN110     -0.0877
     67  N         85.7740   -6.8950   53.3080 N.am  111  ALA111     -0.1979
     68  CA        85.3780   -8.2580   52.9840 C.3   111  ALA111      0.1597
     69  C         83.8220   -8.2780   52.8740 C.2   111  ALA111      0.2287
     70  O         83.0600   -7.8760   53.7450 O.2   111  ALA111     -0.2864
     71  CB        85.8780   -9.2630   54.0350 C.3   111  ALA111      0.0319
     72  N         85.4940  -14.9670   53.5010 N.3   116  SER116     -0.1217
     73  CA        86.6460  -14.0080   53.5850 C.3   116  SER116      0.1889
     74  C         86.6970  -13.3700   54.9340 C.2   116  SER116      0.2288
     75  O         87.7400  -13.1730   55.5370 O.2   116  SER116     -0.2866
     76  CB        86.3880  -12.8310   52.5900 C.3   116  SER116      0.2089
     77  OG        86.4890  -13.3150   51.3260 O.3   116  SER116     -0.2183
     78  N         89.9180  -13.6610   57.5000 N.3   120  TYR120     -0.1241
     79  CA        90.7150  -12.5260   58.0090 C.3   120  TYR120      0.1605
     80  C         90.6140  -12.3460   59.4900 C.2   120  TYR120      0.2264
     81  O         91.6080  -11.9940   60.1200 O.2   120  TYR120     -0.2867
     82  CB        90.3150  -11.2500   57.3060 C.3   120  TYR120      0.0534
     83  CG        90.6680  -11.2570   55.8540 C.ar  120  TYR120     -0.0201
     84  CD1       91.9310  -11.5850   55.4460 C.ar  120  TYR120     -0.0009
     85  CD2       89.7360  -10.9420   54.8830 C.ar  120  TYR120     -0.0009
     86  CE1       92.3080  -11.5590   54.1090 C.ar  120  TYR120      0.0417
     87  CE2       90.0880  -10.9780   53.5160 C.ar  120  TYR120      0.0417
     88  CZ        91.3680  -11.2470   53.1490 C.ar  120  TYR120      0.1957
     89  OH        91.7430  -11.2560   51.8230 O.3   120  TYR120     -0.2866
@<TRIPOS>BOND
     1    20    21   ar
     2    20    18   ar
     3    21    19   ar
     4    18    17   ar
     5    19    17   ar
     6    17    16    1
     7    16    13    1
     8    25    24    2
     9    13    12    1
    10    13    14    1
    11    33    32    1
    12    33    34    2
    13    24    31   am
    14    24    23    1
    15    12    10   am
    16    32    31    1
    17    32    35    1
    18    22    14   am
    19    22    23    1
    20    14    15    2
    21    26    23    1
    22    26    27    1
    23    10    11    2
    24    10     9    1
    25    38    36    1
    26     8     9    1
    27    29    28   ar
    28    35    36    1
    29    27    28    1
    30     1     2    1
    31    28    30   ar
    32    36    37    1
    33     2     3    1
    34     2     5    1
    35     3     4    2
    36     6     5    1
    37     5     7    1
    38    62    61    2
    39    77    76    1
    40    66    64   am
    41    63    64    1
    42    63    60    1
    43    89    88    1
    44    64    65    2
    45    61    60    1
    46    61    67   am
    47    47    45   ar
    48    47    49   ar
    49    45    44   ar
    50    76    73    1
    51    60    59    1
    52    58    56    1
    53    69    68    1
    54    69    70    2
    55    68    67    1
    56    68    71    1
    57    50    49    1
    58    49    48   ar
    59    88    87   ar
    60    88    86   ar
    61    44    43    1
    62    44    46   ar
    63    72    73    1
    64    87    85   ar
    65    43    40    1
    66    73    74    1
    67    42    41    2
    68    48    46   ar
    69    86    84   ar
    70    56    57    1
    71    56    55    1
    72    41    40    1
    73    41    51   am
    74    40    39    1
    75    52    51    1
    76    52    55    1
    77    52    53    1
    78    54    53    2
    79    85    83   ar
    80    74    75    2
    81    84    83   ar
    82    83    82    1
    83    82    79    1
    84    78    79    1
    85    79    80    1
    86    80    81    2
