@<TRIPOS>MOLECULE
tmp/5wfzA00.pdb
 190 184 0 0 0
SMALL
GASTEIGER

@<TRIPOS>ATOM
      1  N        133.3110  108.1300  406.2370 N.3    23  ALA23      -0.1245
      2  CA       133.3360  107.1350  407.3040 C.3    23  ALA23       0.1562
      3  C        132.5470  105.8880  406.9270 C.2    23  ALA23       0.2260
      4  O        132.9520  104.7720  407.2750 O.2    23  ALA23      -0.2867
      5  CB       132.7970  107.7370  408.6000 C.3    23  ALA23       0.0290
      6  N        134.2870  101.7750  406.1370 N.3    27  TYR27      -0.1241
      7  CA       133.8940  100.5020  406.7270 C.3    27  TYR27       0.1605
      8  C        133.0110   99.6790  405.7940 C.2    27  TYR27       0.2264
      9  O        132.2720   98.8040  406.2580 O.2    27  TYR27      -0.2867
     10  CB       133.1950  100.7290  408.0680 C.3    27  TYR27       0.0534
     11  CG       134.1150  101.2400  409.1600 C.ar   27  TYR27      -0.0201
     12  CD1      134.5380  100.4050  410.1890 C.ar   27  TYR27      -0.0009
     13  CD2      134.5560  102.5580  409.1660 C.ar   27  TYR27      -0.0009
     14  CE1      135.3800  100.8680  411.1860 C.ar   27  TYR27       0.0417
     15  CE2      135.3960  103.0290  410.1590 C.ar   27  TYR27       0.0417
     16  CZ       135.8040  102.1820  411.1660 C.ar   27  TYR27       0.1957
     17  OH       136.6390  102.6520  412.1540 O.3    27  TYR27      -0.2866
     18  N        121.4610  104.1700  408.9160 N.3    37  LYS37      -0.1245
     19  CA       122.8170  104.3110  409.4330 C.3    37  LYS37       0.1561
     20  C        123.4590  105.6110  408.9620 C.2    37  LYS37       0.2260
     21  O        124.2180  106.2360  409.7120 O.2    37  LYS37      -0.2867
     22  CB       123.6600  103.1070  409.0110 C.3    37  LYS37       0.0271
     23  CG       125.0610  103.0810  409.5900 C.3    37  LYS37       0.0035
     24  CD       125.3870  101.7190  410.1840 C.3    37  LYS37       0.0206
     25  CE       126.8320  101.6620  410.6500 C.3    37  LYS37       0.1093
     26  NZ       127.0530  100.6270  411.6980 N.3    37  LYS37      -0.1314
     27  N        122.1350  108.2840  411.1610 N.3    40  ALA40      -0.1231
     28  CA       122.6460  108.1570  412.5230 C.3    40  ALA40       0.1694
     29  C        124.0670  108.6950  412.6370 C.2    40  ALA40       0.2591
     30  O        124.4110  109.3520  413.6280 O.2    40  ALA40      -0.2718
     31  CB       122.5900  106.6960  412.9690 C.3    40  ALA40       0.0304
     32  N        124.9040  108.4320  411.6300 N.am   41  ILE41      -0.1980
     33  CA       126.2900  108.8850  411.6800 C.3    41  ILE41       0.1595
     34  C        126.3630  110.4000  411.5420 C.2    41  ILE41       0.2287
     35  O        127.1450  111.0630  412.2360 O.2    41  ILE41      -0.2864
     36  CB       127.1180  108.1630  410.6010 C.3    41  ILE41       0.0276
     37  CG1      127.3600  106.7100  411.0200 C.3    41  ILE41       0.0022
     38  CG2      128.4370  108.8820  410.3520 C.3    41  ILE41       0.0022
     39  CD1      127.6350  105.7780  409.8640 C.3    41  ILE41       0.0001
     40  N        125.2900  111.7870  414.9080 N.3    44  HIS44      -0.1226
     41  CA       126.3560  111.6280  415.8890 C.3    44  HIS44       0.1752
     42  C        127.5060  112.5880  415.6240 C.2    44  HIS44       0.2595
     43  O        128.1030  113.1140  416.5710 O.2    44  HIS44      -0.2718
     44  CB       126.8500  110.1840  415.8780 C.3    44  HIS44       0.0759
     45  CG       128.0050  109.9250  416.7960 C.ar   44  HIS44       0.0818
     46  ND1      129.3150  109.9300  416.3640 N.ar   44  HIS44      -0.2268
     47  CD2      128.0460  109.6350  418.1180 C.ar   44  HIS44       0.1154
     48  CE1      130.1130  109.6620  417.3840 C.ar   44  HIS44       0.1986
     49  NE2      129.3670  109.4790  418.4590 N.ar   44  HIS44      -0.2212
     50  N        127.8220  112.8340  414.3510 N.am   45  LEU45      -0.1980
     51  CA       128.8940  113.7650  414.0210 C.3    45  LEU45       0.1596
     52  C        128.5420  115.1840  414.4500 C.2    45  LEU45       0.2287
     53  O        129.3760  115.8880  415.0320 O.2    45  LEU45      -0.2864
     54  CB       129.1900  113.7090  412.5220 C.3    45  LEU45       0.0297
     55  CG       130.4800  112.9850  412.1360 C.3    45  LEU45       0.0022
     56  CD1      130.5890  112.8410  410.6250 C.3    45  LEU45       0.0001
     57  CD2      131.6930  113.7100  412.6980 C.3    45  LEU45       0.0001
     58  N        136.7120  112.1480  416.4150 N.3    64  GLU64      -0.1245
     59  CA       135.7360  111.7100  415.4280 C.3    64  GLU64       0.1567
     60  C        135.8190  112.5820  414.1790 C.2    64  GLU64       0.2260
     61  O        136.1180  113.7770  414.2480 O.2    64  GLU64      -0.2867
     62  CB       134.3280  111.7630  416.0260 C.3    64  GLU64       0.0388
     63  CG       133.2260  111.2640  415.1090 C.3    64  GLU64       0.1160
     64  CD       133.4250  109.8190  414.7010 C.2    64  GLU64       0.3649
     65  OE1      133.1160  108.9220  415.5140 O.co2  64  GLU64      -0.2457
     66  OE2      133.9000  109.5830  413.5680 O.co2  64  GLU64      -0.2457
     67  N        144.0340  107.6150  415.3180 N.3    72  TRP72      -0.1241
     68  CA       144.9220  106.9210  416.2450 C.3    72  TRP72       0.1605
     69  C        146.2210  107.6870  416.4550 C.2    72  TRP72       0.2264
     70  O        146.8030  107.6280  417.5450 O.2    72  TRP72      -0.2867
     71  CB       145.2140  105.5070  415.7410 C.3    72  TRP72       0.0550
     72  CG       144.1540  104.5190  416.1060 C.ar   72  TRP72       0.0003
     73  CD1      143.3580  103.8170  415.2500 C.ar   72  TRP72       0.0946
     74  CD2      143.7670  104.1220  417.4290 C.ar   72  TRP72       0.0152
     75  NE1      142.5010  103.0060  415.9560 N.ar   72  TRP72      -0.2442
     76  CE2      142.7330  103.1750  417.2950 C.ar   72  TRP72       0.0810
     77  CE3      144.1970  104.4750  418.7130 C.ar   72  TRP72       0.0012
     78  CZ2      142.1200  102.5780  418.3950 C.ar   72  TRP72       0.0191
     79  CZ3      143.5880  103.8800  419.8040 C.ar   72  TRP72       0.0001
     80  CH2      142.5610  102.9420  419.6370 C.ar   72  TRP72       0.0015
     81  N        139.3660  101.2520  421.8640 N.3    89  PHE89      -0.1227
     82  CA       138.6400  101.7320  420.7000 C.3    89  PHE89       0.1736
     83  C        138.7100  103.2520  420.6400 C.2    89  PHE89       0.2595
     84  O        138.8650  103.9230  421.6650 O.2    89  PHE89      -0.2718
     85  CB       137.1820  101.2640  420.7250 C.3    89  PHE89       0.0547
     86  CG       137.0170   99.8040  420.4280 C.ar   89  PHE89      -0.0202
     87  CD1      136.9720   98.8750  421.4550 C.ar   89  PHE89      -0.0042
     88  CD2      136.9250   99.3550  419.1200 C.ar   89  PHE89      -0.0042
     89  CE1      136.8290   97.5270  421.1830 C.ar   89  PHE89      -0.0003
     90  CE2      136.7820   98.0090  418.8400 C.ar   89  PHE89      -0.0003
     91  CZ       136.7340   97.0940  419.8730 C.ar   89  PHE89      -0.0000
     92  N        138.5970  103.7860  419.4310 N.am   90  LEU90      -0.1966
     93  CA       138.7640  105.2210  419.2290 C.3    90  LEU90       0.1713
     94  C        137.6410  105.9910  419.9150 C.2    90  LEU90       0.2458
     95  O        136.4650  105.6710  419.7130 O.2    90  LEU90      -0.2730
     96  CB       138.7870  105.5560  417.7380 C.3    90  LEU90       0.0310
     97  CG       140.1110  105.3130  417.0200 C.3    90  LEU90       0.0022
     98  CD1      139.8990  105.1070  415.5240 C.3    90  LEU90       0.0001
     99  CD2      141.0590  106.4680  417.2920 C.3    90  LEU90       0.0001
    100  N        137.9560  107.0050  420.7210 N.am   91  PRO91      -0.2716
    101  CA       136.9000  107.8540  421.2840 C.3    91  PRO91       0.1536
    102  C        136.4960  108.9470  420.3070 C.2    91  PRO91       0.2598
    103  O        136.9640  108.9670  419.1620 O.2    91  PRO91      -0.2715
    104  CB       137.5570  108.4250  422.5450 C.3    91  PRO91       0.0310
    105  CG       138.9990  108.5100  422.1770 C.3    91  PRO91       0.0237
    106  CD       139.2910  107.3700  421.2270 C.3    91  PRO91       0.0939
    107  N        135.6420  109.8690  420.7480 N.am   92  ASP92      -0.1972
    108  CA       135.1780  110.9650  419.9030 C.3    92  ASP92       0.1709
    109  C        135.8930  112.2790  420.1790 C.2    92  ASP92       0.2293
    110  O        136.1090  113.0670  419.2530 O.2    92  ASP92      -0.2864
    111  CB       133.6730  111.1750  420.0820 C.3    92  ASP92       0.1436
    112  CG       132.8580  109.9950  419.6050 C.2    92  ASP92       0.3671
    113  OD1      133.1090  109.5050  418.4840 O.co2  92  ASP92      -0.2456
    114  OD2      131.9600  109.5640  420.3590 O.co2  92  ASP92      -0.2456
    115  N        133.6080  109.2230  424.6720 N.3   103  ASP103     -0.1225
    116  CA       132.8440  108.5860  423.6050 C.3   103  ASP103      0.1805
    117  C        131.3980  109.0400  423.7610 C.2   103  ASP103      0.2598
    118  O        130.7360  108.6970  424.7480 O.2   103  ASP103     -0.2718
    119  CB       132.9540  107.0630  423.6590 C.3   103  ASP103      0.1424
    120  CG       132.5050  106.3980  422.3630 C.2   103  ASP103      0.3668
    121  OD1      131.7440  107.0240  421.5920 O.co2 103  ASP103     -0.2456
    122  OD2      132.9160  105.2450  422.1120 O.co2 103  ASP103     -0.2456
    123  N        130.9200  109.8140  422.7960 N.am  104  ILE104     -0.1966
    124  CA       129.5540  110.3200  422.8040 C.3   104  ILE104      0.1727
    125  C        128.6560  109.3060  422.1120 C.2   104  ILE104      0.2617
    126  O        128.9970  108.7870  421.0420 O.2   104  ILE104     -0.2715
    127  CB       129.4740  111.6930  422.1180 C.3   104  ILE104      0.0290
    128  CG1      130.0970  112.7640  423.0130 C.3   104  ILE104      0.0022
    129  CG2      128.0330  112.0490  421.7770 C.3   104  ILE104      0.0023
    130  CD1      130.5440  113.9790  422.2580 C.3   104  ILE104      0.0001
    131  N        127.5200  109.0130  422.7270 N.am  105  GLY105     -0.1940
    132  CA       126.5270  108.1290  422.1400 C.3   105  GLY105      0.2014
    133  C        125.2250  108.8720  421.8980 C.2   105  GLY105      0.2638
    134  O        124.8560  109.7570  422.6730 O.2   105  GLY105     -0.2714
    135  N        124.5550  108.5220  420.8050 N.am  106  VAL106     -0.1977
    136  CA       123.2180  109.0180  420.4970 C.3   106  VAL106      0.1596
    137  C        122.3570  107.8030  420.1880 C.2   106  VAL106      0.2287
    138  O        122.6830  107.0230  419.2850 O.2   106  VAL106     -0.2864
    139  CB       123.2150  110.0080  419.3190 C.3   106  VAL106      0.0276
    140  CG1      121.8060  110.5240  419.0650 C.3   106  VAL106      0.0022
    141  CG2      124.1630  111.1650  419.5930 C.3   106  VAL106      0.0022
    142  N        118.2260  105.9280  420.0830 N.3   108  ARG108     -0.1245
    143  CA       116.7800  106.0560  419.9870 C.3   108  ARG108      0.1563
    144  C        116.0570  105.2120  421.0260 C.2   108  ARG108      0.2260
    145  O        114.8270  105.1330  421.0000 O.2   108  ARG108     -0.2867
    146  CB       116.3060  105.6770  418.5830 C.3   108  ARG108      0.0307
    147  CG       116.9320  106.5060  417.4720 C.3   108  ARG108      0.0489
    148  CD       117.1660  105.6780  416.2160 C.3   108  ARG108      0.2205
    149  NE       118.5220  105.1400  416.1520 N.pl3 108  ARG108     -0.0865
    150  CZ       119.0440  104.5520  415.0790 C.cat 108  ARG108      0.5346
    151  NH1      118.3250  104.4260  413.9720 N.pl3 108  ARG108      0.1354
    152  NH2      120.2870  104.0910  415.1120 N.pl3 108  ARG108      0.1354
    153  N        121.8100  101.7270  426.3020 N.3   114  TYR114     -0.1241
    154  CA       122.9160  102.0250  425.3960 C.3   114  TYR114      0.1605
    155  C        124.2180  102.2460  426.1600 C.2   114  TYR114      0.2264
    156  O        125.2900  101.8440  425.6920 O.2   114  TYR114     -0.2867
    157  CB       122.5850  103.2440  424.5340 C.3   114  TYR114      0.0534
    158  CG       123.5390  103.4520  423.3760 C.ar  114  TYR114     -0.0201
    159  CD1      123.8150  102.4220  422.4850 C.ar  114  TYR114     -0.0009
    160  CD2      124.1580  104.6780  423.1710 C.ar  114  TYR114     -0.0009
    161  CE1      124.6840  102.6070  421.4240 C.ar  114  TYR114      0.0417
    162  CE2      125.0290  104.8730  422.1120 C.ar  114  TYR114      0.0417
    163  CZ       125.2870  103.8340  421.2430 C.ar  114  TYR114      0.1957
    164  OH       126.1510  104.0220  420.1890 O.3   114  TYR114     -0.2866
    165  N        127.6270  100.3770  425.4530 N.3   118  LYS118     -0.1245
    166  CA       128.8340  101.0800  425.0310 C.3   118  LYS118      0.1561
    167  C        129.9980  100.7930  425.9710 C.2   118  LYS118      0.2260
    168  O        131.1370  100.6190  425.5220 O.2   118  LYS118     -0.2867
    169  CB       128.5680  102.5840  424.9440 C.3   118  LYS118      0.0271
    170  CG       129.8160  103.4180  424.6990 C.3   118  LYS118      0.0035
    171  CD       129.4750  104.8620  424.3610 C.3   118  LYS118      0.0206
    172  CE       128.8870  104.9850  422.9640 C.3   118  LYS118      0.1093
    173  NZ       129.8080  104.4530  421.9240 N.3   118  LYS118     -0.1314
    174  N        131.4610   97.3870  425.0990 N.3   121  LYS121     -0.1231
    175  CA       132.1720   97.3420  423.8250 C.3   121  LYS121      0.1693
    176  C        133.4560   98.1620  423.8660 C.2   121  LYS121      0.2591
    177  O        134.4930   97.7150  423.3620 O.2   121  LYS121     -0.2718
    178  CB       131.2600   97.8300  422.6960 C.3   121  LYS121      0.0285
    179  CG       131.9880   98.2120  421.4090 C.3   121  LYS121      0.0035
    180  CD       132.6770   97.0130  420.7690 C.3   121  LYS121      0.0206
    181  CE       133.2110   97.3530  419.3850 C.3   121  LYS121      0.1093
    182  NZ       132.1470   97.3210  418.3440 N.3   121  LYS121     -0.1314
    183  N        133.4070   99.3590  424.4570 N.am  122  ILE122     -0.1980
    184  CA       134.5900  100.2160  424.5080 C.3   122  ILE122      0.1595
    185  C        135.7260   99.5160  425.2430 C.2   122  ILE122      0.2287
    186  O        136.8910   99.5920  424.8310 O.2   122  ILE122     -0.2864
    187  CB       134.2440  101.5700  425.1550 C.3   122  ILE122      0.0276
    188  CG1      135.3740  102.6040  424.9830 C.3   122  ILE122      0.0022
    189  CG2      133.8610  101.4140  426.6420 C.3   122  ILE122      0.0022
    190  CD1      135.3850  103.1530  423.5700 C.3   122  ILE122      0.0001
@<TRIPOS>BOND
     1     8     9    2
     2     8     7    1
     3     6     7    1
     4     1     2    1
     5     7    10    1
     6     3     4    2
     7     3     2    1
     8     2     5    1
     9    10    11    1
    10    18    19    1
    11    20    19    1
    12    20    21    2
    13    22    19    1
    14    22    23    1
    15    11    13   ar
    16    11    12   ar
    17    13    15   ar
    18    23    24    1
    19    39    37    1
    20    15    16   ar
    21    24    25    1
    22    12    14   ar
    23    38    36    1
    24    36    37    1
    25    36    33    1
    26    56    55    1
    27    25    26    1
    28    27    28    1
    29    16    14   ar
    30    16    17    1
    31    34    33    1
    32    34    35    2
    33    32    33    1
    34    32    29   am
    35    55    54    1
    36    55    57    1
    37    54    51    1
    38    28    29    1
    39    28    31    1
    40    29    30    2
    41    66    64   ar
    42   151   150    1
    43    51    50    1
    44    51    52    1
    45    60    61    2
    46    60    59    1
    47    50    42   am
    48    52    53    2
    49    64    63    1
    50    64    65   ar
    51    40    41    1
    52   150   152    1
    53   150   149    2
    54    63    62    1
    55    73    75   ar
    56    73    72   ar
    57    67    68    1
    58    59    62    1
    59    59    58    1
    60    98    97    1
    61    42    41    1
    62    42    43    2
    63    71    72    1
    64    71    68    1
    65    44    41    1
    66    44    45    1
    67    75    76   ar
    68    72    74   ar
    69   149   148    1
    70   148   147    1
    71    68    69    1
    72    46    45   ar
    73    46    48   ar
    74    69    70    2
    75    45    47   ar
    76    97    99    1
    77    97    96    1
    78    76    74   ar
    79    76    78   ar
    80    48    49   ar
    81    74    77   ar
    82   147   146    1
    83    96    93    1
    84    47    49   ar
    85   182   181    1
    86    78    80   ar
    87   113   112   ar
    88   146   143    1
    89    77    79   ar
    90    90    88   ar
    91    90    91   ar
    92   140   139    1
    93    88    86   ar
    94   103   102    2
    95    93    92    1
    96    93    94    1
    97   110   109    2
    98   138   137    2
    99   139   141    1
   100   139   136    1
   101   181   180    1
   102    92    83   am
   103   112   111    1
   104   112   114   ar
   105    80    79   ar
   106    95    94    2
   107    91    89   ar
   108   108   111    1
   109   108   109    1
   110   108   107    1
   111    94   100   am
   112   143   142    1
   113   143   144    1
   114   137   136    1
   115   164   163    1
   116   102   107   am
   117   102   101    1
   118    86    85    1
   119    86    87   ar
   120   136   135    1
   121    83    82    1
   122    83    84    2
   123    82    85    1
   124    82    81    1
   125   100   106    1
   126   100   101    1
   127   180   179    1
   128   135   133   am
   129   145   144    2
   130   126   125    2
   131    89    87   ar
   132   106   105    1
   133   163   161   ar
   134   163   162   ar
   135   101   104    1
   136   179   178    1
   137   161   159   ar
   138   121   120   ar
   139   129   127    1
   140   133   132    1
   141   133   134    2
   142   173   172    1
   143   125   131   am
   144   125   124    1
   145   122   120   ar
   146   162   160   ar
   147   127   124    1
   148   127   128    1
   149   132   131    1
   150   105   104    1
   151   130   128    1
   152   120   119    1
   153   159   158   ar
   154   178   175    1
   155   123   124    1
   156   123   117   am
   157   172   171    1
   158   160   158   ar
   159   177   176    2
   160   158   157    1
   161   190   188    1
   162   116   119    1
   163   116   117    1
   164   116   115    1
   165   117   118    2
   166   175   176    1
   167   175   174    1
   168   176   183   am
   169   171   170    1
   170   183   184    1
   171   184   187    1
   172   184   185    1
   173   157   154    1
   174   170   169    1
   175   186   185    2
   176   169   166    1
   177   188   187    1
   178   166   165    1
   179   166   167    1
   180   187   189    1
   181   154   155    1
   182   154   153    1
   183   168   167    2
   184   156   155    2
