@<TRIPOS>MOLECULE
tmp/5wg5A00.pdb
 180 169 0 0 0
SMALL
GASTEIGER

@<TRIPOS>ATOM
      1  N        -22.7640   27.5070    9.9640 N.3   164  ILE164     -0.1231
      2  CA       -23.3230   28.4130   10.9570 C.3   164  ILE164      0.1692
      3  C        -22.2930   28.8680   11.9750 C.2   164  ILE164      0.2593
      4  O        -22.6320   29.6400   12.8770 O.2   164  ILE164     -0.2718
      5  CB       -24.5340   27.7870   11.6780 C.3   164  ILE164      0.0266
      6  CG1      -24.0910   26.5630   12.4810 C.3   164  ILE164      0.0019
      7  CG2      -25.6250   27.4340   10.6810 C.3   164  ILE164      0.0020
      8  CD1      -25.1940   25.9390   13.2960 C.3   164  ILE164      0.0001
      9  N        -21.0480   28.4140   11.8640 N.am  165  GLY165     -0.1942
     10  CA       -20.0200   28.8200   12.7990 C.3   165  GLY165      0.2014
     11  C        -18.6120   28.5110   12.3340 C.2   165  GLY165      0.2639
     12  O        -18.3360   27.4110   11.8470 O.2   165  GLY165     -0.2714
     13  N        -17.7160   29.4850   12.4740 N.am  166  ARG166     -0.1963
     14  CA       -16.2990   29.3100   12.1950 C.3   166  ARG166      0.1729
     15  C        -15.5000   29.7230   13.4210 C.2   166  ARG166      0.2617
     16  O        -15.9020   30.6190   14.1690 O.2   166  ARG166     -0.2715
     17  CB       -15.8420   30.1420   10.9850 C.3   166  ARG166      0.0348
     18  CG       -16.5540   29.8330    9.6780 C.3   166  ARG166      0.0492
     19  CD       -16.0400   30.7360    8.5650 C.3   166  ARG166      0.2205
     20  NE       -16.7260   30.5070    7.2970 N.pl3 166  ARG166     -0.0865
     21  CZ       -17.8570   31.1080    6.9420 C.cat 166  ARG166      0.5346
     22  NH1      -18.4360   31.9740    7.7630 N.pl3 166  ARG166      0.1354
     23  NH2      -18.4100   30.8410    5.7660 N.pl3 166  ARG166      0.1354
     24  N        -14.3720   29.0700   13.6210 N.am  167  GLY167     -0.1940
     25  CA       -13.4790   29.4260   14.7060 C.3   167  GLY167      0.2014
     26  C        -12.7710   28.2100   15.2600 C.2   167  GLY167      0.2639
     27  O        -13.1490   27.0640   15.0250 O.2   167  GLY167     -0.2714
     28  N        -11.7110   28.4730   16.0150 N.am  168  GLY168     -0.1939
     29  CA       -10.9750   27.3890   16.6430 C.3   168  GLY168      0.2014
     30  C        -10.2870   26.5240   15.6070 C.2   168  GLY168      0.2639
     31  O         -9.6580   27.0190   14.6640 O.2   168  GLY168     -0.2714
     32  N        -10.4130   25.2090   15.7760 N.am  169  PHE169     -0.1959
     33  CA        -9.7540   24.2390   14.9120 C.3   169  PHE169      0.1771
     34  C        -10.7170   23.6150   13.9070 C.2   169  PHE169      0.2620
     35  O        -10.5120   22.4770   13.4740 O.2   169  PHE169     -0.2715
     36  CB        -9.0850   23.1550   15.7570 C.3   169  PHE169      0.0574
     37  CG        -8.1890   23.6940   16.8400 C.ar  169  PHE169     -0.0200
     38  CD1       -7.4360   24.8390   16.6330 C.ar  169  PHE169     -0.0042
     39  CD2       -8.1070   23.0580   18.0680 C.ar  169  PHE169     -0.0042
     40  CE1       -6.6160   25.3380   17.6310 C.ar  169  PHE169     -0.0003
     41  CE2       -7.2880   23.5510   19.0690 C.ar  169  PHE169     -0.0003
     42  CZ        -6.5410   24.6920   18.8490 C.ar  169  PHE169     -0.0000
     43  N        -11.7670   24.3400   13.5290 N.am  170  GLY170     -0.1940
     44  CA       -12.7290   23.8210   12.5790 C.3   170  GLY170      0.2014
     45  C        -13.8940   24.7500   12.3180 C.2   170  GLY170      0.2639
     46  O        -13.7490   25.9750   12.3690 O.2   170  GLY170     -0.2714
     47  N        -15.0580   24.1730   12.0320 N.am  171  GLU171     -0.1963
     48  CA       -16.2570   24.9470   11.7500 C.3   171  GLU171      0.1733
     49  C        -17.4710   24.1140   12.1360 C.2   171  GLU171      0.2616
     50  O        -17.3670   22.9160   12.4080 O.2   171  GLU171     -0.2715
     51  CB       -16.3190   25.3760   10.2770 C.3   171  GLU171      0.0429
     52  CG       -16.3160   24.2300    9.2760 C.3   171  GLU171      0.1163
     53  CD       -14.9310   23.6630    9.0180 C.2   171  GLU171      0.3649
     54  OE1      -13.9360   24.3680    9.2900 O.co2 171  GLU171     -0.2457
     55  OE2      -14.8390   22.5100    8.5430 O.co2 171  GLU171     -0.2457
     56  N        -18.6300   24.7650   12.1650 N.am  172  VAL172     -0.1977
     57  CA       -19.8740   24.1390   12.5960 C.3   172  VAL172      0.1596
     58  C        -20.8970   24.2630   11.4750 C.2   172  VAL172      0.2287
     59  O        -21.0510   25.3360   10.8800 O.2   172  VAL172     -0.2864
     60  CB       -20.4040   24.7690   13.8970 C.3   172  VAL172      0.0276
     61  CG1      -21.7690   24.2040   14.2480 C.3   172  VAL172      0.0022
     62  CG2      -19.4240   24.5260   15.0310 C.3   172  VAL172      0.0022
     63  N        -26.5800   20.2590   15.0960 N.3   185  ALA185     -0.1245
     64  CA       -25.4360   21.0640   14.7000 C.3   185  ALA185      0.1562
     65  C        -24.2000   20.1790   14.7490 C.2   185  ALA185      0.2260
     66  O        -23.9400   19.5250   15.7650 O.2   185  ALA185     -0.2867
     67  CB       -25.2660   22.2780   15.6200 C.3   185  ALA185      0.0290
     68  N        -20.3480   20.0320   14.8410 N.3   187  LYS187     -0.1245
     69  CA       -19.0950   20.7390   15.1010 C.3   187  LYS187      0.1561
     70  C        -17.9640   19.8600   14.5850 C.2   187  LYS187      0.2260
     71  O        -17.5850   18.8750   15.2230 O.2   187  LYS187     -0.2867
     72  CB       -18.9410   21.0510   16.5850 C.3   187  LYS187      0.0271
     73  CG       -17.7060   21.8690   16.9330 C.3   187  LYS187      0.0035
     74  CD       -17.7220   22.2780   18.3970 C.3   187  LYS187      0.0206
     75  CE       -16.5570   23.1900   18.7390 C.3   187  LYS187      0.1093
     76  NZ       -16.6640   23.7150   20.1280 N.3   187  LYS187     -0.1314
     77  N        -14.1940   19.3280   13.5300 N.3   189  LEU189     -0.1245
     78  CA       -12.8420   19.8110   13.7740 C.3   189  LEU189      0.1561
     79  C        -11.8570   19.0410   12.9070 C.2   189  LEU189      0.2260
     80  O        -11.9220   17.8110   12.8290 O.2   189  LEU189     -0.2867
     81  CB       -12.4690   19.6600   15.2500 C.3   189  LEU189      0.0270
     82  CG       -13.4190   20.2830   16.2740 C.3   189  LEU189      0.0019
     83  CD1      -12.8780   20.1060   17.6850 C.3   189  LEU189      0.0001
     84  CD2      -13.6540   21.7520   15.9690 C.3   189  LEU189      0.0001
     85  N        -25.5300   23.9490   25.2160 N.3   222  VAL222     -0.1245
     86  CA       -25.4490   23.2190   23.9580 C.3   222  VAL222      0.1561
     87  C        -24.9870   21.8010   24.2600 C.2   222  VAL222      0.2260
     88  O        -23.7860   21.5390   24.3880 O.2   222  VAL222     -0.2867
     89  CB       -24.5100   23.9160   22.9580 C.3   222  VAL222      0.0252
     90  CG1      -24.4090   23.1080   21.6770 C.3   222  VAL222      0.0019
     91  CG2      -25.0130   25.3170   22.6620 C.3   222  VAL222      0.0019
     92  N        -24.4170   18.2860   18.1340 N.3   238  LEU238     -0.1231
     93  CA       -24.8410   19.1520   19.2220 C.3   238  LEU238      0.1693
     94  C        -26.2040   19.7610   18.9200 C.2   238  LEU238      0.2592
     95  O        -26.7370   19.6430   17.8140 O.2   238  LEU238     -0.2718
     96  CB       -23.8130   20.2650   19.4610 C.3   238  LEU238      0.0284
     97  CG       -22.3470   19.8360   19.5130 C.3   238  LEU238      0.0019
     98  CD1      -21.4460   21.0520   19.5940 C.3   238  LEU238      0.0001
     99  CD2      -22.1000   18.9100   20.6880 C.3   238  LEU238      0.0001
    100  N        -26.7610   20.4260   19.9310 N.am  239  ASP239     -0.1974
    101  CA       -28.0180   21.1410   19.7610 C.3   239  ASP239      0.1709
    102  C        -27.8430   22.2930   18.7790 C.2   239  ASP239      0.2293
    103  O        -26.8320   23.0000   18.8010 O.2   239  ASP239     -0.2864
    104  CB       -28.5140   21.6720   21.1070 C.3   239  ASP239      0.1436
    105  CG       -28.9090   20.5660   22.0650 C.2   239  ASP239      0.3671
    106  OD1      -29.2520   19.4600   21.5940 O.co2 239  ASP239     -0.2456
    107  OD2      -28.8850   20.8080   23.2900 O.co2 239  ASP239     -0.2456
    108  N        -28.0940   25.8140   17.1410 N.3   241  MET241     -0.1245
    109  CA       -28.1950   27.2180   17.5480 C.3   241  MET241      0.1570
    110  C        -27.8570   28.0650   16.3230 C.2   241  MET241      0.2261
    111  O        -26.6890   28.3780   16.0790 O.2   241  MET241     -0.2867
    112  CB       -27.2670   27.5260   18.7250 C.3   241  MET241      0.0387
    113  CG       -27.4970   26.6600   19.9580 C.3   241  MET241      0.0595
    114  SD       -29.0820   26.9620   20.7620 S.3   241  MET241     -0.1393
    115  CE       -28.8360   28.6140   21.4050 C.3   241  MET241      0.0692
    116  N        -26.5510   32.8720   16.0370 N.3   244  GLY244     -0.1210
    117  CA       -25.2990   33.5590   16.2650 C.3   244  GLY244      0.1956
    118  C        -24.9940   33.7490   17.7400 C.2   244  GLY244      0.2611
    119  O        -25.8260   33.5350   18.6220 O.2   244  GLY244     -0.2717
    120  N        -23.7600   34.1660   18.0070 N.am  245  ASP245     -0.1973
    121  CA       -23.3080   34.3790   19.3720 C.3   245  ASP245      0.1709
    122  C        -23.5630   35.8210   19.8080 C.2   245  ASP245      0.2293
    123  O        -23.8650   36.7010   18.9990 O.2   245  ASP245     -0.2864
    124  CB       -21.8250   34.0220   19.5120 C.3   245  ASP245      0.1436
    125  CG       -20.9420   34.7330   18.4960 C.2   245  ASP245      0.3671
    126  OD1      -21.1090   35.9530   18.2920 O.co2 245  ASP245     -0.2456
    127  OD2      -20.0680   34.0660   17.9010 O.co2 245  ASP245     -0.2456
    128  N        -18.7610   35.6110   23.3260 N.3   288  ALA288     -0.1231
    129  CA       -18.5010   34.8060   22.1390 C.3   288  ALA288      0.1694
    130  C        -19.0400   33.3890   22.2880 C.2   288  ALA288      0.2592
    131  O        -19.4580   32.7810   21.2970 O.2   288  ALA288     -0.2718
    132  CB       -17.0030   34.7780   21.8390 C.3   288  ALA288      0.0304
    133  N        -19.0520   32.8550   23.5090 N.am  289  ASN289     -0.1974
    134  CA       -19.4450   31.4750   23.7600 C.3   289  ASN289      0.1688
    135  C        -20.8930   31.3480   24.2210 C.2   289  ASN289      0.2292
    136  O        -21.2490   30.3480   24.8540 O.2   289  ASN289     -0.2864
    137  CB       -18.5070   30.8440   24.7870 C.3   289  ASN289      0.1181
    138  CG       -17.1090   30.6300   24.2450 C.2   289  ASN289      0.2629
    139  OD1      -16.9290   30.3180   23.0670 O.2   289  ASN289     -0.2716
    140  ND2      -16.1090   30.7970   25.1020 N.am  289  ASN289     -0.0877
    141  N        -24.5920   31.4170   22.5170 N.3   291  LEU291     -0.1245
    142  CA       -25.2930   31.3950   21.2440 C.3   291  LEU291      0.1561
    143  C        -26.7700   31.7150   21.4310 C.2   291  LEU291      0.2260
    144  O        -27.3280   31.5800   22.5210 O.2   291  LEU291     -0.2867
    145  CB       -25.1450   30.0280   20.5770 C.3   291  LEU291      0.0270
    146  CG       -23.7250   29.4740   20.5290 C.3   291  LEU291      0.0019
    147  CD1      -23.7650   28.0260   20.1080 C.3   291  LEU291      0.0001
    148  CD2      -22.8610   30.2910   19.5830 C.3   291  LEU291      0.0001
    149  N        -22.0090   27.2270   25.2070 N.3   301  SER301     -0.1202
    150  CA       -21.4150   26.3460   24.2100 C.3   301  SER301      0.2020
    151  C        -19.9030   26.2920   24.3800 C.2   301  SER301      0.2618
    152  O        -19.3130   27.0470   25.1550 O.2   301  SER301     -0.2717
    153  CB       -21.7530   26.8020   22.7860 C.3   301  SER301      0.2103
    154  OG       -21.0850   28.0100   22.4680 O.3   301  SER301     -0.2182
    155  N        -19.2860   25.3820   23.6240 N.am  302  ASP302     -0.1973
    156  CA       -17.8360   25.2190   23.5840 C.3   302  ASP302      0.1709
    157  C        -17.2650   24.9530   24.9730 C.2   302  ASP302      0.2293
    158  O        -16.7920   25.8740   25.6460 O.2   302  ASP302     -0.2864
    159  CB       -17.1780   26.4510   22.9570 C.3   302  ASP302      0.1436
    160  CG       -15.7210   26.2200   22.6060 C.2   302  ASP302      0.3671
    161  OD1      -15.3220   25.0460   22.4520 O.co2 302  ASP302     -0.2456
    162  OD2      -14.9740   27.2130   22.4760 O.co2 302  ASP302     -0.2456
    163  N        -21.5160   33.9650   13.6300 N.3   441  ALA441     -0.1231
    164  CA       -20.8310   33.2500   14.7030 C.3   441  ALA441      0.1694
    165  C        -19.3610   33.0340   14.3580 C.2   441  ALA441      0.2592
    166  O        -18.7960   31.9690   14.6290 O.2   441  ALA441     -0.2718
    167  CB       -21.5110   31.9130   15.0050 C.3   441  ALA441      0.0304
    168  N        -18.7240   34.0410   13.7660 N.am  442  ASP442     -0.1960
    169  CA       -17.2940   33.9620   13.5090 C.3   442  ASP442      0.1840
    170  C        -16.5080   34.3540   14.7610 C.2   442  ASP442      0.2621
    171  O        -17.0230   35.0150   15.6670 O.2   442  ASP442     -0.2715
    172  CB       -16.9020   34.8570   12.3310 C.3   442  ASP442      0.1450
    173  CG       -17.4530   34.3580   11.0040 C.2   442  ASP442      0.3671
    174  OD1      -18.5110   33.6920   11.0000 O.co2 442  ASP442     -0.2456
    175  OD2      -16.8260   34.6340    9.9590 O.co2 442  ASP442     -0.2456
    176  N        -15.2470   33.9240   14.8110 N.am  443  ALA443     -0.1977
    177  CA       -14.3840   34.1740   15.9520 C.3   443  ALA443      0.1597
    178  C        -13.3460   35.2470   15.6060 C.2   443  ALA443      0.2287
    179  O        -13.5680   36.0840   14.7190 O.2   443  ALA443     -0.2864
    180  CB       -13.7460   32.8610   16.4090 C.3   443  ALA443      0.0319
@<TRIPOS>BOND
     1    23    21    1
     2    21    20    2
     3    21    22    1
     4    20    19    1
     5    55    53   ar
     6    19    18    1
     7    53    52    1
     8    53    54   ar
     9    52    51    1
    10    18    17    1
    11   175   173   ar
    12     1     2    1
    13    51    48    1
    14     7     5    1
    15    59    58    2
    16     2     5    1
    17     2     3    1
    18    17    14    1
    19   174   173   ar
    20   173   172    1
    21    58    57    1
    22     5     6    1
    23    48    47    1
    24    48    49    1
    25    12    11    2
    26     9     3   am
    27     9    10    1
    28     3     4    2
    29    47    45   am
    30    49    56   am
    31    49    50    2
    32    56    57    1
    33    14    13    1
    34    14    15    1
    35    45    46    2
    36    45    44    1
    37   172   169    1
    38    11    13   am
    39    11    10    1
    40     6     8    1
    41    44    43    1
    42    57    60    1
    43    80    79    2
    44    79    78    1
    45    15    24   am
    46    15    16    2
    47    35    34    2
    48   169   168    1
    49   169   170    1
    50    43    34   am
    51    77    78    1
    52    24    25    1
    53   163   164    1
    54   168   165   am
    55    78    81    1
    56    60    61    1
    57    60    62    1
    58    34    33    1
    59   165   166    2
    60   165   164    1
    61    70    69    1
    62    70    71    2
    63    31    30    2
    64    64    65    1
    65    64    63    1
    66    64    67    1
    67   164   167    1
    68    25    26    1
    69   179   178    2
    70    65    66    2
    71   170   176   am
    72   170   171    2
    73   176   177    1
    74    68    69    1
    75    33    36    1
    76    33    32    1
    77    27    26    2
    78    69    72    1
    79    81    82    1
    80    26    28   am
    81   178   177    1
    82    30    32   am
    83    30    29    1
    84    36    37    1
    85   177   180    1
    86    84    82    1
    87    28    29    1
    88   116   117    1
    89   111   110    2
    90   117   118    1
    91    82    83    1
    92   110   109    1
    93    72    73    1
    94    38    37   ar
    95    38    40   ar
    96    37    39   ar
    97    73    74    1
    98   108   109    1
    99   109   112    1
   100    40    42   ar
   101   118   120   am
   102   118   119    2
   103    95    94    2
   104   127   125   ar
   105   120   121    1
   106    39    41   ar
   107    92    93    1
   108   126   125   ar
   109    74    75    1
   110   125   124    1
   111   112   113    1
   112    75    76    1
   113   102   103    2
   114   102   101    1
   115    42    41   ar
   116    94    93    1
   117    94   100   am
   118   123   122    2
   119    93    96    1
   120   121   124    1
   121   121   122    1
   122    96    97    1
   123    97    98    1
   124    97    99    1
   125   148   146    1
   126   101   100    1
   127   101   104    1
   128   113   114    1
   129   147   146    1
   130   146   145    1
   131   145   142    1
   132   114   115    1
   133   104   105    1
   134   142   143    1
   135   142   141    1
   136   131   130    2
   137   143   144    2
   138   106   105   ar
   139    90    89    1
   140   132   129    1
   141   105   107   ar
   142   129   130    1
   143   129   128    1
   144   130   133   am
   145   161   160   ar
   146   154   153    1
   147   162   160   ar
   148   160   159    1
   149    91    89    1
   150   153   150    1
   151   159   156    1
   152    89    86    1
   153   139   138    2
   154   133   134    1
   155   156   155    1
   156   156   157    1
   157   155   151   am
   158   134   135    1
   159   134   137    1
   160    86    87    1
   161    86    85    1
   162   150   151    1
   163   150   149    1
   164   135   136    2
   165   138   137    1
   166   138   140   am
   167    87    88    2
   168   151   152    2
   169   157   158    2
