@<TRIPOS>MOLECULE
tmp/5wg6A00.pdb
 148 147 0 0 0
SMALL
GASTEIGER

@<TRIPOS>ATOM
      1  N        -84.9760   -3.2000  -55.5110 N.3    73  ILE73      -0.1231
      2  CA       -83.7070   -2.8730  -56.1550 C.3    73  ILE73       0.1692
      3  C        -82.6050   -2.7240  -55.1170 C.2    73  ILE73       0.2592
      4  O        -82.8170   -2.1910  -54.0210 O.2    73  ILE73      -0.2718
      5  CB       -83.8370   -1.6070  -57.0180 C.3    73  ILE73       0.0266
      6  CG1      -85.1320   -1.6650  -57.8240 C.3    73  ILE73       0.0019
      7  CG2      -82.6410   -1.4690  -57.9390 C.3    73  ILE73       0.0020
      8  CD1      -85.3790   -0.4600  -58.6860 C.3    73  ILE73       0.0001
      9  N        -81.4130   -3.1920  -55.4680 N.am   74  MET74      -0.1965
     10  CA       -80.2490   -3.1280  -54.6010 C.3    74  MET74       0.1736
     11  C        -79.0170   -3.0870  -55.4870 C.2    74  MET74       0.2616
     12  O        -78.9480   -3.8160  -56.4770 O.2    74  MET74      -0.2715
     13  CB       -80.2020   -4.3440  -53.6730 C.3    74  MET74       0.0427
     14  CG       -78.8490   -4.6090  -53.0500 C.3    74  MET74       0.0599
     15  SD       -78.7720   -4.1610  -51.3170 S.3    74  MET74      -0.1393
     16  CE       -79.8820   -5.3800  -50.6160 C.3    74  MET74       0.0692
     17  N        -78.0570   -2.2340  -55.1520 N.am   75  TYR75      -0.1974
     18  CA       -76.8580   -2.1460  -55.9690 C.3    75  TYR75       0.1639
     19  C        -75.6650   -2.7150  -55.2100 C.2    75  TYR75       0.2290
     20  O        -75.7090   -2.9080  -53.9920 O.2    75  TYR75      -0.2864
     21  CB       -76.6070   -0.7010  -56.4090 C.3    75  TYR75       0.0560
     22  CG       -77.2480   -0.4030  -57.7520 C.ar   75  TYR75      -0.0198
     23  CD1      -78.6310   -0.3480  -57.8730 C.ar   75  TYR75      -0.0009
     24  CD2      -76.4850   -0.2100  -58.8980 C.ar   75  TYR75      -0.0009
     25  CE1      -79.2360   -0.0920  -59.0840 C.ar   75  TYR75       0.0417
     26  CE2      -77.0880    0.0480  -60.1180 C.ar   75  TYR75       0.0417
     27  CZ       -78.4640    0.1040  -60.2010 C.ar   75  TYR75       0.1957
     28  OH       -79.0780    0.3580  -61.4030 O.3    75  TYR75      -0.2866
     29  N        -89.1640   -0.6240  -51.1180 N.3   284  GLY284     -0.1210
     30  CA       -87.7500   -0.9420  -51.1860 C.3   284  GLY284      0.1956
     31  C        -87.2640   -1.7960  -50.0300 C.2   284  GLY284      0.2611
     32  O        -88.0290   -2.4240  -49.2900 O.2   284  GLY284     -0.2717
     33  N        -85.9440   -1.8090  -49.8820 N.am  285  TRP285     -0.1976
     34  CA       -85.3150   -2.5580  -48.8090 C.3   285  TRP285      0.1640
     35  C        -85.3750   -1.7670  -47.5130 C.2   285  TRP285      0.2290
     36  O        -85.2440   -0.5420  -47.5120 O.2   285  TRP285     -0.2864
     37  CB       -83.8560   -2.8640  -49.1520 C.3   285  TRP285      0.0576
     38  CG       -83.7040   -3.9020  -50.2060 C.ar  285  TRP285      0.0006
     39  CD1      -83.4640   -3.6940  -51.5320 C.ar  285  TRP285      0.0946
     40  CD2      -83.8070   -5.3120  -50.0320 C.ar  285  TRP285      0.0152
     41  NE1      -83.3990   -4.8950  -52.1950 N.ar  285  TRP285     -0.2442
     42  CE2      -83.6080   -5.9040  -51.2940 C.ar  285  TRP285      0.0810
     43  CE3      -84.0450   -6.1330  -48.9290 C.ar  285  TRP285      0.0012
     44  CZ2      -83.6400   -7.2770  -51.4810 C.ar  285  TRP285      0.0191
     45  CZ3      -84.0770   -7.4920  -49.1160 C.ar  285  TRP285      0.0001
     46  CH2      -83.8760   -8.0530  -50.3820 C.ar  285  TRP285      0.0015
     47  N        -74.4560   12.7140  -59.4670 N.3   318  VAL318     -0.1231
     48  CA       -74.9290   11.4140  -59.9370 C.3   318  VAL318      0.1692
     49  C        -76.0690   10.8990  -59.0680 C.2   318  VAL318      0.2592
     50  O        -77.0130   10.2730  -59.5640 O.2   318  VAL318     -0.2718
     51  CB       -73.7570   10.4160  -59.9650 C.3   318  VAL318      0.0266
     52  CG1      -74.1290    9.1710  -60.7620 C.3   318  VAL318      0.0020
     53  CG2      -72.5010   11.0790  -60.5110 C.3   318  VAL318      0.0020
     54  N        -75.9950   11.1440  -57.7610 N.am  319  TYR319     -0.1976
     55  CA       -77.0030   10.6360  -56.8330 C.3   319  TYR319      0.1639
     56  C        -78.3650   11.2900  -57.0460 C.2   319  TYR319      0.2290
     57  O        -79.3950   10.6670  -56.7650 O.2   319  TYR319     -0.2864
     58  CB       -76.5310   10.7930  -55.3810 C.3   319  TYR319      0.0560
     59  CG       -75.2850    9.9900  -55.0060 C.ar  319  TYR319     -0.0198
     60  CD1      -74.4430    9.4530  -55.9740 C.ar  319  TYR319     -0.0009
     61  CD2      -74.9560    9.7730  -53.6730 C.ar  319  TYR319     -0.0009
     62  CE1      -73.3180    8.7280  -55.6290 C.ar  319  TYR319      0.0417
     63  CE2      -73.8260    9.0450  -53.3190 C.ar  319  TYR319      0.0417
     64  CZ       -73.0140    8.5280  -54.3030 C.ar  319  TYR319      0.1957
     65  OH       -71.8930    7.8060  -53.9650 O.3   319  TYR319     -0.2866
     66  N        -81.5790    9.5670  -59.1630 N.3   322  TYR322     -0.1241
     67  CA       -82.3970    8.4540  -58.6860 C.3   322  TYR322      0.1605
     68  C        -83.2360    8.7750  -57.4500 C.2   322  TYR322      0.2264
     69  O        -83.8740    7.8670  -56.9020 O.2   322  TYR322     -0.2867
     70  CB       -81.5040    7.2340  -58.4340 C.3   322  TYR322      0.0534
     71  CG       -80.5620    6.9880  -59.5880 C.ar  322  TYR322     -0.0201
     72  CD1      -81.0590    6.6720  -60.8460 C.ar  322  TYR322     -0.0009
     73  CD2      -79.1900    7.1190  -59.4390 C.ar  322  TYR322     -0.0009
     74  CE1      -80.2130    6.4610  -61.9180 C.ar  322  TYR322      0.0417
     75  CE2      -78.3360    6.9110  -60.5070 C.ar  322  TYR322      0.0417
     76  CZ       -78.8540    6.5830  -61.7440 C.ar  322  TYR322      0.1957
     77  OH       -78.0090    6.3750  -62.8120 O.3   322  TYR322     -0.2866
     78  N        -82.4190    9.3760  -54.4100 N.3   324  CYS324     -0.1235
     79  CA       -81.9710    8.4410  -53.3810 C.3   324  CYS324      0.1677
     80  C        -80.5340    8.8030  -53.0060 C.2   324  CYS324      0.2270
     81  O        -79.5980    8.4560  -53.7320 O.2   324  CYS324     -0.2867
     82  CB       -82.0780    7.0040  -53.8710 C.3   324  CYS324      0.0956
     83  SG       -82.5290    5.7980  -52.6010 S.3   324  CYS324     -0.0801
     84  N        -77.5280    8.6320  -50.0170 N.3   326  PHE326     -0.1241
     85  CA       -77.1380    7.7820  -48.8990 C.3   326  PHE326      0.1605
     86  C        -75.9360    8.3460  -48.1540 C.2   326  PHE326      0.2264
     87  O        -75.2120    7.5990  -47.4860 O.2   326  PHE326     -0.2867
     88  CB       -76.8620    6.3690  -49.4040 C.3   326  PHE326      0.0534
     89  CG       -78.0990    5.5300  -49.5090 C.ar  326  PHE326     -0.0203
     90  CD1      -78.8340    5.1990  -48.3820 C.ar  326  PHE326     -0.0042
     91  CD2      -78.5550    5.1170  -50.7470 C.ar  326  PHE326     -0.0042
     92  CE1      -79.9840    4.4460  -48.4920 C.ar  326  PHE326     -0.0003
     93  CE2      -79.7020    4.3640  -50.8630 C.ar  326  PHE326     -0.0003
     94  CZ       -80.4180    4.0310  -49.7380 C.ar  326  PHE326     -0.0000
     95  N        -73.1230    4.5430  -49.9800 N.3   339  THR339     -0.1218
     96  CA       -73.5540    4.0450  -51.2830 C.3   339  THR339      0.1862
     97  C        -72.6260    2.9560  -51.8180 C.2   339  THR339      0.2287
     98  O        -73.1000    1.9370  -52.3310 O.2   339  THR339     -0.2866
     99  CB       -73.6520    5.2080  -52.2720 C.3   339  THR339      0.1770
    100  OG1      -74.7310    6.0740  -51.8910 O.3   339  THR339     -0.2211
    101  CG2      -73.8880    4.7060  -53.6800 C.3   339  THR339      0.0375
    102  N        -77.2320    0.8230  -42.9610 N.3   346  ARG346     -0.1231
    103  CA       -77.4780    1.7620  -44.0520 C.3   346  ARG346      0.1694
    104  C        -78.8480    1.5650  -44.6860 C.2   346  ARG346      0.2592
    105  O        -79.2400    2.3700  -45.5380 O.2   346  ARG346     -0.2718
    106  CB       -76.3800    1.6380  -45.1150 C.3   346  ARG346      0.0321
    107  CG       -76.4300    0.3620  -45.9550 C.3   346  ARG346      0.0489
    108  CD       -75.3900    0.3930  -47.0760 C.3   346  ARG346      0.2205
    109  NE       -75.7730   -0.3920  -48.2520 N.pl3 346  ARG346     -0.0865
    110  CZ       -76.0160    0.1280  -49.4510 C.cat 346  ARG346      0.5346
    111  NH1      -75.9170    1.4360  -49.6400 N.pl3 346  ARG346      0.1354
    112  NH2      -76.3560   -0.6570  -50.4610 N.pl3 346  ARG346      0.1354
    113  N        -79.5820    0.5270  -44.2800 N.am  347  PHE347     -0.1962
    114  CA       -80.9120    0.2310  -44.7920 C.3   347  PHE347      0.1771
    115  C        -82.0210    0.7590  -43.8970 C.2   347  PHE347      0.2619
    116  O        -83.1380    0.2320  -43.9350 O.2   347  PHE347     -0.2715
    117  CB       -81.0840   -1.2750  -44.9800 C.3   347  PHE347      0.0574
    118  CG       -80.3260   -1.8230  -46.1450 C.ar  347  PHE347     -0.0200
    119  CD1      -78.9970   -2.1810  -46.0100 C.ar  347  PHE347     -0.0042
    120  CD2      -80.9370   -1.9710  -47.3800 C.ar  347  PHE347     -0.0042
    121  CE1      -78.2880   -2.6810  -47.0800 C.ar  347  PHE347     -0.0003
    122  CE2      -80.2330   -2.4710  -48.4540 C.ar  347  PHE347     -0.0003
    123  CZ       -78.9060   -2.8250  -48.3010 C.ar  347  PHE347     -0.0000
    124  N        -81.7470    1.7770  -43.0910 N.am  348  ALA348     -0.1963
    125  CA       -82.8030    2.4130  -42.3210 C.3   348  ALA348      0.1728
    126  C        -83.4140    3.5010  -43.1910 C.2   348  ALA348      0.2616
    127  O        -82.7180    4.4300  -43.6170 O.2   348  ALA348     -0.2715
    128  CB       -82.2630    2.9860  -41.0120 C.3   348  ALA348      0.0334
    129  N        -84.7130    3.3940  -43.4410 N.am  349  ASN349     -0.1972
    130  CA       -85.3760    4.3440  -44.3130 C.3   349  ASN349      0.1688
    131  C        -85.7210    5.6220  -43.5640 C.2   349  ASN349      0.2292
    132  O        -85.7420    5.6750  -42.3310 O.2   349  ASN349     -0.2864
    133  CB       -86.6400    3.7450  -44.9230 C.3   349  ASN349      0.1181
    134  CG       -86.3770    2.4470  -45.6390 C.2   349  ASN349      0.2629
    135  OD1      -86.1230    1.4200  -45.0110 O.2   349  ASN349     -0.2716
    136  ND2      -86.4390    2.4820  -46.9670 N.am  349  ASN349     -0.0877
    137  N        -83.7240   11.7130  -41.8730 N.3   387  TYR387     -0.1241
    138  CA       -82.5630   12.0060  -42.7030 C.3   387  TYR387      0.1605
    139  C        -82.2240   13.4900  -42.6790 C.2   387  TYR387      0.2264
    140  O        -81.0620   13.8650  -42.8810 O.2   387  TYR387     -0.2867
    141  CB       -82.8270   11.5280  -44.1360 C.3   387  TYR387      0.0534
    142  CG       -82.4580   10.0790  -44.3840 C.ar  387  TYR387     -0.0201
    143  CD1      -82.9410    9.0690  -43.5620 C.ar  387  TYR387     -0.0009
    144  CD2      -81.6650    9.7170  -45.4640 C.ar  387  TYR387     -0.0009
    145  CE1      -82.6140    7.7470  -43.7840 C.ar  387  TYR387      0.0417
    146  CE2      -81.3360    8.3940  -45.6960 C.ar  387  TYR387      0.0417
    147  CZ       -81.8130    7.4160  -44.8530 C.ar  387  TYR387      0.1957
    148  OH       -81.4910    6.0990  -45.0780 O.3   387  TYR387     -0.2866
@<TRIPOS>BOND
     1    77    76    1
     2    74    76   ar
     3    74    72   ar
     4    76    75   ar
     5    28    27    1
     6    72    71   ar
     7    52    51    1
     8    53    51    1
     9    75    73   ar
    10    27    26   ar
    11    27    25   ar
    12    26    24   ar
    13    51    48    1
    14    48    47    1
    15    48    49    1
    16    71    73   ar
    17    71    70    1
    18    50    49    2
    19    66    67    1
    20    25    23   ar
    21    49    54   am
    22    24    22   ar
    23    67    70    1
    24    67    68    1
    25     8     6    1
    26     7     5    1
    27    23    22   ar
    28     6     5    1
    29    54    55    1
    30    22    21    1
    31    68    69    2
    32    56    55    1
    33    56    57    2
    34     5     2    1
    35    55    58    1
    36    12    11    2
    37    21    18    1
    38     2     1    1
    39     2     3    1
    40    60    62   ar
    41    60    59   ar
    42    18    19    1
    43    18    17    1
    44    62    64   ar
    45    11    17   am
    46    11    10    1
    47     9     3   am
    48     9    10    1
    49    58    59    1
    50    19    20    2
    51     3     4    2
    52    59    61   ar
    53    10    13    1
    54    78    79    1
    55    64    65    1
    56    64    63   ar
    57    82    79    1
    58    82    83    1
    59    81    80    2
    60   101    99    1
    61    13    14    1
    62    61    63   ar
    63    79    80    1
    64    14    15    1
    65    98    97    2
    66    99   100    1
    67    99    96    1
    68    41    39   ar
    69    41    42   ar
    70    97    96    1
    71    39    38   ar
    72    44    42   ar
    73    44    46   ar
    74    15    16    1
    75    42    40   ar
    76    96    95    1
    77    30    29    1
    78    30    31    1
    79    93    91   ar
    80    93    94   ar
    81    91    89   ar
    82   112   110    1
    83    46    45   ar
    84    38    40   ar
    85    38    37    1
    86    40    43   ar
    87    31    33   am
    88    31    32    2
    89    84    85    1
    90    33    34    1
    91    94    92   ar
    92   111   110    1
    93    89    88    1
    94    89    90   ar
    95   110   109    2
    96    88    85    1
    97    37    34    1
    98    45    43   ar
    99    85    86    1
   100    34    35    1
   101    92    90   ar
   102   122   123   ar
   103   122   120   ar
   104   123   121   ar
   105   109   108    1
   106    86    87    2
   107    35    36    2
   108   120   118   ar
   109   121   119   ar
   110   108   107    1
   111   136   134   am
   112   118   119   ar
   113   118   117    1
   114   107   106    1
   115   146   144   ar
   116   146   147   ar
   117   134   135    2
   118   134   133    1
   119   105   104    2
   120   144   142   ar
   121   106   103    1
   122   148   147    1
   123   117   114    1
   124   133   130    1
   125   147   145   ar
   126   114   113    1
   127   114   115    1
   128   104   113   am
   129   104   103    1
   130   142   141    1
   131   142   143   ar
   132   130   131    1
   133   130   129    1
   134   141   138    1
   135   103   102    1
   136   116   115    2
   137   115   124   am
   138   145   143   ar
   139   127   126    2
   140   131   132    2
   141   129   126   am
   142   126   125    1
   143   124   125    1
   144   140   139    2
   145   138   139    1
   146   138   137    1
   147   125   128    1
