@<TRIPOS>MOLECULE
tmp/5wg8A00.pdb
 123 118 0 0 0
SMALL
GASTEIGER

@<TRIPOS>ATOM
      1  N         10.3030   -2.7230  -16.1190 N.3    71  ASP71      -0.1239
      2  CA         9.3410   -1.6210  -16.2510 C.3    71  ASP71       0.1674
      3  C         10.0200   -0.3330  -16.6870 C.2    71  ASP71       0.2266
      4  O         11.0740    0.0300  -16.1560 O.2    71  ASP71      -0.2867
      5  CB         8.6440   -1.3220  -14.9140 C.3    71  ASP71       0.1410
      6  CG         7.9760   -2.5280  -14.2990 C.2    71  ASP71       0.3668
      7  OD1        8.4930   -3.6610  -14.4490 O.co2  71  ASP71      -0.2456
      8  OD2        6.9080   -2.3350  -13.6610 O.co2  71  ASP71      -0.2456
      9  N          7.5430    2.5380  -17.7310 N.3    73  HIS73      -0.1241
     10  CA         6.4790    3.4430  -17.2630 C.3    73  HIS73       0.1621
     11  C          6.5930    4.8700  -17.8090 C.2    73  HIS73       0.2264
     12  O          6.5420    5.8470  -17.0520 O.2    73  HIS73      -0.2867
     13  CB         6.4220    3.4640  -15.7260 C.3    73  HIS73       0.0745
     14  CG         5.7300    2.2670  -15.1400 C.ar   73  HIS73       0.0817
     15  ND1        4.4240    1.9500  -15.4510 N.ar   73  HIS73      -0.2268
     16  CD2        6.1700    1.2870  -14.3100 C.ar   73  HIS73       0.1154
     17  CE1        4.0790    0.8400  -14.8130 C.ar   73  HIS73       0.1986
     18  NE2        5.1120    0.4270  -14.1030 N.ar   73  HIS73      -0.2212
     19  N          5.0490   -3.1810  -18.8640 N.3   100  ASP100     -0.1239
     20  CA         4.8320   -1.9290  -18.1310 C.3   100  ASP100      0.1674
     21  C          5.6190   -0.7990  -18.7820 C.2   100  ASP100      0.2266
     22  O          6.4130   -0.0990  -18.1360 O.2   100  ASP100     -0.2867
     23  CB         5.1580   -2.0680  -16.6340 C.3   100  ASP100      0.1410
     24  CG         4.0390   -2.7670  -15.8470 C.2   100  ASP100      0.3668
     25  OD1        3.1150   -3.3270  -16.4650 O.co2 100  ASP100     -0.2456
     26  OD2        4.0850   -2.7570  -14.5970 O.co2 100  ASP100     -0.2456
     27  N          1.7560    5.8180  -15.3090 N.3   104  ARG104     -0.1245
     28  CA         2.5760    6.4340  -14.2580 C.3   104  ARG104      0.1563
     29  C          3.3930    7.5980  -14.8100 C.2   104  ARG104      0.2260
     30  O          3.1730    8.7580  -14.4340 O.2   104  ARG104     -0.2867
     31  CB         3.4790    5.3950  -13.5770 C.3   104  ARG104      0.0307
     32  CG         2.7350    4.1390  -13.0430 C.3   104  ARG104      0.0489
     33  CD         1.8150    4.4590  -11.8300 C.3   104  ARG104      0.2205
     34  NE         1.3670    3.2430  -11.1140 N.pl3 104  ARG104     -0.0865
     35  CZ         0.6000    3.2630  -10.0180 C.cat 104  ARG104      0.5346
     36  NH1        0.1840    4.4310   -9.5180 N.pl3 104  ARG104      0.1354
     37  NH2        0.2250    2.1250   -9.4180 N.pl3 104  ARG104      0.1354
     38  N          1.2250   -5.9190  -16.6910 N.3   132  ASN132     -0.1225
     39  CA        -0.1430   -5.7110  -16.2180 C.3   132  ASN132      0.1785
     40  C         -0.6640   -4.3300  -16.5970 C.2   132  ASN132      0.2597
     41  O         -1.8830   -4.1400  -16.6500 O.2   132  ASN132     -0.2718
     42  CB        -0.2740   -5.9590  -14.6890 C.3   132  ASN132      0.1169
     43  CG         0.5440   -5.0110  -13.8550 C.2   132  ASN132      0.2627
     44  OD1        1.7170   -4.7950  -14.1310 O.2   132  ASN132     -0.2716
     45  ND2       -0.0630   -4.4410  -12.8080 N.am  132  ASN132     -0.0877
     46  N          0.2130   -3.3780  -16.9090 N.am  133  HIS133     -0.1975
     47  CA        -0.2620   -2.0660  -17.3240 C.3   133  HIS133      0.1656
     48  C         -0.5850   -1.9730  -18.8070 C.2   133  HIS133      0.2291
     49  O         -1.1260   -0.9420  -19.2290 O.2   133  HIS133     -0.2864
     50  CB         0.7580   -0.9770  -16.9360 C.3   133  HIS133      0.0771
     51  CG         0.5960   -0.5040  -15.5230 C.ar  133  HIS133      0.0820
     52  ND1       -0.2530    0.5280  -15.1740 N.ar  133  HIS133     -0.2267
     53  CD2        1.1260   -0.9670  -14.3640 C.ar  133  HIS133      0.1154
     54  CE1       -0.2160    0.6990  -13.8650 C.ar  133  HIS133      0.1986
     55  NE2        0.6080   -0.2010  -13.3490 N.ar  133  HIS133     -0.2212
     56  N         -1.8470   -7.4190   -3.4950 N.3   229  ARG229     -0.1245
     57  CA        -2.4610   -6.5970   -4.5320 C.3   229  ARG229      0.1563
     58  C         -3.9340   -6.9030   -4.7480 C.2   229  ARG229      0.2260
     59  O         -4.5940   -6.1590   -5.4790 O.2   229  ARG229     -0.2867
     60  CB        -1.7300   -6.7860   -5.8710 C.3   229  ARG229      0.0307
     61  CG        -0.2330   -6.5000   -5.8550 C.3   229  ARG229      0.0489
     62  CD         0.2900   -6.7160   -7.2580 C.3   229  ARG229      0.2205
     63  NE         1.7400   -6.7670   -7.3390 N.pl3 229  ARG229     -0.0865
     64  CZ         2.4770   -5.8050   -7.8770 C.cat 229  ARG229      0.5346
     65  NH1        1.9030   -4.7000   -8.3640 N.pl3 229  ARG229      0.1354
     66  NH2        3.7830   -5.9490   -7.9300 N.pl3 229  ARG229      0.1354
     67  N          8.0030   -5.8710  -12.4060 N.3   256  HIS256     -0.1226
     68  CA         6.7160   -5.6950  -11.7110 C.3   256  HIS256      0.1752
     69  C          6.8410   -5.1730  -10.2610 C.2   256  HIS256      0.2596
     70  O          5.8040   -4.8900   -9.6230 O.2   256  HIS256     -0.2718
     71  CB         5.9330   -7.0270  -11.7740 C.3   256  HIS256      0.0759
     72  CG         4.5020   -7.0040  -11.3120 C.ar  256  HIS256      0.0818
     73  ND1        3.5620   -6.0830  -11.7300 N.ar  256  HIS256     -0.2268
     74  CD2        3.8330   -7.8990  -10.5370 C.ar  256  HIS256      0.1154
     75  CE1        2.3900   -6.3800  -11.1910 C.ar  256  HIS256      0.1986
     76  NE2        2.5240   -7.4870  -10.4720 N.ar  256  HIS256     -0.2212
     77  N          8.0590   -4.9930   -9.7290 N.am  257  GLU257     -0.1965
     78  CA         8.2830   -4.4120   -8.4080 C.3   257  GLU257      0.1733
     79  C          9.4950   -3.4980   -8.4330 C.2   257  GLU257      0.2616
     80  O         10.4950   -3.8170   -9.0680 O.2   257  GLU257     -0.2715
     81  CB         8.5210   -5.4950   -7.3570 C.3   257  GLU257      0.0429
     82  CG         7.3110   -6.3630   -7.1370 C.3   257  GLU257      0.1163
     83  CD         7.5360   -7.3010   -5.9870 C.2   257  GLU257      0.3649
     84  OE1        8.2060   -8.3360   -6.1880 O.co2 257  GLU257     -0.2457
     85  OE2        7.0870   -6.9560   -4.8770 O.co2 257  GLU257     -0.2457
     86  N          9.4050   -2.3600   -7.7450 N.am  258  VAL258     -0.1977
     87  CA        10.5440   -1.4600   -7.6730 C.3   258  VAL258      0.1596
     88  C         11.5240   -2.0010   -6.6470 C.2   258  VAL258      0.2287
     89  O         11.1220   -2.5630   -5.6210 O.2   258  VAL258     -0.2864
     90  CB        10.1020   -0.0240   -7.3310 C.3   258  VAL258      0.0276
     91  CG1        9.4030    0.0420   -5.9990 C.3   258  VAL258      0.0022
     92  CG2       11.3250    0.9040   -7.3090 C.3   258  VAL258      0.0022
     93  N         14.1430   -3.9260  -12.8550 N.3   275  PHE275     -0.1241
     94  CA        13.2190   -2.7970  -12.8910 C.3   275  PHE275      0.1605
     95  C         13.9690   -1.6410  -13.5210 C.2   275  PHE275      0.2264
     96  O         15.0640   -1.3190  -13.0620 O.2   275  PHE275     -0.2867
     97  CB        12.7400   -2.4650  -11.4770 C.3   275  PHE275      0.0534
     98  CG        11.6650   -1.4340  -11.4200 C.ar  275  PHE275     -0.0203
     99  CD1       10.3530   -1.7660  -11.6660 C.ar  275  PHE275     -0.0042
    100  CD2       11.9700   -0.1150  -11.0970 C.ar  275  PHE275     -0.0042
    101  CE1        9.3430   -0.7970  -11.6000 C.ar  275  PHE275     -0.0003
    102  CE2       10.9740    0.8520  -11.0360 C.ar  275  PHE275     -0.0003
    103  CZ         9.6550    0.5090  -11.2870 C.ar  275  PHE275     -0.0000
    104  N         11.5800    6.3200   -9.8560 N.3   280  TYR280     -0.1241
    105  CA        10.2240    6.0590  -10.3120 C.3   280  TYR280      0.1605
    106  C          9.2390    7.1260   -9.8320 C.2   280  TYR280      0.2264
    107  O          9.2250    7.5060   -8.6550 O.2   280  TYR280     -0.2867
    108  CB         9.8240    4.6720   -9.8100 C.3   280  TYR280      0.0534
    109  CG         8.3650    4.3390   -9.9480 C.ar  280  TYR280     -0.0201
    110  CD1        7.8070    4.0760  -11.1920 C.ar  280  TYR280     -0.0009
    111  CD2        7.5480    4.2700   -8.8260 C.ar  280  TYR280     -0.0009
    112  CE1        6.4700    3.7580  -11.3220 C.ar  280  TYR280      0.0417
    113  CE2        6.2080    3.9590   -8.9410 C.ar  280  TYR280      0.0417
    114  CZ         5.6710    3.7000  -10.1900 C.ar  280  TYR280      0.1957
    115  OH         4.3330    3.3620  -10.2890 O.3   280  TYR280     -0.2866
    116  N         10.7020    7.9960   -5.9940 N.3   284  MET284     -0.1245
    117  CA        11.1950    6.8330   -5.2620 C.3   284  MET284      0.1570
    118  C         12.6910    6.8680   -5.0090 C.2   284  MET284      0.2261
    119  O         13.1600    6.1880   -4.0910 O.2   284  MET284     -0.2867
    120  CB        10.8550    5.5460   -6.0070 C.3   284  MET284      0.0387
    121  CG         9.5130    4.9580   -5.6480 C.3   284  MET284      0.0595
    122  SD         9.4370    4.2700   -3.9810 S.3   284  MET284     -0.1393
    123  CE         8.0620    3.1430   -4.1890 C.3   284  MET284      0.0692
@<TRIPOS>BOND
     1    49    48    2
     2    19    20    1
     3    48    47    1
     4    21    22    2
     5    21    20    1
     6    20    23    1
     7    11    10    1
     8    11    12    2
     9     9    10    1
    10    47    50    1
    11    47    46    1
    12    10    13    1
    13    50    51    1
    14    46    40   am
    15    38    39    1
    16     3     2    1
    17     3     4    2
    18    41    40    2
    19    23    24    1
    20    40    39    1
    21    25    24   ar
    22     2     1    1
    23     2     5    1
    24    39    42    1
    25    24    26   ar
    26    13    14    1
    27    51    52   ar
    28    51    53   ar
    29    15    14   ar
    30    15    17   ar
    31    27    28    1
    32    52    54   ar
    33    14    16   ar
    34     5     6    1
    35    17    18   ar
    36    29    30    2
    37    29    28    1
    38    42    43    1
    39     7     6   ar
    40    53    55   ar
    41    16    18   ar
    42     6     8   ar
    43    28    31    1
    44    44    43    2
    45    54    55   ar
    46    43    45   am
    47    31    32    1
    48    95    96    2
    49    95    94    1
    50    32    33    1
    51    94    93    1
    52    94    97    1
    53    67    68    1
    54    33    34    1
    55    71    68    1
    56    71    72    1
    57    73    72   ar
    58    73    75   ar
    59    68    69    1
    60    99   101   ar
    61    99    98   ar
    62   101   103   ar
    63    97    98    1
    64    98   100   ar
    65   112   110   ar
    66   112   114   ar
    67    72    74   ar
    68   103   102   ar
    69   110   109   ar
    70    75    76   ar
    71    34    35    2
    72   100   102   ar
    73    74    76   ar
    74   105   104    1
    75   105   106    1
    76   105   108    1
    77   115   114    1
    78    69    77   am
    79    69    70    2
    80   114   113   ar
    81    35    36    1
    82    35    37    1
    83   109   108    1
    84   109   111   ar
    85   106   107    2
    86    77    78    1
    87    80    79    2
    88   113   111   ar
    89    79    78    1
    90    79    86   am
    91    78    81    1
    92    65    64    1
    93    66    64    1
    94    64    63    2
    95    86    87    1
    96    87    90    1
    97    87    88    1
    98    81    82    1
    99    63    62    1
   100    90    92    1
   101    90    91    1
   102    62    61    1
   103    82    83    1
   104    88    89    2
   105    84    83   ar
   106   120   121    1
   107   120   117    1
   108   116   117    1
   109    83    85   ar
   110    60    61    1
   111    60    57    1
   112   121   122    1
   113    59    58    2
   114   117   118    1
   115   118   119    2
   116    58    57    1
   117    57    56    1
   118   123   122    1
