@<TRIPOS>MOLECULE
tmp/5wgbA00.pdb
 124 114 0 0 0
SMALL
GASTEIGER

@<TRIPOS>ATOM
      1  N        -27.7990   58.5180  231.3110 N.3     1  ALA1       -0.1245
      2  CA       -27.8110   58.2080  229.8860 C.3     1  ALA1        0.1562
      3  C        -27.5280   56.7250  229.6480 C.2     1  ALA1        0.2260
      4  O        -27.2160   56.3150  228.5280 O.2     1  ALA1       -0.2867
      5  CB       -26.7960   59.0700  229.1500 C.3     1  ALA1        0.0290
      6  N        -11.8680   51.8070  232.6430 N.3    49  SER49      -0.1202
      7  CA       -13.0300   51.8250  233.5260 C.3    49  SER49       0.2020
      8  C        -14.2680   52.4060  232.8610 C.2    49  SER49       0.2619
      9  O        -15.3430   52.3990  233.4710 O.2    49  SER49      -0.2717
     10  CB       -12.7240   52.6290  234.7910 C.3    49  SER49       0.2103
     11  OG       -11.3890   52.4240  235.2030 O.3    49  SER49      -0.2182
     12  N        -14.1390   52.9190  231.6460 N.am   50  GLY50      -0.1942
     13  CA       -15.2270   53.6260  231.0040 C.3    50  GLY50       0.2014
     14  C        -14.7270   54.7550  230.1280 C.2    50  GLY50       0.2639
     15  O        -13.5160   54.9740  230.0220 O.2    50  GLY50      -0.2714
     16  N        -15.6460   55.4870  229.4970 N.am   51  ALA51      -0.1963
     17  CA       -15.2270   56.5110  228.5470 C.3    51  ALA51       0.1728
     18  C        -14.5910   57.7080  229.2420 C.2    51  ALA51       0.2616
     19  O        -13.8110   58.4320  228.6190 O.2    51  ALA51      -0.2715
     20  CB       -16.4110   56.9590  227.6920 C.3    51  ALA51       0.0334
     21  N        -14.9170   57.9430  230.5160 N.am   52  THR52      -0.1951
     22  CA       -14.2670   59.0200  231.2570 C.3    52  THR52       0.1897
     23  C        -12.7610   58.7870  231.3430 C.2    52  THR52       0.2313
     24  O        -11.9540   59.6680  231.0060 O.2    52  THR52      -0.2863
     25  CB       -14.8810   59.1320  232.6550 C.3    52  THR52       0.1794
     26  OG1      -16.3100   59.0650  232.5580 O.3    52  THR52      -0.2208
     27  CG2      -14.4930   60.4430  233.3100 C.3    52  THR52       0.0378
     28  N        -11.1530   59.1160  227.8700 N.3    55  ASN55      -0.1240
     29  CA       -10.9950   60.5100  227.4710 C.3    55  ASN55       0.1653
     30  C         -9.8330   61.1650  228.2040 C.2    55  ASN55       0.2266
     31  O         -9.0900   61.9590  227.6150 O.2    55  ASN55      -0.2867
     32  CB       -12.2860   61.2880  227.7330 C.3    55  ASN55       0.1155
     33  CG       -13.3620   61.0080  226.7070 C.2    55  ASN55       0.2627
     34  OD1      -13.0750   60.7310  225.5440 O.2    55  ASN55      -0.2716
     35  ND2      -14.6160   61.0800  227.1360 N.am   55  ASN55      -0.0877
     36  N        -18.7680   66.0240  226.5910 N.3    80  HIS80      -0.1241
     37  CA       -19.1610   65.4560  227.8700 C.3    80  HIS80       0.1621
     38  C        -18.5490   66.2670  229.0090 C.2    80  HIS80       0.2264
     39  O        -17.4700   66.8520  228.8750 O.2    80  HIS80      -0.2867
     40  CB       -18.7230   63.9900  227.9420 C.3    80  HIS80       0.0745
     41  CG       -19.2300   63.2570  229.1440 C.ar   80  HIS80       0.0817
     42  ND1      -18.4730   63.0830  230.2830 N.ar   80  HIS80      -0.2268
     43  CD2      -20.4120   62.6410  229.3790 C.ar   80  HIS80       0.1154
     44  CE1      -19.1720   62.3980  231.1710 C.ar   80  HIS80       0.1986
     45  NE2      -20.3520   62.1170  230.6470 N.ar   80  HIS80      -0.2212
     46  N        -16.4490   65.1440  219.7160 N.3   127  MET127     -0.1245
     47  CA       -17.5060   64.1450  219.8440 C.3   127  MET127      0.1570
     48  C        -17.8500   63.5240  218.4930 C.2   127  MET127      0.2261
     49  O        -17.9420   64.2200  217.4780 O.2   127  MET127     -0.2867
     50  CB       -18.7510   64.8070  220.4370 C.3   127  MET127      0.0387
     51  CG       -19.2100   66.0140  219.6210 C.3   127  MET127      0.0595
     52  SD       -20.6210   66.8970  220.2970 S.3   127  MET127     -0.1393
     53  CE       -20.4000   66.5520  222.0360 C.3   127  MET127      0.0692
     54  N        -24.9240   64.3310  221.1520 N.3   131  ASN131     -0.1240
     55  CA       -25.8810   63.6630  222.0290 C.3   131  ASN131      0.1653
     56  C        -27.0870   64.5400  222.3500 C.2   131  ASN131      0.2266
     57  O        -28.1470   64.0150  222.7030 O.2   131  ASN131     -0.2867
     58  CB       -25.1600   63.2410  223.3190 C.3   131  ASN131      0.1155
     59  CG       -26.0940   62.6560  224.3670 C.2   131  ASN131      0.2627
     60  OD1      -25.8420   62.7750  225.5670 O.2   131  ASN131     -0.2716
     61  ND2      -27.1600   61.9980  223.9220 N.am  131  ASN131     -0.0877
     62  N        -14.8070   60.9870  220.8740 N.3   156  ASP156     -0.1239
     63  CA       -15.6070   60.3680  221.9210 C.3   156  ASP156      0.1674
     64  C        -16.7960   59.6950  221.2470 C.2   156  ASP156      0.2266
     65  O        -17.7190   60.3720  220.7830 O.2   156  ASP156     -0.2867
     66  CB       -16.0460   61.4330  222.9250 C.3   156  ASP156      0.1410
     67  CG       -16.7830   60.8650  224.1260 C.2   156  ASP156      0.3668
     68  OD1      -17.0800   59.6510  224.1560 O.co2 156  ASP156     -0.2456
     69  OD2      -17.0710   61.6600  225.0480 O.co2 156  ASP156     -0.2456
     70  N        -18.6710   57.2140  222.7430 N.3   158  ALA158     -0.1231
     71  CA       -19.4830   56.5340  223.7450 C.3   158  ALA158      0.1694
     72  C        -20.9430   56.4440  223.3220 C.2   158  ALA158      0.2591
     73  O        -21.5810   55.3970  223.4800 O.2   158  ALA158     -0.2718
     74  CB       -19.3620   57.2570  225.0890 C.3   158  ALA158      0.0304
     75  N        -21.4820   57.5280  222.7730 N.am  159  GLN159     -0.1979
     76  CA       -22.8690   57.5910  222.3370 C.3   159  GLN159      0.1601
     77  C        -23.0550   57.2010  220.8760 C.2   159  GLN159      0.2287
     78  O        -24.1850   57.2280  220.3840 O.2   159  GLN159     -0.2864
     79  CB       -23.4170   59.0030  222.5630 C.3   159  GLN159      0.0394
     80  CG       -24.9020   59.0570  222.8470 C.3   159  GLN159      0.0908
     81  CD       -25.2330   58.4960  224.2030 C.2   159  GLN159      0.2608
     82  OE1      -24.5440   58.7770  225.1810 O.2   159  GLN159     -0.2717
     83  NE2      -26.2850   57.6850  224.2720 N.am  159  GLN159     -0.0878
     84  N        -17.6200   53.3270  225.6840 N.3   179  SER179     -0.1217
     85  CA       -18.2200   53.0470  226.9820 C.3   179  SER179      0.1889
     86  C        -19.0970   51.8030  226.9050 C.2   179  SER179      0.2288
     87  O        -19.8520   51.6180  225.9450 O.2   179  SER179     -0.2866
     88  CB       -19.0450   54.2350  227.4730 C.3   179  SER179      0.2089
     89  OG       -19.6010   53.9640  228.7430 O.3   179  SER179     -0.2183
     90  N        -21.6190   50.5490  229.1950 N.3   181  HIS181     -0.1226
     91  CA       -23.0330   50.6450  229.5430 C.3   181  HIS181      0.1752
     92  C        -23.7910   51.6520  228.6850 C.2   181  HIS181      0.2595
     93  O        -24.9700   51.9050  228.9480 O.2   181  HIS181     -0.2718
     94  CB       -23.1940   50.9950  231.0270 C.3   181  HIS181      0.0759
     95  CG       -22.7450   52.3790  231.3720 C.ar  181  HIS181      0.0818
     96  ND1      -23.6240   53.3820  231.7200 N.ar  181  HIS181     -0.2268
     97  CD2      -21.5090   52.9290  231.4170 C.ar  181  HIS181      0.1154
     98  CE1      -22.9490   54.4910  231.9660 C.ar  181  HIS181      0.1986
     99  NE2      -21.6640   54.2430  231.7900 N.ar  181  HIS181     -0.2212
    100  N        -23.1490   52.2420  227.6830 N.am  182  LYS182     -0.1980
    101  CA       -23.8710   53.0170  226.6860 C.3   182  LYS182      0.1596
    102  C        -24.3490   52.1560  225.5270 C.2   182  LYS182      0.2287
    103  O        -25.0860   52.6530  224.6690 O.2   182  LYS182     -0.2864
    104  CB       -22.9970   54.1590  226.1470 C.3   182  LYS182      0.0298
    105  CG       -22.5930   55.2070  227.1800 C.3   182  LYS182      0.0038
    106  CD       -23.7960   55.8670  227.8370 C.3   182  LYS182      0.0206
    107  CE       -23.3720   56.7680  228.9980 C.3   182  LYS182      0.1093
    108  NZ       -22.6580   58.0110  228.5550 N.3   182  LYS182     -0.1314
    109  N        -21.7410   48.5850  233.4720 N.3   187  LYS187     -0.1245
    110  CA       -21.0400   49.7420  234.0090 C.3   187  LYS187      0.1561
    111  C        -19.7170   49.3160  234.6360 C.2   187  LYS187      0.2260
    112  O        -19.5870   48.2210  235.1900 O.2   187  LYS187     -0.2867
    113  CB       -21.9150   50.4570  235.0430 C.3   187  LYS187      0.0271
    114  CG       -21.2660   51.6510  235.7300 C.3   187  LYS187      0.0035
    115  CD       -21.3870   52.9150  234.8980 C.3   187  LYS187      0.0206
    116  CE       -20.2540   53.8840  235.2050 C.3   187  LYS187      0.1093
    117  NZ       -18.9980   53.5280  234.4810 N.3   187  LYS187     -0.1314
    118  N        -16.7530   49.4610  232.7620 N.3   189  VAL189     -0.1245
    119  CA       -15.8700   48.9800  231.7110 C.3   189  VAL189      0.1561
    120  C        -15.8950   49.9730  230.5580 C.2   189  VAL189      0.2260
    121  O        -16.9210   50.6090  230.2900 O.2   189  VAL189     -0.2867
    122  CB       -16.2750   47.5650  231.2430 C.3   189  VAL189      0.0252
    123  CG1      -17.5830   47.5940  230.4570 C.3   189  VAL189      0.0019
    124  CG2      -15.1600   46.9330  230.4300 C.3   189  VAL189      0.0019
@<TRIPOS>BOND
     1    49    48    2
     2    48    47    1
     3    51    52    1
     4    51    50    1
     5    46    47    1
     6    47    50    1
     7    52    53    1
     8    78    77    2
     9    65    64    2
    10    62    63    1
    11    77    76    1
    12    54    55    1
    13    64    63    1
    14    63    66    1
    15    55    56    1
    16    55    58    1
    17    76    79    1
    18    76    75    1
    19    56    57    2
    20    79    80    1
    21    70    71    1
    22    75    72   am
    23    80    81    1
    24    66    67    1
    25    58    59    1
    26    72    73    2
    27    72    71    1
    28    71    74    1
    29    61    59   am
    30    67    68   ar
    31    67    69   ar
    32    81    83   am
    33    81    82    2
    34    59    60    2
    35   103   102    2
    36   102   101    1
    37    34    33    2
    38    84    85    1
    39    87    86    2
    40   104   101    1
    41   104   105    1
    42    36    37    1
    43   101   100    1
    44    33    35   am
    45    33    32    1
    46    86    85    1
    47    85    88    1
    48   105   106    1
    49    29    32    1
    50    29    28    1
    51    29    30    1
    52    88    89    1
    53    31    30    2
    54   100    92   am
    55    20    17    1
    56   106   107    1
    57    37    40    1
    58    37    38    1
    59    40    41    1
    60     4     3    2
    61    17    18    1
    62    17    16    1
    63   108   107    1
    64    19    18    2
    65    92    93    2
    66    92    91    1
    67    39    38    2
    68    41    43   ar
    69    41    42   ar
    70     5     2    1
    71    90    91    1
    72    18    21   am
    73    43    45   ar
    74    16    14   am
    75    91    94    1
    76     3     2    1
    77     2     1    1
    78    15    14    2
    79    14    13    1
    80    42    44   ar
    81   121   120    2
    82   124   122    1
    83   123   122    1
    84    21    22    1
    85   120   119    1
    86    45    44   ar
    87    13    12    1
    88    24    23    2
    89    94    95    1
    90   122   119    1
    91    22    23    1
    92    22    25    1
    93    95    97   ar
    94    95    96   ar
    95    97    99   ar
    96    12     8   am
    97   119   118    1
    98    96    98   ar
    99    99    98   ar
   100    26    25    1
   101     6     7    1
   102    25    27    1
   103     8     9    2
   104     8     7    1
   105   109   110    1
   106     7    10    1
   107   110   111    1
   108   110   113    1
   109   117   116    1
   110   111   112    2
   111    10    11    1
   112   115   116    1
   113   115   114    1
   114   113   114    1
