@<TRIPOS>MOLECULE
tmp/5wgcB00.pdb
 186 173 0 0 0
SMALL
GASTEIGER

@<TRIPOS>ATOM
      1  N         25.8980  -40.3070   11.5800 N.3   110  VAL110     -0.1245
      2  CA        25.5420  -40.8020   12.9040 C.3   110  VAL110      0.1561
      3  C         26.0990  -42.2030   13.1370 C.2   110  VAL110      0.2260
      4  O         27.0640  -42.6120   12.4930 O.2   110  VAL110     -0.2867
      5  CB        24.0160  -40.8270   13.1070 C.3   110  VAL110      0.0252
      6  CG1       23.6770  -40.7860   14.5890 C.3   110  VAL110      0.0019
      7  CG2       23.3640  -39.6660   12.3710 C.3   110  VAL110      0.0019
      8  N         21.8230  -41.7510   25.8460 N.3   152  ASP152     -0.1239
      9  CA        20.9240  -42.4270   24.9090 C.3   152  ASP152      0.1674
     10  C         20.5460  -43.7490   25.5480 C.2   152  ASP152      0.2266
     11  O         21.0500  -44.8140   25.1660 O.2   152  ASP152     -0.2867
     12  CB        21.5950  -42.6050   23.5390 C.3   152  ASP152      0.1410
     13  CG        20.7410  -43.3720   22.5530 C.2   152  ASP152      0.3668
     14  OD1       19.5090  -43.4580   22.7660 O.co2 152  ASP152     -0.2456
     15  OD2       21.3060  -43.8700   21.5430 O.co2 152  ASP152     -0.2456
     16  N         21.3440  -47.9830   24.9620 N.3   155  THR155     -0.1218
     17  CA        22.5590  -48.2690   24.2140 C.3   155  THR155      0.1862
     18  C         23.7050  -47.6830   25.0240 C.2   155  THR155      0.2287
     19  O         23.5900  -46.5670   25.5390 O.2   155  THR155     -0.2866
     20  CB        22.5010  -47.6610   22.8020 C.3   155  THR155      0.1770
     21  OG1       21.4790  -48.3290   22.0470 O.3   155  THR155     -0.2211
     22  CG2       23.8150  -47.8520   22.0840 C.3   155  THR155      0.0375
     23  N         27.5680  -46.5070   24.9310 N.3   157  TYR157     -0.1241
     24  CA        28.5240  -46.1120   23.9000 C.3   157  TYR157      0.1605
     25  C         29.9500  -46.4190   24.3300 C.2   157  TYR157      0.2264
     26  O         30.3360  -46.1690   25.4760 O.2   157  TYR157     -0.2867
     27  CB        28.3790  -44.6240   23.5780 C.3   157  TYR157      0.0534
     28  CG        27.1210  -44.3100   22.7820 C.ar  157  TYR157     -0.0201
     29  CD1       27.1790  -43.9180   21.4360 C.ar  157  TYR157     -0.0009
     30  CD2       25.8700  -44.4350   23.3710 C.ar  157  TYR157     -0.0009
     31  CE1       26.0010  -43.6300   20.7190 C.ar  157  TYR157      0.0417
     32  CE2       24.7190  -44.1580   22.6800 C.ar  157  TYR157      0.0417
     33  CZ        24.7790  -43.7680   21.3570 C.ar  157  TYR157      0.1957
     34  OH        23.6000  -43.5020   20.7120 O.3   157  TYR157     -0.2866
     35  N         13.9850  -36.1440   15.4610 N.3   189  MET189     -0.1230
     36  CA        13.9180  -36.9500   16.6730 C.3   189  MET189      0.1702
     37  C         15.1760  -36.8140   17.5380 C.2   189  MET189      0.2592
     38  O         15.1070  -37.0620   18.7430 O.2   189  MET189     -0.2718
     39  CB        13.6550  -38.4070   16.3030 C.3   189  MET189      0.0401
     40  CG        13.3980  -39.3360   17.4850 C.3   189  MET189      0.0596
     41  SD        13.1940  -41.0320   16.9340 S.3   189  MET189     -0.1393
     42  CE        14.3270  -41.8720   18.0260 C.3   189  MET189      0.0692
     43  N         16.3040  -36.3720   16.9780 N.am  190  HIS190     -0.1976
     44  CA        17.5600  -36.3300   17.7240 C.3   190  HIS190      0.1656
     45  C         18.0930  -34.9260   17.9870 C.2   190  HIS190      0.2291
     46  O         19.2980  -34.7680   18.2050 O.2   190  HIS190     -0.2864
     47  CB        18.6110  -37.1630   16.9910 C.3   190  HIS190      0.0771
     48  CG        18.3800  -38.6340   17.1290 C.ar  190  HIS190      0.0820
     49  ND1       17.3330  -39.2800   16.5090 N.ar  190  HIS190     -0.2267
     50  CD2       19.0410  -39.5800   17.8440 C.ar  190  HIS190      0.1154
     51  CE1       17.3570  -40.5610   16.8290 C.ar  190  HIS190      0.1986
     52  NE2       18.3870  -40.7690   17.6340 N.ar  190  HIS190     -0.2212
     53  N         19.3670  -37.4470   24.3870 N.3   209  LEU209     -0.1245
     54  CA        18.5110  -37.8650   23.2780 C.3   209  LEU209      0.1561
     55  C         17.1040  -38.2370   23.7400 C.2   209  LEU209      0.2260
     56  O         16.1400  -38.0950   22.9710 O.2   209  LEU209     -0.2867
     57  CB        19.1480  -39.0340   22.5240 C.3   209  LEU209      0.0270
     58  CG        20.4650  -38.7910   21.7740 C.3   209  LEU209      0.0019
     59  CD1       20.8260  -40.0420   20.9330 C.3   209  LEU209      0.0001
     60  CD2       20.4070  -37.5060   20.8950 C.3   209  LEU209      0.0001
     61  N         13.5920  -37.3860   21.7600 N.3   213  LYS213     -0.1245
     62  CA        12.7220  -38.4430   21.2550 C.3   213  LYS213      0.1561
     63  C         11.3050  -38.2990   21.8050 C.2   213  LYS213      0.2260
     64  O         10.3280  -38.4420   21.0640 O.2   213  LYS213     -0.2867
     65  CB        13.3010  -39.8170   21.5940 C.3   213  LYS213      0.0271
     66  CG        12.5370  -40.9370   20.9190 C.3   213  LYS213      0.0035
     67  CD        12.9910  -42.3220   21.3400 C.3   213  LYS213      0.0206
     68  CE        11.9750  -43.3600   20.8570 C.3   213  LYS213      0.1093
     69  NZ        11.4960  -43.0800   19.4660 N.3   213  LYS213     -0.1314
     70  N          5.8320  -42.8350   14.2890 N.3   225  SER225     -0.1202
     71  CA         7.2640  -43.0080   14.5390 C.3   225  SER225      0.2020
     72  C          7.6830  -44.4690   14.4540 C.2   225  SER225      0.2618
     73  O          8.6620  -44.8160   13.7770 O.2   225  SER225     -0.2717
     74  CB         7.6280  -42.4520   15.9230 C.3   225  SER225      0.2103
     75  OG         7.3460  -41.0710   16.0030 O.3   225  SER225     -0.2182
     76  N          6.9900  -45.3280   15.1950 N.am  226  VAL226     -0.1979
     77  CA         7.3050  -46.7530   15.2050 C.3   226  VAL226      0.1595
     78  C          7.1480  -47.3560   13.8090 C.2   226  VAL226      0.2287
     79  O          8.0030  -48.1360   13.3570 O.2   226  VAL226     -0.2864
     80  CB         6.4290  -47.4650   16.2510 C.3   226  VAL226      0.0276
     81  CG1        6.5450  -48.9750   16.1260 C.3   226  VAL226      0.0022
     82  CG2        6.8340  -46.9900   17.6620 C.3   226  VAL226      0.0022
     83  N         10.0560  -46.0730   11.4120 N.3   229  VAL229     -0.1231
     84  CA        11.3130  -46.7270   11.7690 C.3   229  VAL229      0.1692
     85  C         11.2960  -48.1880   11.3320 C.2   229  VAL229      0.2592
     86  O         12.2670  -48.6870   10.7450 O.2   229  VAL229     -0.2718
     87  CB        11.5970  -46.5770   13.2800 C.3   229  VAL229      0.0266
     88  CG1       12.8160  -47.4060   13.6820 C.3   229  VAL229      0.0020
     89  CG2       11.8690  -45.1080   13.6200 C.3   229  VAL229      0.0020
     90  N         10.1840  -48.8860   11.5690 N.am  230  SER230     -0.1952
     91  CA        10.0910  -50.2860   11.1700 C.3   230  SER230      0.1924
     92  C         10.2130  -50.4450    9.6630 C.2   230  SER230      0.2314
     93  O         10.8270  -51.4080    9.1820 O.2   230  SER230     -0.2863
     94  CB         8.7640  -50.8910   11.6340 C.3   230  SER230      0.2116
     95  OG         8.6730  -50.8560   13.0250 O.3   230  SER230     -0.2180
     96  N         13.9420  -50.0710    8.3750 N.3   233  GLN233     -0.1245
     97  CA        14.7040  -51.2760    8.6890 C.3   233  GLN233      0.1566
     98  C         14.3250  -52.4290    7.7580 C.2   233  GLN233      0.2260
     99  O         15.1980  -53.1580    7.2720 O.2   233  GLN233     -0.2867
    100  CB        14.4720  -51.6770   10.1520 C.3   233  GLN233      0.0367
    101  CG        15.4010  -52.8110   10.6450 C.3   233  GLN233      0.0905
    102  CD        16.9070  -52.4810   10.5380 C.2   233  GLN233      0.2608
    103  OE1       17.5160  -51.9030   11.4620 O.2   233  GLN233     -0.2717
    104  NE2       17.4980  -52.8050    9.3860 N.am  233  GLN233     -0.0878
    105  N         23.9220  -54.0710   15.3850 N.3   257  PRO257     -0.2116
    106  CA        24.4800  -52.9950   16.2050 C.3   257  PRO257      0.1372
    107  C         24.6040  -53.4380   17.6590 C.2   257  PRO257      0.2244
    108  O         23.8560  -54.2950   18.1370 O.2   257  PRO257     -0.2868
    109  CB        23.4530  -51.8660   16.0580 C.3   257  PRO257      0.0268
    110  CG        22.7770  -52.1400   14.7760 C.3   257  PRO257      0.0207
    111  CD        22.7110  -53.6410   14.6620 C.3   257  PRO257      0.0892
    112  N         23.6310  -52.5680   20.5710 N.3   259  MET259     -0.1245
    113  CA        22.6700  -51.9310   21.4580 C.3   259  MET259      0.1570
    114  C         22.3690  -52.8580   22.6310 C.2   259  MET259      0.2261
    115  O         22.7450  -54.0320   22.6430 O.2   259  MET259     -0.2867
    116  CB        21.3710  -51.5930   20.7050 C.3   259  MET259      0.0387
    117  CG        21.6110  -50.9440   19.3640 C.3   259  MET259      0.0595
    118  SD        20.1420  -50.2900   18.5710 S.3   259  MET259     -0.1393
    119  CE        19.4170  -51.7620   17.8880 C.3   259  MET259      0.0692
    120  N         16.5440  -53.1680   23.1540 N.3   263  ARG263     -0.1245
    121  CA        16.4200  -52.6290   21.7980 C.3   263  ARG263      0.1563
    122  C         16.5980  -53.7130   20.7340 C.2   263  ARG263      0.2260
    123  O         15.8280  -53.7690   19.7710 O.2   263  ARG263     -0.2867
    124  CB        17.4190  -51.5020   21.6010 C.3   263  ARG263      0.0307
    125  CG        17.0180  -50.2370   22.3240 C.3   263  ARG263      0.0489
    126  CD        17.9050  -49.0670   21.9160 C.3   263  ARG263      0.2205
    127  NE        17.4360  -47.8100   22.4830 N.pl3 263  ARG263     -0.0865
    128  CZ        18.1700  -46.7070   22.5950 C.cat 263  ARG263      0.5346
    129  NH1       19.4290  -46.7000   22.2020 N.pl3 263  ARG263      0.1354
    130  NH2       17.6460  -45.6070   23.1220 N.pl3 263  ARG263      0.1354
    131  N         13.4350  -55.9600   20.4770 N.3   266  ALA266     -0.1231
    132  CA        12.3030  -55.3290   19.8100 C.3   266  ALA266      0.1694
    133  C         12.5680  -55.1490   18.3160 C.2   266  ALA266      0.2591
    134  O         11.6750  -55.3730   17.4900 O.2   266  ALA266     -0.2718
    135  CB        11.9890  -53.9930   20.4750 C.3   266  ALA266      0.0304
    136  N         13.7840  -54.7440   17.9460 N.am  267  ALA267     -0.1980
    137  CA        14.0740  -54.4820   16.5410 C.3   267  ALA267      0.1597
    138  C         14.3410  -55.7680   15.7630 C.2   267  ALA267      0.2287
    139  O         13.9820  -55.8640   14.5870 O.2   267  ALA267     -0.2864
    140  CB        15.2750  -53.5480   16.4130 C.3   267  ALA267      0.0319
    141  N         11.3250  -59.6010   16.0970 N.3   271  LYS271     -0.1245
    142  CA        10.7530  -59.2490   14.8060 C.3   271  LYS271      0.1561
    143  C         11.0850  -60.2590   13.7260 C.2   271  LYS271      0.2260
    144  O         10.2010  -60.7170   12.9950 O.2   271  LYS271     -0.2867
    145  CB        11.2680  -57.8900   14.3190 C.3   271  LYS271      0.0271
    146  CG        10.3490  -56.7350   14.5420 C.3   271  LYS271      0.0035
    147  CD        10.4310  -55.8820   13.3150 C.3   271  LYS271      0.0206
    148  CE         9.3090  -54.9110   13.2720 C.3   271  LYS271      0.1093
    149  NZ         7.9660  -55.5220   13.1870 N.3   271  LYS271     -0.1314
    150  N         28.6560  -49.7360   22.0200 N.3   289  HIS289     -0.1241
    151  CA        28.3960  -49.1670   20.6960 C.3   289  HIS289      0.1621
    152  C         29.6050  -48.3440   20.2390 C.2   289  HIS289      0.2264
    153  O         29.9300  -47.3190   20.8480 O.2   289  HIS289     -0.2867
    154  CB        27.1310  -48.3190   20.7650 C.3   289  HIS289      0.0745
    155  CG        26.6710  -47.7950   19.4430 C.ar  289  HIS289      0.0817
    156  ND1       26.6030  -48.5770   18.3080 N.ar  289  HIS289     -0.2268
    157  CD2       26.2490  -46.5630   19.0770 C.ar  289  HIS289      0.1154
    158  CE1       26.1560  -47.8470   17.3010 C.ar  289  HIS289      0.1986
    159  NE2       25.9350  -46.6220   17.7420 N.ar  289  HIS289     -0.2212
    160  N         22.2960  -48.8510   11.5800 N.3   319  VAL319     -0.1231
    161  CA        21.2720  -47.8070   11.6060 C.3   319  VAL319      0.1692
    162  C         21.8590  -46.5830   12.3020 C.2   319  VAL319      0.2593
    163  O         22.7160  -46.6940   13.1810 O.2   319  VAL319     -0.2718
    164  CB        19.9510  -48.2960   12.2900 C.3   319  VAL319      0.0266
    165  CG1       20.1920  -48.7870   13.7190 C.3   319  VAL319      0.0020
    166  CG2       18.8730  -47.1930   12.3100 C.3   319  VAL319      0.0020
    167  N         21.4540  -45.4010   11.8460 N.am  320  GLY320     -0.1942
    168  CA        21.8320  -44.1770   12.5140 C.3   320  GLY320      0.2014
    169  C         20.7030  -43.1690   12.4900 C.2   320  GLY320      0.2638
    170  O         19.7900  -43.2290   11.6480 O.2   320  GLY320     -0.2714
    171  N         20.7850  -42.2280   13.4350 N.am  321  ALA321     -0.1977
    172  CA        19.8330  -41.1240   13.4850 C.3   321  ALA321      0.1597
    173  C         19.7790  -40.4160   12.1290 C.2   321  ALA321      0.2287
    174  O         20.7890  -40.3100   11.4190 O.2   321  ALA321     -0.2864
    175  CB        20.2380  -40.1310   14.5750 C.3   321  ALA321      0.0319
    176  N         16.5160  -40.7230    9.7140 N.3   323  PHE323     -0.1241
    177  CA        17.2690  -41.9450    9.9620 C.3   323  PHE323      0.1605
    178  C         17.9570  -42.4210    8.6640 C.2   323  PHE323      0.2264
    179  O         17.5130  -42.0940    7.5510 O.2   323  PHE323     -0.2867
    180  CB        16.3310  -43.0500   10.4800 C.3   323  PHE323      0.0534
    181  CG        16.0710  -43.0240   11.9830 C.ar  323  PHE323     -0.0203
    182  CD1       16.0390  -44.2230   12.7140 C.ar  323  PHE323     -0.0042
    183  CD2       15.7840  -41.8370   12.6440 C.ar  323  PHE323     -0.0042
    184  CE1       15.7450  -44.2260   14.0910 C.ar  323  PHE323     -0.0003
    185  CE2       15.4900  -41.8330   14.0300 C.ar  323  PHE323     -0.0003
    186  CZ        15.4850  -43.0270   14.7440 C.ar  323  PHE323     -0.0000
@<TRIPOS>BOND
     1    99    98    2
     2   179   178    2
     3    98    97    1
     4    96    97    1
     5   178   177    1
     6    97   100    1
     7    93    92    2
     8   104   102   am
     9    92    91    1
    10   176   177    1
    11   177   180    1
    12   100   101    1
    13   180   181    1
    14   102   101    1
    15   102   103    2
    16    86    85    2
    17    91    90    1
    18    91    94    1
    19    85    90   am
    20    85    84    1
    21    83    84    1
    22   174   173    2
    23   160   161    1
    24     1     2    1
    25   161   164    1
    26   161   162    1
    27    94    95    1
    28   170   169    2
    29    84    87    1
    30   167   162   am
    31   167   168    1
    32   181   183   ar
    33   181   182   ar
    34   173   172    1
    35   164   166    1
    36   164   165    1
    37   162   163    2
    38     7     5    1
    39   169   168    1
    40   169   171   am
    41     4     3    2
    42   183   185   ar
    43   182   184   ar
    44     2     5    1
    45     2     3    1
    46   144   143    2
    47     5     6    1
    48   149   148    1
    49   148   147    1
    50    87    89    1
    51    87    88    1
    52   147   146    1
    53    79    78    2
    54   171   172    1
    55   172   175    1
    56   143   142    1
    57    73    72    2
    58    78    77    1
    59   185   186   ar
    60   184   186   ar
    61    70    71    1
    62   145   146    1
    63   145   142    1
    64    72    71    1
    65    72    76   am
    66    71    74    1
    67   139   138    2
    68   111   110    1
    69   111   105    1
    70   110   109    1
    71   142   141    1
    72    76    77    1
    73    77    80    1
    74   105   106    1
    75    35    36    1
    76   138   137    1
    77    74    75    1
    78   109   106    1
    79    81    80    1
    80   106   107    1
    81    80    82    1
    82    39    36    1
    83    39    40    1
    84   140   137    1
    85    49    51   ar
    86    49    48   ar
    87   137   136    1
    88    36    37    1
    89    51    52   ar
    90    41    40    1
    91    41    42    1
    92    43    37   am
    93    43    44    1
    94    47    48    1
    95    47    44    1
    96    48    50   ar
    97   158   159   ar
    98   158   156   ar
    99   134   133    2
   100    37    38    2
   101    52    50   ar
   102   107   108    2
   103    44    45    1
   104   159   157   ar
   105   119   118    1
   106   136   133   am
   107    45    46    2
   108   156   155   ar
   109   133   132    1
   110   118   117    1
   111   157   155   ar
   112   117   116    1
   113   155   154    1
   114    69    68    1
   115   123   122    2
   116   132   135    1
   117   132   131    1
   118   152   151    1
   119   152   153    2
   120   112   113    1
   121   151   154    1
   122   151   150    1
   123   116   113    1
   124    34    33    1
   125    31    33   ar
   126    31    29   ar
   127   122   121    1
   128    68    67    1
   129    60    58    1
   130    66    67    1
   131    66    65    1
   132    59    58    1
   133    64    63    2
   134    62    65    1
   135    62    61    1
   136    62    63    1
   137    33    32   ar
   138    29    28   ar
   139   113   114    1
   140    15    13   ar
   141   124   121    1
   142   124   125    1
   143    58    57    1
   144   121   120    1
   145   126   125    1
   146   126   127    1
   147    21    20    1
   148    22    20    1
   149   129   128    1
   150   127   128    2
   151    57    54    1
   152    13    14   ar
   153    13    12    1
   154   128   130    1
   155   114   115    2
   156    32    30   ar
   157    28    30   ar
   158    28    27    1
   159    20    17    1
   160    56    55    2
   161    54    55    1
   162    54    53    1
   163    12     9    1
   164    27    24    1
   165    24    25    1
   166    24    23    1
   167    17    16    1
   168    17    18    1
   169    25    26    2
   170     9    10    1
   171     9     8    1
   172    18    19    2
   173    11    10    2
