@<TRIPOS>MOLECULE
tmp/5wggA01.pdb
 191 185 0 0 0
SMALL
GASTEIGER

@<TRIPOS>ATOM
      1  N          0.5810   42.5000   -5.5050 N.3   104  CYS104     -0.1235
      2  CA         0.3630   42.2410   -6.9130 C.3   104  CYS104      0.1677
      3  C          0.0160   43.5580   -7.5780 C.2   104  CYS104      0.2270
      4  O         -0.2360   44.5570   -6.9070 O.2   104  CYS104     -0.2867
      5  CB        -0.7070   41.1970   -7.1420 C.3   104  CYS104      0.0956
      6  SG        -1.0130   41.1260   -8.8730 S.3   104  CYS104     -0.0801
      7  N        -11.9330   36.9840   -8.3110 N.3   110  TYR110     -0.1227
      8  CA       -12.0710   35.6540   -7.6970 C.3   110  TYR110      0.1736
      9  C        -10.8730   35.2440   -6.8300 C.2   110  TYR110      0.2596
     10  O        -10.8910   34.1600   -6.2370 O.2   110  TYR110     -0.2718
     11  CB       -12.3170   34.5570   -8.7760 C.3   110  TYR110      0.0548
     12  CG       -11.4090   34.6420   -9.9930 C.ar  110  TYR110     -0.0200
     13  CD1      -10.0360   34.5090   -9.8530 C.ar  110  TYR110     -0.0009
     14  CD2      -11.9260   34.8620  -11.2760 C.ar  110  TYR110     -0.0009
     15  CE1       -9.1890   34.6080  -10.9390 C.ar  110  TYR110      0.0417
     16  CE2      -11.0780   34.9570  -12.3900 C.ar  110  TYR110      0.0417
     17  CZ        -9.7030   34.8340  -12.2000 C.ar  110  TYR110      0.1957
     18  OH        -8.7930   34.9180  -13.2220 O.3   110  TYR110     -0.2866
     19  N         -9.8410   36.0610   -6.7310 N.am  111  CYS111     -0.1956
     20  CA        -8.5700   35.6200   -6.1720 C.3   111  CYS111      0.1843
     21  C         -8.4760   35.8230   -4.6520 C.2   111  CYS111      0.2625
     22  O         -9.0260   36.7770   -4.0910 O.2   111  CYS111     -0.2714
     23  CB        -7.4260   36.3710   -6.8530 C.3   111  CYS111      0.0997
     24  SG        -5.8940   35.8230   -6.2160 S.3   111  CYS111     -0.0797
     25  N         -7.7210   34.9280   -3.9960 N.am  112  PHE112     -0.1974
     26  CA        -7.4680   35.0660   -2.5610 C.3   112  PHE112      0.1639
     27  C         -6.6590   36.3210   -2.2540 C.2   112  PHE112      0.2290
     28  O         -6.7350   36.8510   -1.1390 O.2   112  PHE112     -0.2864
     29  CB        -6.7410   33.8280   -2.0170 C.3   112  PHE112      0.0560
     30  CG        -5.2970   33.7270   -2.4420 C.ar  112  PHE112     -0.0200
     31  CD1       -4.9580   33.1650   -3.6660 C.ar  112  PHE112     -0.0042
     32  CD2       -4.2780   34.2010   -1.6200 C.ar  112  PHE112     -0.0042
     33  CE1       -3.6330   33.0750   -4.0720 C.ar  112  PHE112     -0.0003
     34  CE2       -2.9490   34.1140   -2.0170 C.ar  112  PHE112     -0.0003
     35  CZ        -2.6290   33.5470   -3.2540 C.ar  112  PHE112     -0.0000
     36  N          5.1980   31.5940   -6.8600 N.3   145  PHE145     -0.1227
     37  CA         3.7750   31.8840   -6.7950 C.3   145  PHE145      0.1736
     38  C          3.5840   33.1640   -5.9990 C.2   145  PHE145      0.2596
     39  O          4.5330   33.9200   -5.7590 O.2   145  PHE145     -0.2718
     40  CB         3.0570   30.7180   -6.1050 C.3   145  PHE145      0.0547
     41  CG         1.6000   30.5170   -6.4850 C.ar  145  PHE145     -0.0202
     42  CD1        1.2510   29.9680   -7.7160 C.ar  145  PHE145     -0.0042
     43  CD2        0.5870   30.7550   -5.5600 C.ar  145  PHE145     -0.0042
     44  CE1       -0.0910   29.7170   -8.0410 C.ar  145  PHE145     -0.0003
     45  CE2       -0.7560   30.5080   -5.8760 C.ar  145  PHE145     -0.0003
     46  CZ        -1.0940   29.9830   -7.1210 C.ar  145  PHE145     -0.0000
     47  N          2.3630   33.3830   -5.5570 N.am  146  GLY146     -0.1942
     48  CA         2.1270   34.3150   -4.4930 C.3   146  GLY146      0.2014
     49  C          0.9510   35.1240   -4.9180 C.2   146  GLY146      0.2639
     50  O         -0.0940   34.5700   -5.2680 O.2   146  GLY146     -0.2714
     51  N          1.1170   36.4320   -4.8110 N.am  147  GLY147     -0.1939
     52  CA         0.5140   37.3710   -5.7100 C.3   147  GLY147      0.2014
     53  C          1.3570   37.2740   -6.9570 C.2   147  GLY147      0.2639
     54  O          1.4700   36.1810   -7.5300 O.2   147  GLY147     -0.2714
     55  N          2.0030   38.3770   -7.3590 N.am  148  GLU148     -0.1963
     56  CA         2.7800   38.3140   -8.5810 C.3   148  GLU148      0.1718
     57  C          4.2540   38.0690   -8.2660 C.2   148  GLU148      0.2458
     58  O          4.9270   38.9880   -7.7730 O.2   148  GLU148     -0.2730
     59  CB         2.6180   39.5830   -9.4060 C.3   148  GLU148      0.0428
     60  CG         3.5850   39.5480  -10.5350 C.3   148  GLU148      0.1163
     61  CD         3.3030   38.3420  -11.4010 C.2   148  GLU148      0.3649
     62  OE1        2.1220   37.9280  -11.4960 O.co2 148  GLU148     -0.2457
     63  OE2        4.2650   37.7900  -11.9480 O.co2 148  GLU148     -0.2457
     64  N          4.7910   36.8730   -8.5460 N.am  149  PRO149     -0.2727
     65  CA         6.1960   36.5780   -8.1840 C.3   149  PRO149      0.1402
     66  C          7.2140   37.4850   -8.8590 C.2   149  PRO149      0.2269
     67  O          8.2490   37.8030   -8.2550 O.2   149  PRO149     -0.2865
     68  CB         6.3820   35.1240   -8.6420 C.3   149  PRO149      0.0296
     69  CG         5.2130   34.8390   -9.5860 C.3   149  PRO149      0.0237
     70  CD         4.0950   35.7010   -9.1170 C.3   149  PRO149      0.0939
     71  N          4.3690   31.0070  -12.1540 N.3   179  THR179     -0.1203
     72  CA         3.0120   31.3670  -12.5490 C.3   179  THR179      0.1994
     73  C          2.9240   32.8800  -12.4810 C.2   179  THR179      0.2619
     74  O          3.1720   33.4590  -11.4170 O.2   179  THR179     -0.2717
     75  CB         1.9730   30.7250  -11.6230 C.3   179  THR179      0.1784
     76  OG1        2.2410   29.3200  -11.5050 O.3   179  THR179     -0.2211
     77  CG2        0.5820   30.8840  -12.1800 C.3   179  THR179      0.0376
     78  N          2.6270   33.5310  -13.6100 N.am  180  THR180     -0.1938
     79  CA         2.6460   34.9870  -13.6260 C.3   180  THR180      0.2028
     80  C          1.4420   35.5340  -14.3770 C.2   180  THR180      0.2642
     81  O          0.9290   34.9060  -15.3160 O.2   180  THR180     -0.2714
     82  CB         3.9350   35.5400  -14.2530 C.3   180  THR180      0.1808
     83  OG1        3.8630   36.9710  -14.3070 O.3   180  THR180     -0.2208
     84  CG2        4.1290   34.9890  -15.6780 C.3   180  THR180      0.0379
     85  N          0.9890   36.7120  -13.9290 N.am  181  ASN181     -0.1971
     86  CA        -0.0410   37.4630  -14.6330 C.3   181  ASN181      0.1688
     87  C          0.4770   38.1250  -15.9030 C.2   181  ASN181      0.2292
     88  O         -0.3270   38.6850  -16.6500 O.2   181  ASN181     -0.2864
     89  CB        -0.6920   38.5240  -13.7210 C.3   181  ASN181      0.1181
     90  CG         0.2490   39.6970  -13.3350 C.2   181  ASN181      0.2629
     91  OD1        1.2920   39.9490  -13.9430 O.2   181  ASN181     -0.2716
     92  ND2       -0.1510   40.4220  -12.3030 N.am  181  ASN181     -0.0877
     93  N          3.3860   29.0970  -16.1770 N.3   201  VAL201     -0.1245
     94  CA         1.9390   29.1530  -16.2880 C.3   201  VAL201      0.1561
     95  C          1.5460   30.5970  -16.5390 C.2   201  VAL201      0.2260
     96  O          1.9670   31.5010  -15.8000 O.2   201  VAL201     -0.2867
     97  CB         1.2710   28.5830  -15.0220 C.3   201  VAL201      0.0252
     98  CG1       -0.2210   28.7810  -15.0720 C.3   201  VAL201      0.0019
     99  CG2        1.6080   27.0830  -14.8800 C.3   201  VAL201      0.0019
    100  N         -1.4450   33.3810  -17.0080 N.3   203  SER203     -0.1217
    101  CA        -2.8360   33.5300  -16.5820 C.3   203  SER203      0.1889
    102  C         -3.5950   34.4610  -17.5130 C.2   203  SER203      0.2288
    103  O         -3.2810   35.6500  -17.5990 O.2   203  SER203     -0.2866
    104  CB        -2.9060   34.0500  -15.1560 C.3   203  SER203      0.2089
    105  OG        -2.2310   33.1620  -14.3110 O.3   203  SER203     -0.2183
    106  N         -7.9340   34.5330  -19.0260 N.3   205  ASP205     -0.1239
    107  CA        -9.1890   33.8130  -18.8440 C.3   205  ASP205      0.1674
    108  C         -9.9360   33.5420  -20.1500 C.2   205  ASP205      0.2266
    109  O        -10.9580   32.8470  -20.1270 O.2   205  ASP205     -0.2867
    110  CB       -10.0830   34.5660  -17.8480 C.3   205  ASP205      0.1410
    111  CG        -9.5740   34.4380  -16.3990 C.2   205  ASP205      0.3668
    112  OD1       -8.7530   33.5220  -16.1480 O.co2 205  ASP205     -0.2456
    113  OD2      -10.0050   35.2340  -15.5200 O.co2 205  ASP205     -0.2456
    114  N         -9.9300   40.2190  -14.3950 N.3   215  ARG215     -0.1245
    115  CA        -8.5180   40.4470  -14.0890 C.3   215  ARG215      0.1563
    116  C         -8.2130   41.9260  -14.3120 C.2   215  ARG215      0.2260
    117  O         -7.9510   42.3590  -15.4370 O.2   215  ARG215     -0.2867
    118  CB        -7.6280   39.5070  -14.9030 C.3   215  ARG215      0.0307
    119  CG        -8.0270   38.0380  -14.7250 C.3   215  ARG215      0.0489
    120  CD        -7.1000   37.0650  -15.4590 C.3   215  ARG215      0.2205
    121  NE        -5.7020   37.2090  -15.0560 N.pl3 215  ARG215     -0.0865
    122  CZ        -5.1710   36.7080  -13.9390 C.cat 215  ARG215      0.5346
    123  NH1       -3.8890   36.9190  -13.6830 N.pl3 215  ARG215      0.1354
    124  NH2       -5.8940   35.9790  -13.0800 N.pl3 215  ARG215      0.1354
    125  N         -3.5070   29.5980  -18.4970 N.3   246  ARG246     -0.1245
    126  CA        -4.3780   29.1030  -17.4370 C.3   246  ARG246      0.1563
    127  C         -5.5280   30.0790  -17.2200 C.2   246  ARG246      0.2260
    128  O         -5.3220   31.2210  -16.7830 O.2   246  ARG246     -0.2867
    129  CB        -3.5720   28.8860  -16.1550 C.3   246  ARG246      0.0307
    130  CG        -4.3850   28.7720  -14.8510 C.3   246  ARG246      0.0489
    131  CD        -5.1510   27.4820  -14.7010 C.3   246  ARG246      0.2205
    132  NE        -5.3160   27.2030  -13.2670 N.pl3 246  ARG246     -0.0865
    133  CZ        -6.1990   27.8140  -12.4800 C.cat 246  ARG246      0.5346
    134  NH1       -7.0280   28.7200  -12.9850 N.pl3 246  ARG246      0.1354
    135  NH2       -6.2590   27.5180  -11.1870 N.pl3 246  ARG246      0.1354
    136  N         -9.5530   30.8130  -15.5480 N.3   248  THR248     -0.1218
    137  CA       -10.4860   30.4490  -14.4860 C.3   248  THR248      0.1862
    138  C        -11.8650   30.8600  -14.9670 C.2   248  THR248      0.2287
    139  O        -12.0530   32.0240  -15.3270 O.2   248  THR248     -0.2866
    140  CB       -10.1550   31.1810  -13.1820 C.3   248  THR248      0.1770
    141  OG1       -8.7900   30.9320  -12.8070 O.3   248  THR248     -0.2211
    142  CG2      -11.1440   30.7760  -12.0420 C.3   248  THR248      0.0375
    143  N        -10.2880   26.2150  -15.9090 N.3   274  GLU274     -0.1231
    144  CA       -10.7630   25.4590  -14.7570 C.3   274  GLU274      0.1684
    145  C        -11.8370   26.2210  -13.9950 C.2   274  GLU274      0.2434
    146  O        -11.8370   27.4560  -13.9850 O.2   274  GLU274     -0.2733
    147  CB        -9.5840   25.1520  -13.8120 C.3   274  GLU274      0.0402
    148  CG        -8.3750   24.5740  -14.5720 C.3   274  GLU274      0.1161
    149  CD        -7.1470   24.3280  -13.6960 C.2   274  GLU274      0.3649
    150  OE1       -6.0320   24.2590  -14.2790 O.co2 274  GLU274     -0.2457
    151  OE2       -7.2990   24.1910  -12.4470 O.co2 274  GLU274     -0.2457
    152  N        -12.7510   25.5140  -13.3260 N.am  275  PRO275     -0.2718
    153  CA       -13.7570   26.2130  -12.5120 C.3   275  PRO275      0.1535
    154  C        -13.1410   26.9210  -11.3040 C.2   275  PRO275      0.2598
    155  O        -12.1780   26.4460  -10.6920 O.2   275  PRO275     -0.2715
    156  CB       -14.7220   25.0950  -12.0870 C.3   275  PRO275      0.0310
    157  CG       -13.9400   23.8230  -12.1970 C.3   275  PRO275      0.0237
    158  CD       -12.9100   24.0450  -13.2900 C.3   275  PRO275      0.0939
    159  N        -13.7330   28.0700  -10.9590 N.am  276  VAL276     -0.1964
    160  CA       -13.3110   28.8550   -9.7970 C.3   276  VAL276      0.1727
    161  C        -13.3700   28.0240   -8.5170 C.2   276  VAL276      0.2616
    162  O        -14.3080   27.2450   -8.2900 O.2   276  VAL276     -0.2715
    163  CB       -14.1850   30.1170   -9.6630 C.3   276  VAL276      0.0290
    164  CG1      -15.6490   29.7310   -9.4670 C.3   276  VAL276      0.0023
    165  CG2      -13.7060   30.9920   -8.5120 C.3   276  VAL276      0.0023
    166  N        -12.3640   28.2110   -7.6630 N.am  277  VAL277     -0.1977
    167  CA       -12.2430   27.5220   -6.3770 C.3   277  VAL277      0.1596
    168  C        -12.6890   28.4530   -5.2510 C.2   277  VAL277      0.2287
    169  O        -12.3900   29.6560   -5.2720 O.2   277  VAL277     -0.2864
    170  CB       -10.7900   27.0590   -6.1530 C.3   277  VAL277      0.0276
    171  CG1      -10.5870   26.5610   -4.7250 C.3   277  VAL277      0.0022
    172  CG2      -10.3700   25.9890   -7.2210 C.3   277  VAL277      0.0022
    173  N         -2.2270   27.4540   -1.1070 N.3   353  HIS353     -0.1226
    174  CA        -2.4800   28.8820   -1.1970 C.3   353  HIS353      0.1752
    175  C         -3.9080   29.2440   -0.8010 C.2   353  HIS353      0.2595
    176  O         -4.1330   30.3600   -0.3520 O.2   353  HIS353     -0.2718
    177  CB        -2.1810   29.3840   -2.6120 C.3   353  HIS353      0.0759
    178  CG        -3.2590   29.0730   -3.5970 C.ar  353  HIS353      0.0818
    179  ND1       -4.1220   30.0320   -4.0790 N.ar  353  HIS353     -0.2268
    180  CD2       -3.6300   27.9080   -4.1740 C.ar  353  HIS353      0.1154
    181  CE1       -4.9670   29.4750   -4.9250 C.ar  353  HIS353      0.1986
    182  NE2       -4.6960   28.1840   -4.9970 N.ar  353  HIS353     -0.2212
    183  N         -4.8690   28.3340   -0.9170 N.am  354  GLN354     -0.1979
    184  CA        -6.2290   28.7270   -0.5650 C.3   354  GLN354      0.1601
    185  C         -6.4710   28.7730    0.9430 C.2   354  GLN354      0.2287
    186  O         -7.4840   29.3320    1.3780 O.2   354  GLN354     -0.2864
    187  CB        -7.2400   27.7920   -1.2330 C.3   354  GLN354      0.0394
    188  CG        -7.3300   27.9200   -2.7650 C.3   354  GLN354      0.0908
    189  CD        -8.1220   29.1520   -3.1920 C.2   354  GLN354      0.2608
    190  OE1       -8.8970   29.7010   -2.4150 O.2   354  GLN354     -0.2717
    191  NE2       -7.9320   29.5890   -4.4210 N.am  354  GLN354     -0.0878
@<TRIPOS>BOND
     1   108   109    2
     2   108   107    1
     3   106   107    1
     4   107   110    1
     5   125   126    1
     6   110   111    1
     7   103   102    2
     8   102   101    1
     9   126   127    1
    10   126   129    1
    11   127   128    2
    12   100   101    1
    13    88    87    2
    14   101   104    1
    15    95    94    1
    16    95    96    2
    17   111   112   ar
    18   111   113   ar
    19    94    93    1
    20    94    97    1
    21   129   130    1
    22   143   144    1
    23    87    86    1
    24    84    82    1
    25   136   137    1
    26   120   121    1
    27   120   119    1
    28   117   116    2
    29   139   138    2
    30    81    80    2
    31   104   105    1
    32    98    97    1
    33   121   122    2
    34    97    99    1
    35   138   137    1
    36   118   119    1
    37   118   115    1
    38   130   131    1
    39   144   145    1
    40   144   147    1
    41   131   132    1
    42    86    85    1
    43    86    89    1
    44   148   147    1
    45   148   149    1
    46   137   140    1
    47   114   115    1
    48    80    85   am
    49    80    79    1
    50   116   115    1
    51    83    82    1
    52   150   149   ar
    53    82    79    1
    54   145   146    2
    55   145   152   am
    56    91    90    2
    57   122   123    1
    58   122   124    1
    59    89    90    1
    60   149   151   ar
    61    79    78    1
    62    78    73   am
    63    90    92   am
    64   152   158    1
    65   152   153    1
    66   158   157    1
    67   132   133    2
    68    18    17    1
    69   140   141    1
    70   140   142    1
    71   134   133    1
    72    72    73    1
    73    72    71    1
    74    72    75    1
    75   153   156    1
    76   153   154    1
    77    73    74    2
    78   133   135    1
    79    16    17   ar
    80    16    14   ar
    81    17    15   ar
    82   157   156    1
    83    77    75    1
    84    63    61   ar
    85    75    76    1
    86    62    61   ar
    87    61    60    1
    88   154   159   am
    89   154   155    2
    90    14    12   ar
    91   159   160    1
    92    15    13   ar
    93    60    59    1
    94    12    13   ar
    95    12    11    1
    96   160   163    1
    97   160   161    1
    98   163   164    1
    99   163   165    1
   100    69    70    1
   101    69    68    1
   102    59    56    1
   103    70    64    1
   104     6     5    1
   105    66    67    2
   106    66    65    1
   107    11     8    1
   108    68    65    1
   109    56    57    1
   110    56    55    1
   111    64    57   am
   112    64    65    1
   113   161   162    2
   114   161   166   am
   115     7     8    1
   116    57    58    2
   117    44    42   ar
   118    44    46   ar
   119    42    41   ar
   120     8     9    1
   121   166   167    1
   122     3     2    1
   123     3     4    2
   124    54    53    2
   125    55    53   am
   126   172   170    1
   127     5     2    1
   128    46    45   ar
   129    53    52    1
   130     2     1    1
   131    36    37    1
   132    23    24    1
   133    23    20    1
   134     9    19   am
   135     9    10    2
   136    37    40    1
   137    37    38    1
   138    19    20    1
   139    41    40    1
   140    41    43   ar
   141   167   170    1
   142   167   168    1
   143    20    21    1
   144   170   171    1
   145    38    39    2
   146    38    47   am
   147    45    43   ar
   148    52    51    1
   149    47    48    1
   150   169   168    2
   151    50    49    2
   152   182   181   ar
   153   182   180   ar
   154   181   179   ar
   155    49    51   am
   156    49    48    1
   157    21    22    2
   158    21    25   am
   159   191   189   am
   160   180   178   ar
   161   179   178   ar
   162    33    31   ar
   163    33    35   ar
   164    25    26    1
   165    31    30   ar
   166   178   177    1
   167    35    34   ar
   168   189   188    1
   169   189   190    2
   170   188   187    1
   171   177   174    1
   172    26    27    1
   173    26    29    1
   174    30    29    1
   175    30    32   ar
   176    27    28    2
   177    34    32   ar
   178   187   184    1
   179   174   173    1
   180   174   175    1
   181   183   175   am
   182   183   184    1
   183   175   176    2
   184   184   185    1
   185   185   186    2
