@<TRIPOS>MOLECULE
tmp/5wgiA01.pdb
 96 94 0 0 0
SMALL
GASTEIGER

@<TRIPOS>ATOM
      1  N          3.7620   14.9240    9.8350 N.3    22  ASN22      -0.1240
      2  CA         4.7390   15.9600   10.1520 C.3    22  ASN22       0.1653
      3  C          4.7470   16.1030   11.6660 C.2    22  ASN22       0.2266
      4  O          3.7960   16.6210   12.2490 O.2    22  ASN22      -0.2867
      5  CB         4.3460   17.2580    9.4640 C.3    22  ASN22       0.1155
      6  CG         5.3970   18.3040    9.6330 C.2    22  ASN22       0.2627
      7  OD1        5.9630   18.4500   10.7150 O.2    22  ASN22      -0.2716
      8  ND2        5.7100   19.0210    8.5710 N.am   22  ASN22      -0.0877
      9  N          6.3730   17.9490   13.6240 N.3    24  TRP24      -0.1227
     10  CA         6.5630   19.2960   14.1310 C.3    24  TRP24       0.1737
     11  C          5.3600   20.1830   13.8720 C.2    24  TRP24       0.2595
     12  O          5.2060   21.2120   14.5350 O.2    24  TRP24      -0.2718
     13  CB         7.8260   19.8970   13.4860 C.3    24  TRP24       0.0564
     14  CG         9.0240   18.9750   13.6660 C.ar   24  TRP24       0.0003
     15  CD1        9.8110   18.8660   14.7760 C.ar   24  TRP24       0.0946
     16  CD2        9.5240   17.9920   12.7330 C.ar   24  TRP24       0.0152
     17  NE1       10.7720   17.8850   14.5830 N.ar   24  TRP24      -0.2442
     18  CE2       10.6100   17.3380   13.3420 C.ar   24  TRP24       0.0810
     19  CE3        9.1600   17.6130   11.4410 C.ar   24  TRP24       0.0012
     20  CZ2       11.3150   16.3210   12.7120 C.ar   24  TRP24       0.0191
     21  CZ3        9.8630   16.6020   10.8210 C.ar   24  TRP24       0.0001
     22  CH2       10.9300   15.9700   11.4540 C.ar   24  TRP24       0.0015
     23  N          4.5080   19.8110   12.9210 N.am   25  ASP25      -0.1974
     24  CA         3.4460   20.7010   12.4520 C.3    25  ASP25       0.1709
     25  C          2.2380   19.8500   12.0800 C.2    25  ASP25       0.2293
     26  O          2.1340   19.3640   10.9460 O.2    25  ASP25      -0.2864
     27  CB         3.8980   21.5290   11.2630 C.3    25  ASP25       0.1436
     28  CG         2.8140   22.4520   10.7530 C.2    25  ASP25       0.3671
     29  OD1        1.7560   22.5720   11.4140 O.co2  25  ASP25      -0.2456
     30  OD2        3.0300   23.0750    9.6980 O.co2  25  ASP25      -0.2456
     31  N          0.3600   20.8480    8.8110 N.3    28  HIS28      -0.1241
     32  CA         0.9280   20.8170    7.4800 C.3    28  HIS28       0.1621
     33  C         -0.1500   20.3350    6.5120 C.2    28  HIS28       0.2264
     34  O         -0.8720   19.3940    6.8320 O.2    28  HIS28      -0.2867
     35  CB         2.1200   19.8600    7.4450 C.3    28  HIS28       0.0745
     36  CG         2.8460   19.8840    6.1440 C.ar   28  HIS28       0.0817
     37  ND1        2.3360   19.3300    4.9840 N.ar   28  HIS28      -0.2268
     38  CD2        4.0300   20.4520    5.8120 C.ar   28  HIS28       0.1154
     39  CE1        3.1920   19.5530    4.0010 C.ar   28  HIS28       0.1986
     40  NE2        4.2310   20.2230    4.4770 N.ar   28  HIS28      -0.2212
     41  N         14.4960   15.4540   10.7420 N.3    88  ASN88      -0.1240
     42  CA        14.4180   16.8490   10.3430 C.3    88  ASN88       0.1653
     43  C         15.5480   17.2000    9.3870 C.2    88  ASN88       0.2266
     44  O         15.3250   17.8230    8.3370 O.2    88  ASN88      -0.2867
     45  CB        14.4350   17.7680   11.5600 C.3    88  ASN88       0.1155
     46  CG        14.2770   19.2100   11.1500 C.2    88  ASN88       0.2627
     47  OD1       13.2490   19.5920   10.6030 O.2    88  ASN88      -0.2716
     48  ND2       15.3250   19.9880   11.3100 N.am   88  ASN88      -0.0877
     49  N         14.9630   15.4790    5.9590 N.3    91  GLY91      -0.1210
     50  CA        13.9410   16.1460    5.1790 C.3    91  GLY91       0.1956
     51  C         14.4320   17.4470    4.5780 C.2    91  GLY91       0.2611
     52  O         14.0830   17.7910    3.4450 O.2    91  GLY91      -0.2717
     53  N         15.2870   18.1610    5.3070 N.am   92  ASP92      -0.1973
     54  CA        15.8290   19.4140    4.8010 C.3    92  ASP92       0.1709
     55  C         16.8060   19.2380    3.6500 C.2    92  ASP92       0.2293
     56  O         17.1660   20.2380    3.0140 O.2    92  ASP92      -0.2864
     57  CB        16.5450   20.1610    5.9190 C.3    92  ASP92       0.1436
     58  CG        15.5990   20.8050    6.8860 C.2    92  ASP92       0.3671
     59  OD1       14.3710   20.7120    6.6700 O.co2  92  ASP92      -0.2456
     60  OD2       16.0940   21.4070    7.8660 O.co2  92  ASP92      -0.2456
     61  N         10.8770   20.6090   -0.0250 N.3    96  SER96      -0.1202
     62  CA         9.5070   20.4380    0.4570 C.3    96  SER96       0.2020
     63  C          9.1810   18.9920    0.8320 C.2    96  SER96       0.2619
     64  O          8.2470   18.3930    0.3000 O.2    96  SER96      -0.2717
     65  CB         8.5120   20.9840   -0.5660 C.3    96  SER96       0.2103
     66  OG         8.7990   22.3350   -0.8610 O.3    96  SER96      -0.2182
     67  N          9.9270   18.4730    1.8120 N.am   97  ILE97      -0.1965
     68  CA         9.7130   17.1400    2.3510 C.3    97  ILE97       0.1727
     69  C          9.7450   17.1930    3.8630 C.2    97  ILE97       0.2616
     70  O         10.6480   17.7950    4.4480 O.2    97  ILE97      -0.2715
     71  CB        10.8060   16.1760    1.8500 C.3    97  ILE97       0.0290
     72  CG1       10.6180   15.8480    0.3680 C.3    97  ILE97       0.0022
     73  CG2       10.8760   14.9070    2.7060 C.3    97  ILE97       0.0023
     74  CD1        9.4680   14.9100    0.0970 C.3    97  ILE97       0.0001
     75  N          8.7830   16.5160    4.4940 N.am   98  PHE98      -0.1974
     76  CA         8.8600   16.1480    5.8970 C.3    98  PHE98       0.1639
     77  C          8.8300   14.6300    6.0090 C.2    98  PHE98       0.2290
     78  O          8.2360   13.9380    5.1730 O.2    98  PHE98      -0.2864
     79  CB         7.7220   16.7560    6.7590 C.3    98  PHE98       0.0560
     80  CG         6.3510   16.2770    6.3700 C.ar   98  PHE98      -0.0200
     81  CD1        5.8480   15.1190    6.8950 C.ar   98  PHE98      -0.0042
     82  CD2        5.5930   16.9770    5.4560 C.ar   98  PHE98      -0.0042
     83  CE1        4.5950   14.6640    6.5170 C.ar   98  PHE98      -0.0003
     84  CE2        4.3530   16.5320    5.0640 C.ar   98  PHE98      -0.0003
     85  CZ         3.8480   15.3640    5.6040 C.ar   98  PHE98      -0.0000
     86  N          6.6170   16.5670   -1.2050 N.3   148  PHE148     -0.1241
     87  CA         5.7840   15.6860   -0.4110 C.3   148  PHE148      0.1605
     88  C          5.8430   14.2440   -0.9110 C.2   148  PHE148      0.2264
     89  O          5.1530   13.3700   -0.3340 O.2   148  PHE148     -0.2867
     90  CB         4.3140   16.1260   -0.3140 C.3   148  PHE148      0.0534
     91  CG         4.0680   17.5750    0.0580 C.ar  148  PHE148     -0.0203
     92  CD1        4.9790   18.3430    0.7490 C.ar  148  PHE148     -0.0042
     93  CD2        2.8650   18.1640   -0.3180 C.ar  148  PHE148     -0.0042
     94  CE1        4.6710   19.6760    1.0450 C.ar  148  PHE148     -0.0003
     95  CE2        2.5560   19.4600   -0.0030 C.ar  148  PHE148     -0.0003
     96  CZ         3.4540   20.2190    0.6600 C.ar  148  PHE148     -0.0000
@<TRIPOS>BOND
     1    86    87    1
     2    88    87    1
     3    88    89    2
     4    66    65    1
     5    65    62    1
     6    87    90    1
     7    93    95   ar
     8    93    91   ar
     9    90    91    1
    10    61    62    1
    11    95    96   ar
    12    91    92   ar
    13    74    72    1
    14    64    63    2
    15    72    71    1
    16    62    63    1
    17    96    94   ar
    18    92    94   ar
    19    63    67   am
    20    67    68    1
    21    71    68    1
    22    71    73    1
    23    68    69    1
    24    56    55    2
    25    52    51    2
    26    55    54    1
    27    69    70    2
    28    69    75   am
    29    39    40   ar
    30    39    37   ar
    31    40    38   ar
    32    75    76    1
    33    51    50    1
    34    51    53   am
    35    54    53    1
    36    54    57    1
    37    37    36   ar
    38    84    82   ar
    39    84    85   ar
    40    78    77    2
    41    50    49    1
    42    82    80   ar
    43    85    83   ar
    44    38    36   ar
    45    76    77    1
    46    76    79    1
    47    57    58    1
    48    36    35    1
    49    80    79    1
    50    80    81   ar
    51    33    34    2
    52    33    32    1
    53    83    81   ar
    54    59    58   ar
    55    58    60   ar
    56    35    32    1
    57    32    31    1
    58    44    43    2
    59     8     6   am
    60    43    42    1
    61     5     6    1
    62     5     2    1
    63     6     7    2
    64    30    28   ar
    65     1     2    1
    66     2     3    1
    67    42    41    1
    68    42    45    1
    69    47    46    2
    70    28    27    1
    71    28    29   ar
    72    21    19   ar
    73    21    22   ar
    74    26    25    2
    75    46    48   am
    76    46    45    1
    77    27    24    1
    78    19    16   ar
    79    22    20   ar
    80     3     4    2
    81    25    24    1
    82    24    23    1
    83    20    18   ar
    84    16    18   ar
    85    16    14   ar
    86    23    11   am
    87    18    17   ar
    88    13    14    1
    89    13    10    1
    90     9    10    1
    91    14    15   ar
    92    11    10    1
    93    11    12    2
    94    17    15   ar
