@<TRIPOS>MOLECULE
tmp/5wgkA00.pdb
 158 154 0 0 0
SMALL
GASTEIGER

@<TRIPOS>ATOM
      1  N        -15.8570    0.1530   37.5040 N.3    19  ASP19      -0.1239
      2  CA       -15.9280    0.8200   36.2010 C.3    19  ASP19       0.1674
      3  C        -16.6590   -0.1480   35.2730 C.2    19  ASP19       0.2266
      4  O        -16.0440   -1.0230   34.6580 O.2    19  ASP19      -0.2867
      5  CB       -14.5340    1.1650   35.6990 C.3    19  ASP19       0.1410
      6  CG       -14.5280    1.7630   34.3090 C.2    19  ASP19       0.3668
      7  OD1      -15.5970    2.1610   33.7960 O.co2  19  ASP19      -0.2456
      8  OD2      -13.4290    1.8230   33.7280 O.co2  19  ASP19      -0.2456
      9  N        -17.7980    0.3080   32.4710 N.3    21  HIS21      -0.1226
     10  CA       -17.4610    0.5180   31.0680 C.3    21  HIS21       0.1752
     11  C        -16.0440    0.0770   30.7180 C.2    21  HIS21       0.2596
     12  O        -15.5930    0.3210   29.5920 O.2    21  HIS21      -0.2718
     13  CB       -17.6550    1.9870   30.6960 C.3    21  HIS21       0.0759
     14  CG       -19.0490    2.4780   30.9220 C.ar   21  HIS21       0.0818
     15  ND1      -20.1550    1.8460   30.3920 N.ar   21  HIS21      -0.2268
     16  CD2      -19.5220    3.5270   31.6360 C.ar   21  HIS21       0.1154
     17  CE1      -21.2480    2.4880   30.7630 C.ar   21  HIS21       0.1986
     18  NE2      -20.8920    3.5110   31.5200 N.ar   21  HIS21      -0.2212
     19  N        -15.3270   -0.5350   31.6550 N.am   22  HIS22      -0.1962
     20  CA       -14.0240   -1.1010   31.3450 C.3    22  HIS22       0.1772
     21  C        -14.1320   -1.9980   30.1070 C.2    22  HIS22       0.2462
     22  O        -15.0900   -2.7720   29.9890 O.2    22  HIS22      -0.2730
     23  CB       -13.5130   -1.9080   32.5350 C.3    22  HIS22       0.0785
     24  CG       -12.1210   -2.4240   32.3610 C.ar   22  HIS22       0.0821
     25  ND1      -11.8070   -3.4410   31.4860 N.ar   22  HIS22      -0.2267
     26  CD2      -10.9630   -2.0720   32.9640 C.ar   22  HIS22       0.1154
     27  CE1      -10.5100   -3.6840   31.5480 C.ar   22  HIS22       0.1986
     28  NE2       -9.9760   -2.8710   32.4420 N.ar   22  HIS22      -0.2212
     29  N        -13.1760   -1.9250   29.1750 N.am   23  PRO23      -0.2727
     30  CA       -13.3680   -2.5910   27.8650 C.3    23  PRO23       0.1402
     31  C        -13.4080   -4.1110   27.9090 C.2    23  PRO23       0.2269
     32  O        -13.9450   -4.7100   26.9710 O.2    23  PRO23      -0.2865
     33  CB       -12.1700   -2.1040   27.0400 C.3    23  PRO23       0.0296
     34  CG       -11.1480   -1.6440   28.0640 C.3    23  PRO23       0.0237
     35  CD       -11.9570   -1.0990   29.2070 C.3    23  PRO23       0.0939
     36  N         -2.6150   -3.7750   35.5840 N.3    90  SER90      -0.1217
     37  CA        -3.8620   -3.7650   34.8050 C.3    90  SER90       0.1889
     38  C         -4.7270   -5.0020   35.0730 C.2    90  SER90       0.2288
     39  O         -5.0020   -5.8110   34.1820 O.2    90  SER90      -0.2866
     40  CB        -3.5470   -3.6320   33.3110 C.3    90  SER90       0.2089
     41  OG        -2.6670   -2.5370   33.0860 O.3    90  SER90      -0.2183
     42  N         -9.1930  -13.3410   29.5460 N.3   130  PRO130     -0.2116
     43  CA        -8.0830  -13.8450   28.7220 C.3   130  PRO130      0.1372
     44  C         -6.9430  -14.4230   29.5530 C.2   130  PRO130      0.2244
     45  O         -6.9750  -14.3980   30.7930 O.2   130  PRO130     -0.2868
     46  CB        -7.6400  -12.6020   27.9340 C.3   130  PRO130      0.0268
     47  CG        -8.0150  -11.4330   28.8580 C.3   130  PRO130      0.0207
     48  CD        -9.3190  -11.8710   29.4780 C.3   130  PRO130      0.0892
     49  N         -3.0980  -14.6790   28.0370 N.3   132  HIS132     -0.1226
     50  CA        -1.7050  -14.7510   27.5830 C.3   132  HIS132      0.1752
     51  C         -0.7440  -13.7950   28.3010 C.2   132  HIS132      0.2596
     52  O          0.4700  -13.9660   28.1630 O.2   132  HIS132     -0.2718
     53  CB        -1.6070  -14.5580   26.0470 C.3   132  HIS132      0.0759
     54  CG        -1.9560  -13.1810   25.5520 C.ar  132  HIS132      0.0818
     55  ND1       -1.4160  -12.6620   24.3920 N.ar  132  HIS132     -0.2268
     56  CD2       -2.7990  -12.2340   26.0300 C.ar  132  HIS132      0.1154
     57  CE1       -1.8940  -11.4460   24.1880 C.ar  132  HIS132      0.1986
     58  NE2       -2.7370  -11.1620   25.1650 N.ar  132  HIS132     -0.2212
     59  N         -1.2290  -12.8130   29.0680 N.am  133  HIS133     -0.1975
     60  CA        -0.3270  -12.0010   29.8790 C.3   133  HIS133      0.1656
     61  C         -0.0150  -12.6380   31.2250 C.2   133  HIS133      0.2291
     62  O          0.8940  -12.1650   31.9140 O.2   133  HIS133     -0.2864
     63  CB        -0.9090  -10.5960   30.1290 C.3   133  HIS133      0.0771
     64  CG        -1.0280   -9.7600   28.8900 C.ar  133  HIS133      0.0820
     65  ND1        0.0500   -9.4890   28.0710 N.ar  133  HIS133     -0.2267
     66  CD2       -2.0960   -9.1550   28.3180 C.ar  133  HIS133      0.1154
     67  CE1       -0.3500   -8.7500   27.0490 C.ar  133  HIS133      0.1986
     68  NE2       -1.6480   -8.5330   27.1750 N.ar  133  HIS133     -0.2212
     69  N         -2.5570   -7.7220   32.9490 N.3   141  GLY141     -0.1210
     70  CA        -3.2150   -7.3680   31.7020 C.3   141  GLY141      0.1956
     71  C         -4.5310   -8.0770   31.4520 C.2   141  GLY141      0.2612
     72  O         -4.7470   -8.6320   30.3690 O.2   141  GLY141     -0.2717
     73  N         -5.4160   -8.0590   32.4500 N.am  142  PHE142     -0.1962
     74  CA        -6.7590   -8.6350   32.4320 C.3   142  PHE142      0.1771
     75  C         -6.7280  -10.1610   32.5260 C.2   142  PHE142      0.2619
     76  O         -7.7950  -10.7820   32.4460 O.2   142  PHE142     -0.2715
     77  CB        -7.5920   -8.2650   31.1800 C.3   142  PHE142      0.0574
     78  CG        -7.5610   -6.7920   30.7800 C.ar  142  PHE142     -0.0200
     79  CD1       -7.2330   -5.7860   31.6800 C.ar  142  PHE142     -0.0042
     80  CD2       -7.8960   -6.4240   29.4770 C.ar  142  PHE142     -0.0042
     81  CE1       -7.2140   -4.4380   31.2880 C.ar  142  PHE142     -0.0003
     82  CE2       -7.8870   -5.0760   29.0770 C.ar  142  PHE142     -0.0003
     83  CZ        -7.5400   -4.0870   29.9930 C.ar  142  PHE142     -0.0000
     84  N         -5.5520  -10.7830   32.6950 N.am  143  CYS143     -0.1968
     85  CA        -5.3760  -12.2370   32.6410 C.3   143  CYS143      0.1712
     86  C         -4.9820  -12.7920   34.0050 C.2   143  CYS143      0.2296
     87  O         -4.0590  -12.2840   34.6430 O.2   143  CYS143     -0.2864
     88  CB        -4.2740  -12.6410   31.6500 C.3   143  CYS143      0.0983
     89  SG        -4.4860  -12.0190   29.9630 S.3   143  CYS143     -0.0798
     90  N         -3.1360  -11.8440   18.9720 N.3   171  ASP171     -0.1239
     91  CA        -3.5230  -10.6920   19.7740 C.3   171  ASP171      0.1674
     92  C         -2.5440   -9.5580   19.5080 C.2   171  ASP171      0.2266
     93  O         -1.3570   -9.7980   19.2810 O.2   171  ASP171     -0.2867
     94  CB        -3.5270  -11.0920   21.2600 C.3   171  ASP171      0.1410
     95  CG        -4.1080  -10.0170   22.1700 C.2   171  ASP171      0.3668
     96  OD1       -3.3970   -9.0100   22.4360 O.co2 171  ASP171     -0.2456
     97  OD2       -5.2440  -10.2220   22.6670 O.co2 171  ASP171     -0.2456
     98  N         -1.2520   -7.5400   21.4320 N.3   173  HIS173     -0.1241
     99  CA        -0.2640   -7.3880   22.4930 C.3   173  HIS173      0.1621
    100  C          0.6330   -8.6150   22.5760 C.2   173  HIS173      0.2264
    101  O          0.2220   -9.7300   22.2510 O.2   173  HIS173     -0.2867
    102  CB        -0.9410   -7.1700   23.8500 C.3   173  HIS173      0.0745
    103  CG        -1.8520   -5.9880   23.8840 C.ar  173  HIS173      0.0817
    104  ND1       -3.2130   -6.0890   23.6950 N.ar  173  HIS173     -0.2268
    105  CD2       -1.5920   -4.6700   24.0640 C.ar  173  HIS173      0.1154
    106  CE1       -3.7560   -4.8860   23.7750 C.ar  173  HIS173      0.1986
    107  NE2       -2.7950   -4.0070   23.9950 N.ar  173  HIS173     -0.2212
    108  N          1.7720   -1.4520   25.4050 N.3   202  PHE202     -0.1241
    109  CA         1.6090   -2.4730   26.4490 C.3   202  PHE202      0.1605
    110  C          2.0200   -3.8680   25.9150 C.2   202  PHE202      0.2264
    111  O          1.6590   -4.2170   24.7830 O.2   202  PHE202     -0.2867
    112  CB         0.1570   -2.4790   26.9250 C.3   202  PHE202      0.0534
    113  CG        -0.0910   -3.3850   28.0910 C.ar  202  PHE202     -0.0203
    114  CD1        0.0790   -2.9240   29.3880 C.ar  202  PHE202     -0.0042
    115  CD2       -0.4740   -4.6980   27.8900 C.ar  202  PHE202     -0.0042
    116  CE1       -0.1450   -3.7610   30.4640 C.ar  202  PHE202     -0.0003
    117  CE2       -0.6860   -5.5370   28.9770 C.ar  202  PHE202     -0.0003
    118  CZ        -0.5220   -5.0570   30.2480 C.ar  202  PHE202     -0.0000
    119  N          5.0000   -3.1250   27.4440 N.3   204  ASN204     -0.1240
    120  CA         6.0760   -2.1530   27.6910 C.3   204  ASN204      0.1653
    121  C          7.3950   -2.8010   28.1070 C.2   204  ASN204      0.2266
    122  O          8.1350   -2.2400   28.9110 O.2   204  ASN204     -0.2867
    123  CB         5.6580   -1.1180   28.7440 C.3   204  ASN204      0.1155
    124  CG         4.3610   -0.4480   28.3990 C.2   204  ASN204      0.2627
    125  OD1        3.3120   -0.7800   28.9450 O.2   204  ASN204     -0.2716
    126  ND2        4.4190    0.4840   27.4610 N.am  204  ASN204     -0.0877
    127  N         -7.9240   -7.7600   19.0230 N.3   264  ASP264     -0.1239
    128  CA        -7.6940   -6.3450   19.2440 C.3   264  ASP264      0.1674
    129  C         -6.7520   -5.7280   18.2220 C.2   264  ASP264      0.2266
    130  O         -6.4960   -4.5240   18.3080 O.2   264  ASP264     -0.2867
    131  CB        -7.1860   -6.0540   20.6780 C.3   264  ASP264      0.1410
    132  CG        -6.1900   -7.0820   21.2090 C.2   264  ASP264      0.3668
    133  OD1       -5.7090   -7.9690   20.4560 O.co2 264  ASP264     -0.2456
    134  OD2       -5.8810   -6.9740   22.4280 O.co2 264  ASP264     -0.2456
    135  N         -8.2120   -0.0500   21.4090 N.3   271  LEU271     -0.1245
    136  CA        -6.9720   -0.2630   22.1410 C.3   271  LEU271      0.1561
    137  C         -5.8190   -0.6430   21.2260 C.2   271  LEU271      0.2260
    138  O         -4.6700   -0.2890   21.5060 O.2   271  LEU271     -0.2867
    139  CB        -7.1630   -1.3550   23.1990 C.3   271  LEU271      0.0270
    140  CG        -7.5400   -0.8660   24.5950 C.3   271  LEU271      0.0019
    141  CD1       -8.6820    0.1160   24.5330 C.3   271  LEU271      0.0001
    142  CD2       -7.8930   -2.0260   25.4830 C.3   271  LEU271      0.0001
    143  N         -7.7700  -11.1660   23.8140 N.3   302  GLY302     -0.1225
    144  CA        -8.3290   -9.8280   23.8500 C.3   302  GLY302      0.1811
    145  C         -9.2160   -9.5130   22.6530 C.2   302  GLY302      0.2280
    146  O         -9.6630  -10.3910   21.9120 O.2   302  GLY302     -0.2866
    147  N        -11.7180   -5.7050   21.7380 N.3   304  TYR304     -0.1241
    148  CA       -12.5970   -4.8640   22.5400 C.3   304  TYR304      0.1605
    149  C        -13.6680   -4.1050   21.7730 C.2   304  TYR304      0.2264
    150  O        -14.5090   -3.4750   22.4180 O.2   304  TYR304     -0.2867
    151  CB       -11.7500   -3.8860   23.3680 C.3   304  TYR304      0.0534
    152  CG       -10.7620   -4.7060   24.1450 C.ar  304  TYR304     -0.0201
    153  CD1      -11.1700   -5.4270   25.2600 C.ar  304  TYR304     -0.0009
    154  CD2       -9.4490   -4.8590   23.7010 C.ar  304  TYR304     -0.0009
    155  CE1      -10.2940   -6.2330   25.9510 C.ar  304  TYR304      0.0417
    156  CE2       -8.5520   -5.6650   24.3910 C.ar  304  TYR304      0.0417
    157  CZ        -8.9870   -6.3480   25.5130 C.ar  304  TYR304      0.1957
    158  OH        -8.1220   -7.1570   26.2090 O.3   304  TYR304     -0.2866
@<TRIPOS>BOND
     1   129   130    2
     2   129   128    1
     3    90    91    1
     4   127   128    1
     5   128   131    1
     6    93    92    2
     7    92    91    1
     8    91    94    1
     9   133   132   ar
    10   131   132    1
    11   132   134   ar
    12   137   138    2
    13   137   136    1
    14    94    95    1
    15   135   136    1
    16    98    99    1
    17   147   148    1
    18   149   150    2
    19   149   148    1
    20   146   145    2
    21   136   139    1
    22    95    96   ar
    23    95    97   ar
    24   101   100    2
    25    99   100    1
    26    99   102    1
    27   148   151    1
    28   145   144    1
    29   139   140    1
    30   151   152    1
    31   104   106   ar
    32   104   103   ar
    33   154   152   ar
    34   154   156   ar
    35   106   107   ar
    36   143   144    1
    37   102   103    1
    38   103   105   ar
    39   107   105   ar
    40   152   153   ar
    41    57    55   ar
    42    57    58   ar
    43   156   157   ar
    44    55    54   ar
    45   141   140    1
    46   140   142    1
    47   111   110    2
    48    58    56   ar
    49   153   155   ar
    50   108   109    1
    51   157   155   ar
    52   157   158    1
    53    54    56   ar
    54    54    53    1
    55   110   109    1
    56    53    50    1
    57   109   112    1
    58   112   113    1
    59    32    31    2
    60    33    30    1
    61    33    34    1
    62    67    68   ar
    63    67    65   ar
    64    68    66   ar
    65   119   120    1
    66   126   124   am
    67    50    49    1
    68    50    51    1
    69   120   121    1
    70   120   123    1
    71    30    31    1
    72    30    29    1
    73   115   113   ar
    74   115   117   ar
    75    46    43    1
    76    46    47    1
    77    34    35    1
    78    65    64   ar
    79   113   114   ar
    80   121   122    2
    81    52    51    2
    82    51    59   am
    83    66    64   ar
    84   124   123    1
    85   124   125    2
    86    43    42    1
    87    43    44    1
    88    47    48    1
    89    64    63    1
    90   117   118   ar
    91    59    60    1
    92    82    80   ar
    93    82    83   ar
    94    29    35    1
    95    29    21   am
    96   114   116   ar
    97    80    78   ar
    98    48    42    1
    99    44    45    2
   100    12    11    2
   101    60    63    1
   102    60    61    1
   103    89    88    1
   104    22    21    2
   105    83    81   ar
   106    21    20    1
   107   118   116   ar
   108    72    71    2
   109    15    17   ar
   110    15    14   ar
   111    13    14    1
   112    13    10    1
   113    11    10    1
   114    11    19   am
   115    17    18   ar
   116    78    77    1
   117    78    79   ar
   118    14    16   ar
   119    10     9    1
   120    77    74    1
   121    61    62    2
   122    81    79   ar
   123    20    19    1
   124    20    23    1
   125    71    70    1
   126    71    73   am
   127    25    27   ar
   128    25    24   ar
   129    18    16   ar
   130    27    28   ar
   131    88    85    1
   132    70    69    1
   133    24    23    1
   134    24    26   ar
   135    74    73    1
   136    74    75    1
   137    28    26   ar
   138    76    75    2
   139    75    84   am
   140    85    84    1
   141    85    86    1
   142    41    40    1
   143    40    37    1
   144     8     6   ar
   145     7     6   ar
   146    86    87    2
   147    39    38    2
   148     6     5    1
   149     4     3    2
   150    37    38    1
   151    37    36    1
   152     3     2    1
   153     5     2    1
   154     2     1    1
