@<TRIPOS>MOLECULE
tmp/5wglA00.pdb
 157 155 0 0 0
SMALL
GASTEIGER

@<TRIPOS>ATOM
      1  N         -6.1160  -40.3810  -40.8430 N.3    20  ASP20      -0.1239
      2  CA        -6.4450  -40.5610  -39.4220 C.3    20  ASP20       0.1674
      3  C         -7.4040  -39.4540  -38.9590 C.2    20  ASP20       0.2266
      4  O         -6.9500  -38.4460  -38.3920 O.2    20  ASP20      -0.2867
      5  CB        -5.1300  -40.5480  -38.5950 C.3    20  ASP20       0.1410
      6  CG        -5.3070  -41.0040  -37.1390 C.2    20  ASP20       0.3668
      7  OD1       -6.1920  -41.8470  -36.8620 O.co2  20  ASP20      -0.2456
      8  OD2       -4.5370  -40.5310  -36.2530 O.co2  20  ASP20      -0.2456
      9  N         -9.5750  -39.0000  -36.6190 N.3    22  HIS22      -0.1226
     10  CA        -9.7200  -38.7120  -35.1930 C.3    22  HIS22       0.1752
     11  C         -8.4200  -38.2080  -34.5220 C.2    22  HIS22       0.2596
     12  O         -8.3730  -38.1430  -33.2870 O.2    22  HIS22      -0.2718
     13  CB       -10.2620  -39.9570  -34.4430 C.3    22  HIS22       0.0759
     14  CG       -11.6410  -40.3870  -34.8770 C.ar   22  HIS22       0.0818
     15  ND1      -12.7870  -39.9830  -34.2270 N.ar   22  HIS22      -0.2268
     16  CD2      -12.0530  -41.1880  -35.8910 C.ar   22  HIS22       0.1154
     17  CE1      -13.8460  -40.5150  -34.8180 C.ar   22  HIS22       0.1986
     18  NE2      -13.4280  -41.2470  -35.8340 N.ar   22  HIS22      -0.2212
     19  N         -7.3870  -37.8290  -35.2960 N.am   23  HIS23      -0.1962
     20  CA        -6.1650  -37.2100  -34.7560 C.3    23  HIS23       0.1772
     21  C         -6.5300  -35.9910  -33.8920 C.2    23  HIS23       0.2462
     22  O         -7.4200  -35.2110  -34.2730 O.2    23  HIS23      -0.2730
     23  CB        -5.2380  -36.7950  -35.9230 C.3    23  HIS23       0.0785
     24  CG        -3.8860  -36.2690  -35.5050 C.ar   23  HIS23       0.0821
     25  ND1       -3.7130  -35.0280  -34.9230 N.ar   23  HIS23      -0.2267
     26  CD2       -2.6390  -36.7970  -35.6400 C.ar   23  HIS23       0.1154
     27  CE1       -2.4230  -34.8250  -34.6920 C.ar   23  HIS23       0.1986
     28  NE2       -1.7470  -35.8810  -35.1250 N.ar   23  HIS23      -0.2212
     29  N         -5.8730  -35.7880  -32.7330 N.am   24  PRO24      -0.2727
     30  CA        -6.3700  -34.7870  -31.7420 C.3    24  PRO24       0.1402
     31  C         -6.3550  -33.3010  -32.1820 C.2    24  PRO24       0.2269
     32  O         -7.1490  -32.5050  -31.6250 O.2    24  PRO24      -0.2865
     33  CB        -5.4480  -35.0080  -30.5220 C.3    24  PRO24       0.0296
     34  CG        -4.2360  -35.7300  -31.0400 C.3    24  PRO24       0.0237
     35  CD        -4.7670  -36.6100  -32.1890 C.3    24  PRO24       0.0939
     36  N          6.3690  -36.0980  -35.9940 N.3    91  SER91      -0.1217
     37  CA         4.9520  -35.8740  -35.6370 C.3    91  SER91       0.1889
     38  C          4.2800  -34.7270  -36.4200 C.2    91  SER91       0.2288
     39  O          3.8410  -33.7100  -35.8390 O.2    91  SER91      -0.2866
     40  CB         4.8310  -35.6620  -34.1150 C.3    91  SER91       0.2089
     41  OG         5.3090  -36.7940  -33.3740 O.3    91  SER91      -0.2183
     42  N         -0.8320  -24.8060  -34.7120 N.3   131  PRO131     -0.2116
     43  CA         0.0290  -24.1250  -33.7220 C.3   131  PRO131      0.1372
     44  C          1.4690  -23.8370  -34.1980 C.2   131  PRO131      0.2244
     45  O          1.8150  -24.1900  -35.3340 O.2   131  PRO131     -0.2868
     46  CB        -0.0030  -25.0980  -32.5260 C.3   131  PRO131      0.0268
     47  CG        -0.2520  -26.4920  -33.1550 C.3   131  PRO131      0.0207
     48  CD        -1.2170  -26.1860  -34.3030 C.3   131  PRO131      0.0892
     49  N          4.8330  -23.3030  -31.6000 N.3   133  HIS133     -0.1226
     50  CA         6.0340  -23.1640  -30.7480 C.3   133  HIS133      0.1752
     51  C          7.1070  -24.2680  -30.8820 C.2   133  HIS133      0.2596
     52  O          8.2350  -24.0400  -30.3980 O.2   133  HIS133     -0.2718
     53  CB         5.6350  -22.9320  -29.2510 C.3   133  HIS133      0.0759
     54  CG         5.0380  -24.1130  -28.4990 C.ar  133  HIS133      0.0818
     55  ND1        5.1200  -24.1980  -27.1200 N.ar  133  HIS133     -0.2268
     56  CD2        4.2840  -25.1760  -28.8930 C.ar  133  HIS133      0.1154
     57  CE1        4.4930  -25.2930  -26.7010 C.ar  133  HIS133      0.1986
     58  NE2        3.9680  -25.9020  -27.7590 N.ar  133  HIS133     -0.2212
     59  N          6.8600  -25.4080  -31.5660 N.am  134  HIS134     -0.1975
     60  CA         7.9380  -26.3850  -31.8310 C.3   134  HIS134      0.1656
     61  C          8.7140  -26.1330  -33.1390 C.2   134  HIS134      0.2291
     62  O          9.7610  -26.7840  -33.3460 O.2   134  HIS134     -0.2864
     63  CB         7.3860  -27.8510  -31.8780 C.3   134  HIS134      0.0771
     64  CG         6.7340  -28.3140  -30.6130 C.ar  134  HIS134      0.0820
     65  ND1        7.4160  -28.4530  -29.4210 N.ar  134  HIS134     -0.2267
     66  CD2        5.4480  -28.6840  -30.3620 C.ar  134  HIS134      0.1154
     67  CE1        6.5750  -28.8900  -28.4910 C.ar  134  HIS134      0.1986
     68  NE2        5.3710  -29.0150  -29.0340 N.ar  134  HIS134     -0.2212
     69  N          6.0810  -31.4550  -34.3480 N.3   142  GLY142     -0.1210
     70  CA         5.0310  -31.4420  -33.3170 C.3   142  GLY142      0.1956
     71  C          3.7260  -30.7080  -33.6470 C.2   142  GLY142      0.2612
     72  O          3.2400  -29.8900  -32.8430 O.2   142  GLY142     -0.2717
     73  N          3.1540  -30.9770  -34.8230 N.am  143  PHE143     -0.1962
     74  CA         1.9070  -30.3540  -35.3410 C.3   143  PHE143      0.1771
     75  C          2.1370  -28.8850  -35.8490 C.2   143  PHE143      0.2619
     76  O          1.1360  -28.2230  -36.2500 O.2   143  PHE143     -0.2715
     77  CB         0.7370  -30.3570  -34.3010 C.3   143  PHE143      0.0574
     78  CG         0.4580  -31.7170  -33.5460 C.ar  143  PHE143     -0.0200
     79  CD1        0.9550  -32.9650  -33.9600 C.ar  143  PHE143     -0.0042
     80  CD2       -0.3650  -31.7030  -32.3990 C.ar  143  PHE143     -0.0042
     81  CE1        0.6620  -34.1580  -33.2210 C.ar  143  PHE143     -0.0003
     82  CE2       -0.6820  -32.8630  -31.6760 C.ar  143  PHE143     -0.0003
     83  CZ        -0.1660  -34.1130  -32.0860 C.ar  143  PHE143     -0.0000
     84  N          3.3820  -28.3450  -35.8610 N.am  144  CYS144     -0.1968
     85  CA         3.7250  -26.9310  -36.1510 C.3   144  CYS144      0.1712
     86  C          4.5860  -26.7600  -37.4210 C.2   144  CYS144      0.2296
     87  O          5.5660  -27.4980  -37.6090 O.2   144  CYS144     -0.2864
     88  CB         4.5400  -26.3020  -34.9700 C.3   144  CYS144      0.0983
     89  SG         3.7690  -26.4070  -33.2610 S.3   144  CYS144     -0.0798
     90  N          1.4870  -23.3860  -22.2330 N.3   172  ASP172     -0.1239
     91  CA         1.2210  -24.7350  -22.7920 C.3   172  ASP172      0.1674
     92  C          1.9670  -25.7990  -21.9740 C.2   172  ASP172      0.2266
     93  O          3.0670  -25.5330  -21.4700 O.2   172  ASP172     -0.2867
     94  CB         1.6820  -24.7260  -24.2640 C.3   172  ASP172      0.1410
     95  CG         1.3170  -25.9950  -25.0710 C.2   172  ASP172      0.3668
     96  OD1        1.9000  -27.0850  -24.8420 O.co2 172  ASP172     -0.2456
     97  OD2        0.4310  -25.8750  -25.9610 O.co2 172  ASP172     -0.2456
     98  N          3.6180  -28.4410  -22.8720 N.3   174  HIS174     -0.1241
     99  CA         4.8670  -28.8890  -23.5150 C.3   174  HIS174      0.1621
    100  C          5.9190  -27.7510  -23.6160 C.2   174  HIS174      0.2264
    101  O          5.5710  -26.5680  -23.7160 O.2   174  HIS174     -0.2867
    102  CB         4.5730  -29.4410  -24.9430 C.3   174  HIS174      0.0745
    103  CG         3.5780  -30.5970  -25.0130 C.ar  174  HIS174      0.0817
    104  ND1        2.2300  -30.4400  -25.3050 N.ar  174  HIS174     -0.2268
    105  CD2        3.7760  -31.9350  -24.8850 C.ar  174  HIS174      0.1154
    106  CE1        1.6400  -31.6280  -25.3030 C.ar  174  HIS174      0.1986
    107  NE2        2.5600  -32.5550  -25.0620 N.ar  174  HIS174     -0.2212
    108  N          7.1820  -35.6280  -24.2450 N.3   203  PHE203     -0.1241
    109  CA         7.4160  -34.9130  -25.5140 C.3   203  PHE203      0.1605
    110  C          7.7660  -33.4360  -25.2530 C.2   203  PHE203      0.2264
    111  O          7.0440  -32.7650  -24.4960 O.2   203  PHE203     -0.2867
    112  CB         6.1740  -34.9860  -26.4370 C.3   203  PHE203      0.0534
    113  CG         6.4090  -34.4220  -27.8480 C.ar  203  PHE203     -0.0203
    114  CD1        6.8680  -35.2530  -28.8780 C.ar  203  PHE203     -0.0042
    115  CD2        6.2000  -33.0700  -28.1350 C.ar  203  PHE203     -0.0042
    116  CE1        7.1260  -34.7640  -30.1690 C.ar  203  PHE203     -0.0003
    117  CE2        6.4640  -32.5500  -29.4260 C.ar  203  PHE203     -0.0003
    118  CZ         6.9360  -33.4050  -30.4440 C.ar  203  PHE203     -0.0000
    119  N         -3.6230  -27.2330  -22.7780 N.3   265  ASP265     -0.1239
    120  CA        -3.4360  -28.6730  -22.4970 C.3   265  ASP265      0.1674
    121  C         -2.9010  -29.0040  -21.0820 C.2   265  ASP265      0.2266
    122  O         -2.7510  -30.2010  -20.7820 O.2   265  ASP265     -0.2867
    123  CB        -2.5640  -29.3810  -23.5900 C.3   265  ASP265      0.1410
    124  CG        -1.3540  -28.5550  -24.1000 C.2   265  ASP265      0.3668
    125  OD1       -0.9600  -27.5520  -23.4660 O.co2 265  ASP265     -0.2456
    126  OD2       -0.8140  -28.9700  -25.1760 O.co2 265  ASP265     -0.2456
    127  N         -6.6570  -34.9750  -22.5180 N.3   271  PRO271     -0.2102
    128  CA        -6.2090  -36.3780  -22.6710 C.3   271  PRO271      0.1504
    129  C         -4.7140  -36.5640  -22.8800 C.2   271  PRO271      0.2575
    130  O         -4.2220  -37.6890  -22.6350 O.2   271  PRO271     -0.2718
    131  CB        -6.9840  -36.8660  -23.9140 C.3   271  PRO271      0.0282
    132  CG        -7.2550  -35.6450  -24.7070 C.3   271  PRO271      0.0208
    133  CD        -7.4740  -34.5260  -23.6640 C.3   271  PRO271      0.0893
    134  N         -3.9660  -35.5260  -23.3040 N.am  272  LEU272     -0.1980
    135  CA        -2.4960  -35.6020  -23.4490 C.3   272  LEU272      0.1596
    136  C         -1.7380  -35.1260  -22.1970 C.2   272  LEU272      0.2287
    137  O         -0.7280  -35.7450  -21.8100 O.2   272  LEU272     -0.2864
    138  CB        -2.0200  -34.8020  -24.6950 C.3   272  LEU272      0.0297
    139  CG        -2.0210  -35.4870  -26.0940 C.3   272  LEU272      0.0022
    140  CD1       -3.4350  -35.9210  -26.5640 C.3   272  LEU272      0.0001
    141  CD2       -1.2940  -34.6990  -27.1950 C.3   272  LEU272      0.0001
    142  N         -1.5370  -25.4070  -28.1710 N.3   303  GLY303     -0.1225
    143  CA        -2.2200  -26.7010  -28.0360 C.3   303  GLY303      0.1811
    144  C         -3.4650  -26.6700  -27.1310 C.2   303  GLY303      0.2280
    145  O         -3.9910  -25.6020  -26.8140 O.2   303  GLY303     -0.2866
    146  N         -6.7400  -30.0190  -26.1110 N.3   305  TYR305     -0.1241
    147  CA        -7.4310  -31.0650  -26.9040 C.3   305  TYR305      0.1605
    148  C         -8.7840  -31.5780  -26.3510 C.2   305  TYR305      0.2264
    149  O         -9.4780  -32.3020  -27.0860 O.2   305  TYR305     -0.2867
    150  CB        -6.4370  -32.2490  -27.1620 C.3   305  TYR305      0.0534
    151  CG        -5.1200  -31.7170  -27.8070 C.ar  305  TYR305     -0.0201
    152  CD1       -5.0910  -31.3260  -29.1620 C.ar  305  TYR305     -0.0009
    153  CD2       -3.9370  -31.5380  -27.0450 C.ar  305  TYR305     -0.0009
    154  CE1       -3.9190  -30.7500  -29.7570 C.ar  305  TYR305      0.0417
    155  CE2       -2.7580  -30.9830  -27.6370 C.ar  305  TYR305      0.0417
    156  CZ        -2.7640  -30.6030  -28.9830 C.ar  305  TYR305      0.1957
    157  OH        -1.6080  -30.0470  -29.5590 O.3   305  TYR305     -0.2866
@<TRIPOS>BOND
     1     1     2    1
     2     2     3    1
     3     2     5    1
     4     3     4    2
     5     5     6    1
     6    87    86    2
     7    86    85    1
     8     6     7   ar
     9     6     8   ar
    10     9    10    1
    11    38    39    2
    12    38    37    1
    13    76    75    2
    14    85    84    1
    15    85    88    1
    16    36    37    1
    17    23    24    1
    18    23    20    1
    19    16    18   ar
    20    16    14   ar
    21    84    75   am
    22    75    74    1
    23    18    17   ar
    24    26    24   ar
    25    26    28   ar
    26    37    40    1
    27    24    25   ar
    28    74    73    1
    29    74    77    1
    30    45    44    2
    31    19    20    1
    32    19    11   am
    33    10    11    1
    34    10    13    1
    35    28    27   ar
    36    88    89    1
    37    25    27   ar
    38    14    13    1
    39    14    15   ar
    40    73    71   am
    41    17    15   ar
    42    20    21    1
    43    42    48    1
    44    42    43    1
    45    11    12    2
    46    69    70    1
    47    48    47    1
    48    77    78    1
    49    22    21    2
    50    44    43    1
    51    40    41    1
    52    79    78   ar
    53    79    81   ar
    54    21    29   am
    55    43    46    1
    56    71    70    1
    57    71    72    2
    58    78    80   ar
    59    62    61    2
    60    81    83   ar
    61    47    46    1
    62    61    60    1
    63    29    35    1
    64    29    30    1
    65    80    82   ar
    66    35    34    1
    67    31    30    1
    68    31    32    2
    69    83    82   ar
    70    63    60    1
    71    63    64    1
    72    60    59    1
    73    30    33    1
    74    49    50    1
    75    59    51   am
    76    34    33    1
    77    51    50    1
    78    51    52    2
    79    50    53    1
    80    64    66   ar
    81    64    65   ar
    82   118   116   ar
    83   118   117   ar
    84    66    68   ar
    85   116   114   ar
    86   154   152   ar
    87   154   156   ar
    88   157   156    1
    89   117   115   ar
    90    65    67   ar
    91    53    54    1
    92   152   151   ar
    93    68    67   ar
    94   156   155   ar
    95    56    54   ar
    96    56    58   ar
    97   114   113   ar
    98    54    55   ar
    99   142   143    1
   100   115   113   ar
   101   143   144    1
   102   113   112    1
   103   151   150    1
   104   151   153   ar
   105    58    57   ar
   106   155   153   ar
   107   141   139    1
   108   150   147    1
   109   144   145    2
   110    55    57   ar
   111   149   148    2
   112   147   148    1
   113   147   146    1
   114   140   139    1
   115   112   109    1
   116   139   138    1
   117    97    95   ar
   118   109   110    1
   119   109   108    1
   120   104   106   ar
   121   104   103   ar
   122   106   107   ar
   123   110   111    2
   124   126   124   ar
   125    95    96   ar
   126    95    94    1
   127   107   105   ar
   128   103   102    1
   129   103   105   ar
   130   102    99    1
   131   132   131    1
   132   132   133    1
   133   138   135    1
   134    94    91    1
   135   124   123    1
   136   124   125   ar
   137   131   128    1
   138   101   100    2
   139   133   127    1
   140   100    99    1
   141   123   120    1
   142    99    98    1
   143   135   134    1
   144   135   136    1
   145   134   129   am
   146   129   128    1
   147   129   130    2
   148    91    90    1
   149    91    92    1
   150   119   120    1
   151   128   127    1
   152   120   121    1
   153   136   137    2
   154    92    93    2
   155   121   122    2
