@<TRIPOS>MOLECULE
tmp/5wgmA00.pdb
 142 138 0 0 0
SMALL
GASTEIGER

@<TRIPOS>ATOM
      1  N         25.5080   36.4590  -11.7810 N.3    29  HIS29      -0.1227
      2  CA        24.4410   36.3370  -10.7960 C.3    29  HIS29       0.1737
      3  C         23.1800   35.8400  -11.5110 C.2    29  HIS29       0.2438
      4  O         22.9030   36.2940  -12.6230 O.2    29  HIS29      -0.2733
      5  CB        24.2000   37.6920  -10.1440 C.3    29  HIS29       0.0758
      6  CG        23.1770   37.6750   -9.0550 C.ar   29  HIS29       0.0818
      7  ND1       21.8330   37.4190   -9.2850 N.ar   29  HIS29      -0.2268
      8  CD2       23.3040   37.8530   -7.7210 C.ar   29  HIS29       0.1154
      9  CE1       21.1830   37.4630   -8.1360 C.ar   29  HIS29       0.1986
     10  NE2       22.0490   37.7410   -7.1740 N.ar   29  HIS29      -0.2212
     11  N         22.4630   34.8440  -10.9630 N.am   30  PRO30      -0.2729
     12  CA        21.4150   34.1680  -11.7620 C.3    30  PRO30       0.1401
     13  C         20.2180   35.0380  -12.0900 C.2    30  PRO30       0.2269
     14  O         19.4840   34.6700  -13.0170 O.2    30  PRO30      -0.2865
     15  CB        20.9990   32.9710  -10.8840 C.3    30  PRO30       0.0296
     16  CG        21.3210   33.4280   -9.4600 C.3    30  PRO30       0.0237
     17  CD        22.6330   34.2250   -9.6380 C.3    30  PRO30       0.0939
     18  N         19.6190   41.4890    2.4270 N.3    96  ASN96      -0.1225
     19  CA        19.8470   40.0820    2.1310 C.3    96  ASN96       0.1785
     20  C         19.6210   39.8570    0.6350 C.2    96  ASN96       0.2597
     21  O         18.5120   40.1040    0.1470 O.2    96  ASN96      -0.2718
     22  CB        18.8680   39.2610    2.9660 C.3    96  ASN96       0.1169
     23  CG        19.1020   37.7730    2.8870 C.2    96  ASN96       0.2627
     24  OD1       19.8210   37.2530    2.0290 O.2    96  ASN96      -0.2716
     25  ND2       18.4620   37.0660    3.7960 N.am   96  ASN96      -0.0877
     26  N         20.6850   39.4880   -0.0840 N.am   97  SER97      -0.1952
     27  CA        20.6390   39.0390   -1.4830 C.3    97  SER97       0.1924
     28  C         20.0730   40.1050   -2.4300 C.2    97  SER97       0.2314
     29  O         19.0990   39.8750   -3.1550 O.2    97  SER97      -0.2863
     30  CB        19.8260   37.7370   -1.5770 C.3    97  SER97       0.2116
     31  OG        20.4330   36.7330   -0.7670 O.3    97  SER97      -0.2180
     32  N         12.1000   40.7380   -9.6240 N.3   137  PRO137     -0.2116
     33  CA        10.9240   40.1520   -8.9590 C.3   137  PRO137      0.1372
     34  C         10.4750   40.9280   -7.7280 C.2   137  PRO137      0.2244
     35  O         11.0990   41.9520   -7.3750 O.2   137  PRO137     -0.2868
     36  CB        11.4090   38.7350   -8.5830 C.3   137  PRO137      0.0268
     37  CG        12.9390   38.8850   -8.4040 C.3   137  PRO137      0.0207
     38  CD        13.3330   39.9070   -9.4730 C.3   137  PRO137      0.0892
     39  N          8.2600   39.1670   -4.6720 N.3   139  HIS139     -0.1226
     40  CA         7.5160   38.6390   -3.5310 C.3   139  HIS139      0.1752
     41  C          8.3120   38.5860   -2.2230 C.2   139  HIS139      0.2596
     42  O          7.6960   38.3970   -1.1640 O.2   139  HIS139     -0.2718
     43  CB         6.9210   37.2560   -3.8600 C.3   139  HIS139      0.0759
     44  CG         7.9320   36.1650   -4.0600 C.ar  139  HIS139      0.0818
     45  ND1        7.6450   34.8490   -3.7630 N.ar  139  HIS139     -0.2268
     46  CD2        9.1910   36.1720   -4.5640 C.ar  139  HIS139      0.1154
     47  CE1        8.6890   34.0900   -4.0550 C.ar  139  HIS139      0.1986
     48  NE2        9.6420   34.8640   -4.5410 N.ar  139  HIS139     -0.2212
     49  N          9.6380   38.7580   -2.2530 N.am  140  HIS140     -0.1975
     50  CA        10.4160   38.8420   -1.0150 C.3   140  HIS140      0.1656
     51  C         10.4640   40.2500   -0.4340 C.2   140  HIS140      0.2291
     52  O         10.9060   40.4080    0.7130 O.2   140  HIS140     -0.2864
     53  CB        11.8640   38.3890   -1.2440 C.3   140  HIS140      0.0771
     54  CG        11.9930   36.9360   -1.5820 C.ar  140  HIS140      0.0820
     55  ND1       11.4330   35.9490   -0.8030 N.ar  140  HIS140     -0.2267
     56  CD2       12.5750   36.3090   -2.6350 C.ar  140  HIS140      0.1154
     57  CE1       11.6860   34.7670   -1.3530 C.ar  140  HIS140      0.1986
     58  NE2       12.3860   34.9580   -2.4590 N.ar  140  HIS140     -0.2212
     59  N         16.1340   39.4150   -1.3390 N.3   148  GLY148     -0.1210
     60  CA        16.0220   38.2790   -2.2450 C.3   148  GLY148      0.1956
     61  C         15.7360   38.6690   -3.6850 C.2   148  GLY148      0.2611
     62  O         14.8350   38.1170   -4.3080 O.2   148  GLY148     -0.2717
     63  N         16.5030   39.6260   -4.2180 N.am  149  PHE149     -0.1976
     64  CA        16.4370   40.1160   -5.5890 C.3   149  PHE149      0.1639
     65  C         15.2340   41.0300   -5.8180 C.2   149  PHE149      0.2290
     66  O         15.0900   41.5210   -6.9460 O.2   149  PHE149     -0.2864
     67  CB        16.3740   39.0070   -6.6650 C.3   149  PHE149      0.0560
     68  CG        17.3240   37.8350   -6.4650 C.ar  149  PHE149     -0.0200
     69  CD1       18.4810   37.9100   -5.6900 C.ar  149  PHE149     -0.0042
     70  CD2       17.0610   36.6430   -7.1190 C.ar  149  PHE149     -0.0042
     71  CE1       19.3240   36.7860   -5.5370 C.ar  149  PHE149     -0.0003
     72  CE2       17.8930   35.5180   -6.9810 C.ar  149  PHE149     -0.0003
     73  CZ        19.0320   35.5920   -6.1860 C.ar  149  PHE149     -0.0000
     74  N          6.2910   30.1340   -6.9030 N.3   178  ASP178     -0.1239
     75  CA         7.7440   30.2380   -6.8010 C.3   178  ASP178      0.1674
     76  C          8.2190   29.2430   -5.7390 C.2   178  ASP178      0.2266
     77  O          7.4810   28.9420   -4.7990 O.2   178  ASP178     -0.2867
     78  CB         8.0990   31.6950   -6.4250 C.3   178  ASP178      0.1410
     79  CG         9.6020   31.9820   -6.4500 C.2   178  ASP178      0.3668
     80  OD1       10.3280   31.4530   -5.5640 O.co2 178  ASP178     -0.2456
     81  OD2       10.0600   32.6710   -7.3870 O.co2 178  ASP178     -0.2456
     82  N         10.2940   29.5340   -3.5100 N.3   180  HIS180     -0.1241
     83  CA        10.5780   30.2180   -2.2530 C.3   180  HIS180      0.1621
     84  C          9.2950   30.7940   -1.6620 C.2   180  HIS180      0.2264
     85  O          8.3650   31.1770   -2.3820 O.2   180  HIS180     -0.2867
     86  CB        11.5970   31.3590   -2.4390 C.3   180  HIS180      0.0745
     87  CG        12.9140   30.8870   -2.9780 C.ar  180  HIS180      0.0817
     88  ND1       13.2610   30.9820   -4.3060 N.ar  180  HIS180     -0.2268
     89  CD2       13.9440   30.2580   -2.3680 C.ar  180  HIS180      0.1154
     90  CE1       14.4730   30.4850   -4.4920 C.ar  180  HIS180      0.1986
     91  NE2       14.9020   30.0020   -3.3330 N.ar  180  HIS180     -0.2212
     92  N         16.0100   29.0870    2.0400 N.3   209  PHE209     -0.1241
     93  CA        15.7540   30.5190    1.9380 C.3   209  PHE209      0.1605
     94  C         14.2590   30.7780    1.7330 C.2   209  PHE209      0.2264
     95  O         13.6270   30.0850    0.9250 O.2   209  PHE209     -0.2867
     96  CB        16.5610   31.0950    0.7650 C.3   209  PHE209      0.0534
     97  CG        16.4600   32.5990    0.6360 C.ar  209  PHE209     -0.0203
     98  CD1       17.3430   33.4270    1.3170 C.ar  209  PHE209     -0.0042
     99  CD2       15.4850   33.1750   -0.1650 C.ar  209  PHE209     -0.0042
    100  CE1       17.2330   34.8110    1.1980 C.ar  209  PHE209     -0.0003
    101  CE2       15.3680   34.5290   -0.2900 C.ar  209  PHE209     -0.0003
    102  CZ        16.2450   35.3620    0.3980 C.ar  209  PHE209     -0.0000
    103  N         14.5590   31.1950    5.0790 N.3   211  ASN211     -0.1240
    104  CA        15.1230   30.7010    6.3420 C.3   211  ASN211      0.1653
    105  C         14.3220   31.1000    7.5680 C.2   211  ASN211      0.2266
    106  O         14.9030   31.2560    8.6480 O.2   211  ASN211     -0.2867
    107  CB        16.5700   31.1650    6.5130 C.3   211  ASN211      0.1155
    108  CG        17.4530   30.6500    5.4280 C.2   211  ASN211      0.2627
    109  OD1       17.6570   31.3170    4.4170 O.2   211  ASN211     -0.2716
    110  ND2       18.0070   29.4630    5.6320 N.am  211  ASN211     -0.0877
    111  N         11.3090   28.7450  -10.4560 N.3   271  ASP271     -0.1239
    112  CA        12.4710   28.1090   -9.8620 C.3   271  ASP271      0.1674
    113  C         12.1310   26.7880   -9.1750 C.2   271  ASP271      0.2266
    114  O         13.0420   26.1340   -8.6620 O.2   271  ASP271     -0.2867
    115  CB        13.1960   29.0650   -8.8950 C.3   271  ASP271      0.1410
    116  CG        12.2520   29.9060   -8.0160 C.2   271  ASP271      0.3668
    117  OD1       11.0140   29.6870   -7.9710 O.co2 271  ASP271     -0.2456
    118  OD2       12.8130   30.8070   -7.3600 O.co2 271  ASP271     -0.2456
    119  N         18.7470   26.6170   -8.4370 N.3   278  LEU278     -0.1245
    120  CA        18.5170   26.9950   -7.0450 C.3   278  LEU278      0.1561
    121  C         17.4380   26.1540   -6.3680 C.2   278  LEU278      0.2260
    122  O         17.5610   25.8160   -5.1780 O.2   278  LEU278     -0.2867
    123  CB        18.1090   28.4750   -6.9680 C.3   278  LEU278      0.0270
    124  CG        19.2380   29.5150   -6.8350 C.3   278  LEU278      0.0019
    125  CD1       20.4520   29.2190   -7.6890 C.3   278  LEU278      0.0001
    126  CD2       18.7670   30.9380   -7.0780 C.3   278  LEU278      0.0001
    127  N         10.6990   34.4710   -9.6230 N.3   309  GLY309     -0.1225
    128  CA        12.0070   33.8840   -9.8630 C.3   309  GLY309      0.1811
    129  C         12.0170   32.8280  -10.9610 C.2   309  GLY309      0.2280
    130  O         11.1090   32.7250  -11.7910 O.2   309  GLY309     -0.2866
    131  N         15.5000   30.4380  -12.7810 N.3   311  TYR311     -0.1241
    132  CA        16.8670   30.7940  -13.1470 C.3   311  TYR311      0.1605
    133  C         17.4970   29.9000  -14.2070 C.2   311  TYR311      0.2264
    134  O         18.5870   30.2420  -14.7010 O.2   311  TYR311     -0.2867
    135  CB        17.7550   30.8340  -11.8770 C.3   311  TYR311      0.0534
    136  CG        17.0720   31.7610  -10.9050 C.ar  311  TYR311     -0.0201
    137  CD1       17.0610   33.1250  -11.1460 C.ar  311  TYR311     -0.0009
    138  CD2       16.3140   31.2720   -9.8360 C.ar  311  TYR311     -0.0009
    139  CE1       16.3660   33.9800  -10.3360 C.ar  311  TYR311      0.0417
    140  CE2       15.6430   32.1350   -8.9920 C.ar  311  TYR311      0.0417
    141  CZ        15.6670   33.4840   -9.2570 C.ar  311  TYR311      0.1957
    142  OH        14.9760   34.3600   -8.4770 O.3   311  TYR311     -0.2866
@<TRIPOS>BOND
     1   134   133    2
     2   133   132    1
     3   132   131    1
     4   132   135    1
     5    14    13    2
     6     4     3    2
     7    13    12    1
     8   135   136    1
     9   130   129    2
    10     1     2    1
    11    12    11    1
    12    12    15    1
    13     3    11   am
    14     3     2    1
    15   137   136   ar
    16   137   139   ar
    17    11    17    1
    18   129   128    1
    19   136   138   ar
    20    15    16    1
    21     2     5    1
    22   111   112    1
    23   139   141   ar
    24     5     6    1
    25   128   127    1
    26   112   113    1
    27   112   115    1
    28   138   140   ar
    29    17    16    1
    30    32    38    1
    31    32    33    1
    32    38    37    1
    33     7     6   ar
    34     7     9   ar
    35   141   140   ar
    36   141   142    1
    37   113   114    2
    38     6     8   ar
    39    33    36    1
    40    33    34    1
    41   115   116    1
    42    36    37    1
    43   119   120    1
    44     9    10   ar
    45   116   117   ar
    46   116   118   ar
    47    34    35    2
    48     8    10   ar
    49   125   124    1
    50    81    79   ar
    51    70    72   ar
    52    70    68   ar
    53   126   124    1
    54   120   123    1
    55   120   121    1
    56    72    73   ar
    57   123   124    1
    58    66    65    2
    59    74    75    1
    60    75    78    1
    61    75    76    1
    62    67    68    1
    63    67    64    1
    64    68    69   ar
    65    79    78    1
    66    79    80   ar
    67   121   122    2
    68    73    71   ar
    69    65    64    1
    70    76    77    2
    71    69    71   ar
    72    64    63    1
    73    39    40    1
    74    46    48   ar
    75    46    44   ar
    76    48    47   ar
    77    90    88   ar
    78    90    91   ar
    79    62    61    2
    80    88    87   ar
    81    63    61   am
    82    44    43    1
    83    44    45   ar
    84    47    45   ar
    85    43    40    1
    86    61    60    1
    87    40    41    1
    88    82    83    1
    89    91    89   ar
    90    29    28    2
    91    87    86    1
    92    87    89   ar
    93    56    58   ar
    94    56    54   ar
    95    58    57   ar
    96    86    83    1
    97    28    27    1
    98    85    84    2
    99    49    41   am
   100    49    50    1
   101    83    84    1
   102    60    59    1
   103    41    42    2
   104    54    53    1
   105    54    55   ar
   106    30    27    1
   107    30    31    1
   108    27    26    1
   109    57    55   ar
   110    53    50    1
   111    50    51    1
   112    51    52    2
   113   101    99   ar
   114   101   102   ar
   115    99    97   ar
   116    26    20   am
   117    21    20    2
   118   102   100   ar
   119    20    19    1
   120    97    96    1
   121    97    98   ar
   122    96    93    1
   123    95    94    2
   124   100    98   ar
   125    94    93    1
   126    93    92    1
   127    24    23    2
   128    19    18    1
   129    19    22    1
   130    23    22    1
   131    23    25   am
   132   109   108    2
   133   103   104    1
   134   108   110   am
   135   108   107    1
   136   104   107    1
   137   104   105    1
   138   105   106    2
