@<TRIPOS>MOLECULE
tmp/5wgmC01.pdb
 80 77 0 0 0
SMALL
GASTEIGER

@<TRIPOS>ATOM
      1  N         25.1610  -31.2490    4.7000 N.3     7  SER7       -0.1203
      2  CA        24.6920  -29.9100    4.3720 C.3     7  SER7        0.2005
      3  C         25.5130  -29.3300    3.2200 C.2     7  SER7        0.2461
      4  O         26.7400  -29.5010    3.1890 O.2     7  SER7       -0.2732
      5  CB        24.7910  -28.9950    5.5920 C.3     7  SER7        0.2103
      6  OG        23.5590  -28.9900    6.2830 O.3     7  SER7       -0.2182
      7  N         24.8690  -28.6810    2.2460 N.am    8  PRO8       -0.2717
      8  CA        25.6100  -28.1480    1.0890 C.3     8  PRO8        0.1535
      9  C         26.5300  -27.0190    1.5150 C.2     8  PRO8        0.2598
     10  O         26.1610  -26.1700    2.3270 O.2     8  PRO8       -0.2715
     11  CB        24.5100  -27.6390    0.1520 C.3     8  PRO8        0.0310
     12  CG        23.2710  -27.5630    1.0030 C.3     8  PRO8        0.0237
     13  CD        23.4070  -28.5980    2.0640 C.3     8  PRO8        0.0939
     14  N         27.7400  -27.0200    0.9570 N.am    9  ILE9       -0.1964
     15  CA        28.7950  -26.0820    1.3260 C.3     9  ILE9        0.1727
     16  C         29.0280  -25.1360    0.1540 C.2     9  ILE9        0.2616
     17  O         28.9360  -25.5450   -1.0050 O.2     9  ILE9       -0.2715
     18  CB        30.0870  -26.8470    1.6870 C.3     9  ILE9        0.0290
     19  CG1       29.8540  -27.7510    2.9020 C.3     9  ILE9        0.0022
     20  CG2       31.2440  -25.9000    1.9350 C.3     9  ILE9        0.0023
     21  CD1       31.0740  -28.5870    3.2880 C.3     9  ILE9        0.0001
     22  N         29.3330  -23.8760    0.4510 N.am   10  THR10      -0.1951
     23  CA        29.7370  -22.9170   -0.5720 C.3    10  THR10       0.1897
     24  C         31.2340  -22.6980   -0.4330 C.2    10  THR10       0.2313
     25  O         31.7140  -22.3770    0.6630 O.2    10  THR10      -0.2863
     26  CB        28.9840  -21.5890   -0.4370 C.3    10  THR10       0.1794
     27  OG1       27.5670  -21.7950   -0.6410 O.3    10  THR10      -0.2208
     28  CG2       29.5070  -20.5760   -1.4660 C.3    10  THR10       0.0378
     29  N         33.3060  -16.5070    6.7970 N.3    50  SER50      -0.1202
     30  CA        33.3650  -17.6200    7.7330 C.3    50  SER50       0.2020
     31  C         32.2920  -18.6570    7.4480 C.2    50  SER50       0.2618
     32  O         32.4270  -19.7860    7.8970 O.2    50  SER50      -0.2717
     33  CB        33.2420  -17.1210    9.1760 C.3    50  SER50       0.2103
     34  OG        31.9470  -16.6160    9.4240 O.3    50  SER50      -0.2182
     35  N         31.2710  -18.3180    6.6700 N.am   51  ARG51      -0.1979
     36  CA        30.2420  -19.2840    6.2710 C.3    51  ARG51       0.1597
     37  C         30.6530  -20.1630    5.0870 C.2    51  ARG51       0.2287
     38  O         29.9450  -21.1370    4.7850 O.2    51  ARG51      -0.2864
     39  CB        28.9660  -18.5270    5.9230 C.3    51  ARG51       0.0334
     40  CG        28.4200  -17.7540    7.1110 C.3    51  ARG51       0.0492
     41  CD        27.2160  -16.9230    6.7320 C.3    51  ARG51       0.2205
     42  NE        26.1230  -17.7640    6.2790 N.pl3  51  ARG51      -0.0865
     43  CZ        25.0750  -17.3180    5.6080 C.cat  51  ARG51       0.5346
     44  NH1       24.9780  -16.0360    5.2940 N.pl3  51  ARG51       0.1354
     45  NH2       24.1260  -18.1620    5.2230 N.pl3  51  ARG51       0.1354
     46  N         29.0100  -27.6260   -2.8290 N.3   128  ARG128     -0.1231
     47  CA        27.9500  -27.6180   -3.8350 C.3   128  ARG128      0.1694
     48  C         28.1330  -26.5170   -4.8690 C.2   128  ARG128      0.2592
     49  O         27.8430  -26.7120   -6.0520 O.2   128  ARG128     -0.2718
     50  CB        26.5840  -27.4230   -3.1810 C.3   128  ARG128      0.0321
     51  CG        25.4710  -27.2480   -4.2020 C.3   128  ARG128      0.0489
     52  CD        25.1470  -28.5490   -4.8870 C.3   128  ARG128      0.2205
     53  NE        24.5270  -29.4780   -3.9360 N.pl3 128  ARG128     -0.0865
     54  CZ        23.2500  -29.4080   -3.5280 C.cat 128  ARG128      0.5346
     55  NH1       22.4300  -28.4630   -3.9890 N.pl3 128  ARG128      0.1354
     56  NH2       22.7810  -30.2930   -2.6510 N.pl3 128  ARG128      0.1354
     57  N         28.5700  -25.3430   -4.4300 N.am  129  ASN129     -0.1974
     58  CA        28.7540  -24.2160   -5.3380 C.3   129  ASN129      0.1688
     59  C         29.9580  -23.4170   -4.8440 C.2   129  ASN129      0.2292
     60  O         30.5440  -23.7350   -3.8060 O.2   129  ASN129     -0.2864
     61  CB        27.4560  -23.3960   -5.4310 C.3   129  ASN129      0.1181
     62  CG        26.9230  -22.9690   -4.0710 C.2   129  ASN129      0.2629
     63  OD1       27.6890  -22.6450   -3.1680 O.2   129  ASN129     -0.2716
     64  ND2       25.5890  -22.9340   -3.9300 N.am  129  ASN129     -0.0877
     65  N         24.2410  -18.0390   -2.9420 N.3   327  LEU327     -0.1231
     66  CA        24.7990  -19.3940   -3.0100 C.3   327  LEU327      0.1693
     67  C         24.7330  -20.0900   -1.6540 C.2   327  LEU327      0.2591
     68  O         24.5750  -21.3250   -1.5820 O.2   327  LEU327     -0.2718
     69  CB        26.2310  -19.3330   -3.5030 C.3   327  LEU327      0.0284
     70  CG        26.4090  -18.9270   -4.9810 C.3   327  LEU327      0.0019
     71  CD1       27.8910  -19.1750   -5.3050 C.3   327  LEU327      0.0001
     72  CD2       25.4980  -19.6790   -5.9190 C.3   327  LEU327      0.0001
     73  N         24.8630  -19.3200   -0.5780 N.am  328  LEU328     -0.1980
     74  CA        24.7540  -19.8200    0.7850 C.3   328  LEU328      0.1596
     75  C         23.3170  -20.1190    1.1870 C.2   328  LEU328      0.2287
     76  O         23.0930  -20.6070    2.3040 O.2   328  LEU328     -0.2864
     77  CB        25.3630  -18.8050    1.7560 C.3   328  LEU328      0.0297
     78  CG        26.8900  -18.7310    1.6840 C.3   328  LEU328      0.0022
     79  CD1       27.4080  -17.4500    2.3130 C.3   328  LEU328      0.0001
     80  CD2       27.4950  -19.9500    2.3970 C.3   328  LEU328      0.0001
@<TRIPOS>BOND
     1    49    48    2
     2    72    70    1
     3    61    58    1
     4    61    62    1
     5    58    59    1
     6    58    57    1
     7    71    70    1
     8    70    69    1
     9    52    51    1
    10    52    53    1
    11    48    57   am
    12    48    47    1
    13    59    60    2
    14    51    50    1
    15    62    64   am
    16    62    63    2
    17    55    54    1
    18    53    54    2
    19    47    50    1
    20    47    46    1
    21    54    56    1
    22    69    66    1
    23    66    65    1
    24    66    67    1
    25    67    68    2
    26    67    73   am
    27    28    26    1
    28    17    16    2
    29    27    26    1
    30    73    74    1
    31    23    26    1
    32    23    24    1
    33    23    22    1
    34    24    25    2
    35    11    12    1
    36    11     8    1
    37    16    22   am
    38    16    15    1
    39    74    75    1
    40    74    77    1
    41    14    15    1
    42    14     9   am
    43    12    13    1
    44     8     9    1
    45     8     7    1
    46    75    76    2
    47    15    18    1
    48     9    10    2
    49    78    77    1
    50    78    79    1
    51    78    80    1
    52    18    20    1
    53    18    19    1
    54    13     7    1
    55     7     3   am
    56    19    21    1
    57     4     3    2
    58     3     2    1
    59     2     1    1
    60     2     5    1
    61    38    37    2
    62    37    36    1
    63    45    43    1
    64    44    43    1
    65     5     6    1
    66    43    42    2
    67    39    36    1
    68    39    40    1
    69    36    35    1
    70    42    41    1
    71    35    31   am
    72    41    40    1
    73    29    30    1
    74    31    30    1
    75    31    32    2
    76    30    33    1
    77    33    34    1
