@<TRIPOS>MOLECULE
tmp/5wgpA01.pdb
 85 82 0 0 0
SMALL
GASTEIGER

@<TRIPOS>ATOM
      1  N         10.3650   -0.9560   80.9800 N.3     3  GLY3       -0.1210
      2  CA         9.3640   -1.8190   80.3940 C.3     3  GLY3        0.1956
      3  C          9.0400   -2.9700   81.3160 C.2     3  GLY3        0.2612
      4  O          9.0650   -2.8090   82.5410 O.2     3  GLY3       -0.2717
      5  N          8.7510   -4.1410   80.7440 N.am    4  TYR4       -0.1962
      6  CA         8.3800   -5.3110   81.5290 C.3     4  TYR4        0.1771
      7  C          9.2440   -6.5180   81.1980 C.2     4  TYR4        0.2620
      8  O          8.8600   -7.6510   81.5040 O.2     4  TYR4       -0.2715
      9  CB         6.9020   -5.6570   81.3260 C.3     4  TYR4        0.0574
     10  CG         5.9650   -4.5860   81.8250 C.ar    4  TYR4       -0.0198
     11  CD1        5.5370   -4.5720   83.1450 C.ar    4  TYR4       -0.0009
     12  CD2        5.5180   -3.5840   80.9750 C.ar    4  TYR4       -0.0009
     13  CE1        4.6910   -3.5870   83.6040 C.ar    4  TYR4        0.0417
     14  CE2        4.6610   -2.6000   81.4160 C.ar    4  TYR4        0.0417
     15  CZ         4.2480   -2.6110   82.7320 C.ar    4  TYR4        0.1957
     16  OH         3.3970   -1.6370   83.1790 O.3     4  TYR4       -0.2866
     17  N         10.3970   -6.3030   80.5710 N.am    5  GLY5       -0.1954
     18  CA        11.3020   -7.3890   80.2610 C.3     5  GLY5        0.1869
     19  C         12.2630   -7.6850   81.3990 C.2     5  GLY5        0.2309
     20  O         12.2780   -7.0280   82.4400 O.2     5  GLY5       -0.2863
     21  N         14.6350   -4.5810   81.8910 N.3     8  ASN8       -0.1240
     22  CA        14.0870   -3.2470   82.0940 C.3     8  ASN8        0.1653
     23  C         12.7970   -3.2680   82.9070 C.2     8  ASN8        0.2266
     24  O         12.1260   -2.2300   83.0000 O.2     8  ASN8       -0.2867
     25  CB        13.8460   -2.5410   80.7500 C.3     8  ASN8        0.1155
     26  CG        12.7780   -3.2130   79.9120 C.2     8  ASN8        0.2627
     27  OD1       12.2000   -4.2270   80.3130 O.2     8  ASN8       -0.2716
     28  ND2       12.5080   -2.6530   78.7380 N.am    8  ASN8       -0.0877
     29  N          2.9490    1.5380   73.9900 N.3    60  GLY60      -0.1210
     30  CA         4.1510    0.7710   74.2180 C.3    60  GLY60       0.1956
     31  C          4.1720   -0.0240   75.5070 C.2    60  GLY60       0.2611
     32  O          5.0030   -0.9240   75.6450 O.2    60  GLY60      -0.2717
     33  N          3.2780    0.2810   76.4520 N.am   61  HIS61      -0.1975
     34  CA         3.1800   -0.4430   77.7090 C.3    61  HIS61       0.1656
     35  C          1.7960   -1.0110   77.9620 C.2    61  HIS61       0.2291
     36  O          1.6670   -1.9720   78.7270 O.2    61  HIS61      -0.2864
     37  CB         3.5680    0.4730   78.8770 C.3    61  HIS61       0.0771
     38  CG         4.8140    1.2660   78.6200 C.ar   61  HIS61       0.0820
     39  ND1        6.0790    0.7520   78.8130 N.ar   61  HIS61      -0.2267
     40  CD2        4.9870    2.5280   78.1610 C.ar   61  HIS61       0.1154
     41  CE1        6.9780    1.6670   78.4970 C.ar   61  HIS61       0.1986
     42  NE2        6.3430    2.7520   78.0910 N.ar   61  HIS61      -0.2212
     43  N          4.5030   -4.8760   72.2600 N.3   227  PHE227     -0.1227
     44  CA         5.3070   -3.8420   72.9080 C.3   227  PHE227      0.1736
     45  C          6.0860   -3.0330   71.8820 C.2   227  PHE227      0.2595
     46  O          6.2880   -1.8260   72.0510 O.2   227  PHE227     -0.2718
     47  CB         6.3220   -4.4630   73.8650 C.3   227  PHE227      0.0547
     48  CG         5.7580   -4.9640   75.1620 C.ar  227  PHE227     -0.0202
     49  CD1        5.0460   -4.1310   76.0040 C.ar  227  PHE227     -0.0042
     50  CD2        6.0250   -6.2630   75.5730 C.ar  227  PHE227     -0.0042
     51  CE1        4.5780   -4.6030   77.2230 C.ar  227  PHE227     -0.0003
     52  CE2        5.5530   -6.7400   76.7840 C.ar  227  PHE227     -0.0003
     53  CZ         4.8310   -5.9050   77.6130 C.ar  227  PHE227     -0.0000
     54  N          6.5880   -3.7070   70.8550 N.am  228  ASN228     -0.1974
     55  CA         7.4860   -3.1150   69.8780 C.3   228  ASN228      0.1688
     56  C          6.7390   -2.1770   68.9380 C.2   228  ASN228      0.2292
     57  O          5.5150   -2.2370   68.7850 O.2   228  ASN228     -0.2864
     58  CB         8.1540   -4.2120   69.0570 C.3   228  ASN228      0.1181
     59  CG         7.1390   -5.1580   68.4410 C.2   228  ASN228      0.2629
     60  OD1        6.6380   -6.0680   69.1070 O.2   228  ASN228     -0.2716
     61  ND2        6.8120   -4.9370   67.1730 N.am  228  ASN228     -0.0877
     62  N          7.5140   -8.5160   69.9750 N.3   235  GLU235     -0.1231
     63  CA         7.5010   -8.9290   71.3710 C.3   235  GLU235      0.1699
     64  C          6.0780   -8.7040   71.8630 C.2   235  GLU235      0.2592
     65  O          5.6330   -7.5570   71.9750 O.2   235  GLU235     -0.2718
     66  CB         8.5090   -8.1360   72.2010 C.3   235  GLU235      0.0402
     67  CG         9.9450   -8.1610   71.6620 C.3   235  GLU235      0.1161
     68  CD        10.6040   -9.5260   71.7730 C.2   235  GLU235      0.3649
     69  OE1       11.6930   -9.7140   71.1780 O.co2 235  GLU235     -0.2457
     70  OE2       10.0420  -10.4100   72.4530 O.co2 235  GLU235     -0.2457
     71  N          5.3560   -9.7900   72.1080 N.am  236  LEU236     -0.1980
     72  CA         3.9510   -9.6750   72.4750 C.3   236  LEU236      0.1596
     73  C          3.7820   -8.8260   73.7290 C.2   236  LEU236      0.2287
     74  O          4.5360   -8.9560   74.7010 O.2   236  LEU236     -0.2864
     75  CB         3.3540  -11.0620   72.7050 C.3   236  LEU236      0.0297
     76  CG         3.2670  -11.9800   71.4880 C.3   236  LEU236      0.0022
     77  CD1        2.5840  -13.2960   71.8770 C.3   236  LEU236      0.0001
     78  CD2        2.5320  -11.2750   70.3650 C.3   236  LEU236      0.0001
     79  N          2.3200   -8.7480   76.7010 N.3   238  VAL238     -0.1245
     80  CA         1.7470   -9.6020   77.7340 C.3   238  VAL238      0.1561
     81  C          2.5560   -9.3960   79.0080 C.2   238  VAL238      0.2260
     82  O          3.7220   -8.9920   78.9740 O.2   238  VAL238     -0.2867
     83  CB         1.7460  -11.1010   77.3480 C.3   238  VAL238      0.0252
     84  CG1        0.8020  -11.3490   76.1710 C.3   238  VAL238      0.0019
     85  CG2        3.1660  -11.5620   77.0030 C.3   238  VAL238      0.0019
@<TRIPOS>BOND
     1    61    59   am
     2    59    58    1
     3    59    60    2
     4    57    56    2
     5    56    55    1
     6    58    55    1
     7    55    54    1
     8    62    63    1
     9    78    76    1
    10    54    45   am
    11    69    68   ar
    12    63    64    1
    13    63    66    1
    14    76    77    1
    15    76    75    1
    16    67    68    1
    17    67    66    1
    18    68    70   ar
    19    64    65    2
    20    64    71   am
    21    45    46    2
    22    45    44    1
    23    71    72    1
    24    43    44    1
    25    72    75    1
    26    72    73    1
    27    44    47    1
    28    73    74    2
    29    47    48    1
    30    29    30    1
    31    30    31    1
    32    48    50   ar
    33    48    49   ar
    34    31    32    2
    35    31    33   am
    36    50    52   ar
    37    49    51   ar
    38    84    83    1
    39    33    34    1
    40    79    80    1
    41    52    53   ar
    42    85    83    1
    43    51    53   ar
    44    83    80    1
    45    34    35    1
    46    34    37    1
    47    80    81    1
    48    35    36    2
    49    42    40   ar
    50    42    41   ar
    51    40    38   ar
    52    41    39   ar
    53    38    39   ar
    54    38    37    1
    55    28    26   am
    56    82    81    2
    57    26    27    2
    58    26    25    1
    59    18    17    1
    60    18    19    1
    61     2     1    1
    62     2     3    1
    63    17     7   am
    64     5     3   am
    65     5     6    1
    66    25    22    1
    67    12    14   ar
    68    12    10   ar
    69     7     8    2
    70     7     6    1
    71     3     4    2
    72     9     6    1
    73     9    10    1
    74    19    20    2
    75    14    15   ar
    76    10    11   ar
    77    21    22    1
    78    22    23    1
    79    15    16    1
    80    15    13   ar
    81    23    24    2
    82    11    13   ar
