@<TRIPOS>MOLECULE
tmp/5wgpA00.pdb
 97 93 0 0 0
SMALL
GASTEIGER

@<TRIPOS>ATOM
      1  N         -8.5270    8.6470   81.1000 N.3    89  GLN89      -0.1245
      2  CA        -8.2530    7.5090   80.2360 C.3    89  GLN89       0.1566
      3  C         -8.5070    6.2420   81.0280 C.2    89  GLN89       0.2260
      4  O         -8.5010    6.2590   82.2600 O.2    89  GLN89      -0.2867
      5  CB        -6.8090    7.5340   79.7150 C.3    89  GLN89       0.0367
      6  CG        -5.7540    7.6180   80.8300 C.3    89  GLN89       0.0905
      7  CD        -5.0150    6.3090   81.0710 C.2    89  GLN89       0.2608
      8  OE1       -5.5990    5.2270   81.0380 O.2    89  GLN89      -0.2717
      9  NE2       -3.7200    6.4100   81.3380 N.am   89  GLN89      -0.0878
     10  N         -7.1370    1.9610   80.7450 N.3    91  HIS91      -0.1241
     11  CA        -6.2130    1.0290   80.1240 C.3    91  HIS91       0.1621
     12  C         -6.2750   -0.2540   80.9330 C.2    91  HIS91       0.2264
     13  O         -6.9430   -0.3160   81.9660 O.2    91  HIS91      -0.2867
     14  CB        -4.7870    1.5800   80.1160 C.3    91  HIS91       0.0745
     15  CG        -4.2640    1.8080   81.4940 C.ar   91  HIS91       0.0817
     16  ND1       -4.4530    2.9930   82.1670 N.ar   91  HIS91      -0.2268
     17  CD2       -3.6470    0.9750   82.3620 C.ar   91  HIS91       0.1154
     18  CE1       -3.9280    2.8970   83.3770 C.ar   91  HIS91       0.1986
     19  NE2       -3.4380    1.6790   83.5210 N.ar   91  HIS91      -0.2212
     20  N         -4.0230   -3.9810   82.3440 N.3    93  HIS93      -0.1241
     21  CA        -2.8370   -4.7950   82.5460 C.3    93  HIS93       0.1621
     22  C         -3.2810   -6.2460   82.4430 C.2    93  HIS93       0.2264
     23  O         -4.3540   -6.5950   82.9420 O.2    93  HIS93      -0.2867
     24  CB        -2.2050   -4.5230   83.9150 C.3    93  HIS93       0.0745
     25  CG        -1.9270   -3.0730   84.1760 C.ar   93  HIS93       0.0817
     26  ND1       -0.6830   -2.5140   83.9790 N.ar   93  HIS93      -0.2268
     27  CD2       -2.7330   -2.0660   84.5880 C.ar   93  HIS93       0.1154
     28  CE1       -0.7240   -1.2310   84.2930 C.ar   93  HIS93       0.1986
     29  NE2       -1.9630   -0.9290   84.6490 N.ar   93  HIS93      -0.2212
     30  N         -7.9470   -0.1320   84.6890 N.3   116  HIS116     -0.1241
     31  CA        -7.7180    1.0860   85.4590 C.3   116  HIS116      0.1621
     32  C         -8.3920    2.2460   84.7590 C.2   116  HIS116      0.2264
     33  O         -8.0210    2.5830   83.6260 O.2   116  HIS116     -0.2867
     34  CB        -6.2270    1.3730   85.6090 C.3   116  HIS116      0.0745
     35  CG        -5.5320    0.4000   86.5010 C.ar  116  HIS116      0.0817
     36  ND1       -4.1670    0.2010   86.4700 N.ar  116  HIS116     -0.2268
     37  CD2       -6.0180   -0.4330   87.4490 C.ar  116  HIS116      0.1154
     38  CE1       -3.8450   -0.7160   87.3660 C.ar  116  HIS116      0.1986
     39  NE2       -4.9470   -1.1080   87.9810 N.ar  116  HIS116     -0.2212
     40  N         -8.5710    6.0520   85.0850 N.3   118  VAL118     -0.1245
     41  CA        -7.7010    7.0550   85.6920 C.3   118  VAL118      0.1561
     42  C         -8.4220    8.3980   85.7020 C.2   118  VAL118      0.2260
     43  O         -8.8210    8.9000   84.6420 O.2   118  VAL118     -0.2867
     44  CB        -6.3720    7.1540   84.9300 C.3   118  VAL118      0.0252
     45  CG1       -5.4540    8.1740   85.5930 C.3   118  VAL118      0.0019
     46  CG2       -5.7160    5.7820   84.8040 C.3   118  VAL118      0.0019
     47  N         -4.9590   12.0890   92.0630 N.3   137  LEU137     -0.1245
     48  CA        -5.5810   11.1370   91.1600 C.3   137  LEU137      0.1561
     49  C         -6.4370   10.1650   91.9510 C.2   137  LEU137      0.2260
     50  O         -6.1710    9.8740   93.1220 O.2   137  LEU137     -0.2867
     51  CB        -4.5270   10.3490   90.3500 C.3   137  LEU137      0.0270
     52  CG        -4.1040   10.9050   88.9850 C.3   137  LEU137      0.0019
     53  CD1       -3.5670   12.3190   89.0880 C.3   137  LEU137      0.0001
     54  CD2       -3.0880    9.9750   88.3130 C.3   137  LEU137      0.0001
     55  N         -7.8820    6.3050   90.9440 N.3   139  VAL139     -0.1245
     56  CA        -7.9500    5.2510   89.9390 C.3   139  VAL139      0.1561
     57  C         -8.9450    4.2180   90.4200 C.2   139  VAL139      0.2260
     58  O         -8.8430    3.7140   91.5470 O.2   139  VAL139     -0.2867
     59  CB        -6.5890    4.5980   89.6480 C.3   139  VAL139      0.0252
     60  CG1       -6.7950    3.5320   88.5540 C.3   139  VAL139      0.0019
     61  CG2       -5.5840    5.6270   89.1830 C.3   139  VAL139      0.0019
     62  N          0.9320    5.6500   91.1110 N.3   194  LEU194     -0.1231
     63  CA         0.9090    5.0920   89.7660 C.3   194  LEU194      0.1693
     64  C          1.6650    3.7690   89.7690 C.2   194  LEU194      0.2593
     65  O          2.6470    3.5930   90.4990 O.2   194  LEU194     -0.2718
     66  CB         1.5550    6.0570   88.7680 C.3   194  LEU194      0.0284
     67  CG         1.0520    7.5010   88.7680 C.3   194  LEU194      0.0019
     68  CD1        1.8810    8.3220   87.7920 C.3   194  LEU194      0.0001
     69  CD2       -0.4200    7.5630   88.4050 C.3   194  LEU194      0.0001
     70  N          1.2190    2.8270   88.9400 N.am  195  THR195     -0.1939
     71  CA         1.8760    1.5280   88.8740 C.3   195  THR195      0.2028
     72  C          2.8710    1.4210   87.7290 C.2   195  THR195      0.2642
     73  O          3.4800    0.3590   87.5620 O.2   195  THR195     -0.2714
     74  CB         0.8490    0.3980   88.7660 C.3   195  THR195      0.1808
     75  OG1        0.1330    0.5110   87.5330 O.3   195  THR195     -0.2208
     76  CG2       -0.1130    0.4600   89.9370 C.3   195  THR195      0.0379
     77  N          3.0530    2.4850   86.9480 N.am  196  THR196     -0.1950
     78  CA         4.1380    2.6030   85.9880 C.3   196  THR196      0.1897
     79  C          4.9310    3.8610   86.3010 C.2   196  THR196      0.2313
     80  O          4.4340    4.7730   86.9750 O.2   196  THR196     -0.2863
     81  CB         3.6390    2.6870   84.5360 C.3   196  THR196      0.1794
     82  OG1        2.7070    3.7690   84.4040 O.3   196  THR196     -0.2208
     83  CG2        2.9780    1.3980   84.1030 C.3   196  THR196      0.0378
     84  N         -6.5100    4.8700   95.5780 N.3   205  TRP205     -0.1241
     85  CA        -6.9220    3.6610   94.8890 C.3   205  TRP205      0.1605
     86  C         -8.3030    3.2390   95.3610 C.2   205  TRP205      0.2264
     87  O         -8.5840    3.2420   96.5630 O.2   205  TRP205     -0.2867
     88  CB        -5.8980    2.5430   95.1180 C.3   205  TRP205      0.0550
     89  CG        -4.8130    2.6320   94.0990 C.ar  205  TRP205      0.0003
     90  CD1       -3.5850    3.2030   94.2470 C.ar  205  TRP205      0.0946
     91  CD2       -4.8920    2.1850   92.7410 C.ar  205  TRP205      0.0152
     92  NE1       -2.8870    3.1300   93.0620 N.ar  205  TRP205     -0.2442
     93  CE2       -3.6700    2.5050   92.1250 C.ar  205  TRP205      0.0810
     94  CE3       -5.8860    1.5420   91.9850 C.ar  205  TRP205      0.0012
     95  CZ2       -3.4010    2.1970   90.7880 C.ar  205  TRP205      0.0191
     96  CZ3       -5.6220    1.2330   90.6600 C.ar  205  TRP205      0.0001
     97  CH2       -4.3860    1.5660   90.0730 C.ar  205  TRP205      0.0015
@<TRIPOS>BOND
     1     5     2    1
     2     5     6    1
     3    14    11    1
     4    14    15    1
     5    11    10    1
     6    11    12    1
     7     2     3    1
     8     2     1    1
     9     6     7    1
    10    12    13    2
    11     3     4    2
    12     8     7    2
    13     7     9   am
    14    15    16   ar
    15    15    17   ar
    16    16    18   ar
    17    20    21    1
    18    17    19   ar
    19    22    21    1
    20    22    23    2
    21    21    24    1
    22    18    19   ar
    23    33    32    2
    24    24    25    1
    25    26    25   ar
    26    26    28   ar
    27    83    81    1
    28    25    27   ar
    29    28    29   ar
    30    82    81    1
    31    81    78    1
    32    27    29   ar
    33    43    42    2
    34    30    31    1
    35    32    31    1
    36    46    44    1
    37    44    45    1
    38    44    41    1
    39    40    41    1
    40    31    34    1
    41    34    35    1
    42    41    42    1
    43    78    79    1
    44    78    77    1
    45    79    80    2
    46    36    35   ar
    47    36    38   ar
    48    35    37   ar
    49    77    72   am
    50    38    39   ar
    51    37    39   ar
    52    75    74    1
    53    73    72    2
    54    72    71    1
    55    68    67    1
    56    54    52    1
    57    69    67    1
    58    60    59    1
    59    74    71    1
    60    74    76    1
    61    66    67    1
    62    66    63    1
    63    71    70    1
    64    70    64   am
    65    52    53    1
    66    52    51    1
    67    61    59    1
    68    59    56    1
    69    63    64    1
    70    63    62    1
    71    64    65    2
    72    56    57    1
    73    56    55    1
    74    97    96   ar
    75    97    95   ar
    76    51    48    1
    77    57    58    2
    78    96    94   ar
    79    95    93   ar
    80    48    49    1
    81    48    47    1
    82    49    50    2
    83    94    91   ar
    84    93    91   ar
    85    93    92   ar
    86    91    89   ar
    87    92    90   ar
    88    89    90   ar
    89    89    88    1
    90    85    88    1
    91    85    86    1
    92    85    84    1
    93    86    87    2
