@<TRIPOS>MOLECULE
tmp/5wgqA00.pdb
 87 82 0 0 0
SMALL
GASTEIGER

@<TRIPOS>ATOM
      1  N        -19.2270    8.3550    6.4450 N.3    48  ILE48      -0.1245
      2  CA       -19.7540    7.0410    6.1060 C.3    48  ILE48       0.1561
      3  C        -21.2520    7.0040    6.3880 C.2    48  ILE48       0.2260
      4  O        -22.0350    6.5210    5.5660 O.2    48  ILE48      -0.2867
      5  CB       -19.0420    5.9330    6.8870 C.3    48  ILE48       0.0252
      6  CG1      -17.6060    5.7930    6.3880 C.3    48  ILE48       0.0019
      7  CG2      -19.7820    4.6170    6.7480 C.3    48  ILE48       0.0019
      8  CD1      -16.6810    5.1880    7.4040 C.3    48  ILE48       0.0001
      9  N        -24.7350    6.8330    3.3700 N.3    52  LYS52      -0.1245
     10  CA       -25.8600    5.8990    3.4000 C.3    52  LYS52       0.1561
     11  C        -27.2010    6.6110    3.2300 C.2    52  LYS52       0.2260
     12  O        -28.2160    5.9860    2.9150 O.2    52  LYS52      -0.2867
     13  CB       -25.8690    5.1060    4.7050 C.3    52  LYS52       0.0271
     14  CG       -24.6910    4.1790    4.9190 C.3    52  LYS52       0.0035
     15  CD       -25.0300    3.0990    5.9550 C.3    52  LYS52       0.0206
     16  CE       -24.5290    3.4240    7.3780 C.3    52  LYS52       0.1093
     17  NZ       -25.1270    4.6430    8.0220 N.3    52  LYS52      -0.1314
     18  N        -27.6670    5.5990   -2.9210 N.3    57  PHE57      -0.1241
     19  CA       -26.3410    5.0740   -2.6000 C.3    57  PHE57       0.1605
     20  C        -26.4030    3.6630   -2.0160 C.2    57  PHE57       0.2264
     21  O        -25.6790    2.7800   -2.4680 O.2    57  PHE57      -0.2867
     22  CB       -25.6060    6.0070   -1.6330 C.3    57  PHE57       0.0534
     23  CG       -24.1820    5.5920   -1.3470 C.ar   57  PHE57      -0.0203
     24  CD1      -23.1450    6.0090   -2.1660 C.ar   57  PHE57      -0.0042
     25  CD2      -23.8850    4.7920   -0.2540 C.ar   57  PHE57      -0.0042
     26  CE1      -21.8400    5.6310   -1.9060 C.ar   57  PHE57      -0.0003
     27  CE2      -22.5840    4.4120    0.0120 C.ar   57  PHE57      -0.0003
     28  CZ       -21.5580    4.8330   -0.8170 C.ar   57  PHE57      -0.0000
     29  N        -22.1740   -3.4940   -1.5240 N.3    62  LEU62      -0.1231
     30  CA       -21.2270   -2.9920   -0.5360 C.3    62  LEU62       0.1693
     31  C        -19.8720   -2.6960   -1.1780 C.2    62  LEU62       0.2592
     32  O        -19.2630   -1.6620   -0.9010 O.2    62  LEU62      -0.2718
     33  CB       -21.0640   -3.9820    0.6190 C.3    62  LEU62       0.0284
     34  CG       -22.2010   -4.0180    1.6460 C.3    62  LEU62       0.0019
     35  CD1      -21.7220   -4.6460    2.9480 C.3    62  LEU62       0.0001
     36  CD2      -22.7680   -2.6180    1.8920 C.3    62  LEU62       0.0001
     37  N        -19.4180   -3.6020   -2.0440 N.am   63  HIS63      -0.1976
     38  CA       -18.1490   -3.4430   -2.7500 C.3    63  HIS63       0.1656
     39  C        -18.0850   -2.1100   -3.4930 C.2    63  HIS63       0.2291
     40  O        -17.0970   -1.3840   -3.3980 O.2    63  HIS63      -0.2864
     41  CB       -17.9340   -4.6030   -3.7290 C.3    63  HIS63       0.0771
     42  CG       -16.5250   -4.7370   -4.2010 C.ar   63  HIS63       0.0820
     43  ND1      -15.5870   -5.4950   -3.5420 N.ar   63  HIS63      -0.2267
     44  CD2      -15.9060   -4.2400   -5.2930 C.ar   63  HIS63       0.1154
     45  CE1      -14.4560   -5.4960   -4.2230 C.ar   63  HIS63       0.1986
     46  NE2      -14.6240   -4.7430   -5.2940 N.ar   63  HIS63      -0.2212
     47  N        -20.0720    0.6000   -2.9930 N.3    65  GLN65      -0.1231
     48  CA       -20.1460    1.6490   -1.9790 C.3    65  GLN65       0.1698
     49  C        -18.7690    1.9430   -1.3950 C.2    65  GLN65       0.2592
     50  O        -18.3770    3.1030   -1.2570 O.2    65  GLN65      -0.2718
     51  CB       -21.1160    1.2510   -0.8590 C.3    65  GLN65       0.0381
     52  CG       -22.5790    1.2030   -1.2710 C.3    65  GLN65       0.0905
     53  CD       -23.4830    0.6620   -0.1730 C.2    65  GLN65       0.2608
     54  OE1      -23.2600    0.9120    1.0130 O.2    65  GLN65      -0.2717
     55  NE2      -24.5060   -0.0910   -0.5650 N.am   65  GLN65      -0.0878
     56  N        -18.0430    0.8810   -1.0550 N.am   66  VAL66      -0.1980
     57  CA       -16.6810    0.9870   -0.5420 C.3    66  VAL66       0.1595
     58  C        -15.7670    1.6880   -1.5350 C.2    66  VAL66       0.2287
     59  O        -14.9670    2.5520   -1.1640 O.2    66  VAL66      -0.2864
     60  CB       -16.0900   -0.4050   -0.2200 C.3    66  VAL66       0.0276
     61  CG1      -14.5640   -0.3490   -0.1530 C.3    66  VAL66       0.0022
     62  CG2      -16.6820   -0.9610    1.0700 C.3    66  VAL66       0.0022
     63  N        -16.3730    5.4150   -1.9200 N.3    69  LEU69      -0.1231
     64  CA       -16.0020    6.1830   -0.7690 C.3    69  LEU69       0.1693
     65  C        -14.5130    6.3050   -0.6780 C.2    69  LEU69       0.2591
     66  O        -14.0240    7.3480   -0.4230 O.2    69  LEU69      -0.2718
     67  CB       -16.6030    5.6490    0.5120 C.3    69  LEU69       0.0284
     68  CG       -17.7540    6.4740    1.0590 C.3    69  LEU69       0.0019
     69  CD1      -18.7140    5.6220    1.8620 C.3    69  LEU69       0.0001
     70  CD2      -17.2920    7.6790    1.8310 C.3    69  LEU69       0.0001
     71  N        -13.8140    5.2190   -0.9280 N.am   70  GLU70      -0.1979
     72  CA       -12.3760    5.2540   -1.0170 C.3    70  GLU70       0.1602
     73  C        -11.9240    6.2220   -2.0480 C.2    70  GLU70       0.2287
     74  O        -10.9990    6.9190   -1.8490 O.2    70  GLU70      -0.2864
     75  CB       -11.8220    3.9140   -1.3780 C.3    70  GLU70       0.0415
     76  CG       -11.9300    2.8930   -0.2820 C.3    70  GLU70       0.1163
     77  CD       -11.5890    1.5250   -0.7560 C.2    70  GLU70       0.3649
     78  OE1      -11.2600    0.7040    0.0670 O.co2  70  GLU70      -0.2457
     79  OE2      -11.6190    1.2790   -1.9500 O.co2  70  GLU70      -0.2457
     80  N         -7.8220    4.2090    3.8110 N.3   227  MET227     -0.1245
     81  CA        -8.3520    5.0670    2.7500 C.3   227  MET227      0.1570
     82  C         -7.2080    5.5850    1.8880 C.2   227  MET227      0.2261
     83  O         -7.3160    5.6780    0.6660 O.2   227  MET227     -0.2867
     84  CB        -9.1390    6.2430    3.3340 C.3   227  MET227      0.0387
     85  CG       -10.2390    5.8560    4.3110 C.3   227  MET227      0.0595
     86  SD       -11.6680    5.0510    3.5660 S.3   227  MET227     -0.1393
     87  CE       -12.6450    6.4590    3.0640 C.3   227  MET227      0.0692
@<TRIPOS>BOND
     1    46    44   ar
     2    46    45   ar
     3    44    42   ar
     4    45    43   ar
     5    42    41    1
     6    42    43   ar
     7    41    38    1
     8    39    40    2
     9    39    38    1
    10    47    48    1
    11    18    19    1
    12    38    37    1
    13    19    20    1
    14    19    22    1
    15    21    20    2
    16    24    26   ar
    17    24    23   ar
    18    73    74    2
    19    73    72    1
    20    37    31   am
    21    48    49    1
    22    48    51    1
    23    79    77   ar
    24    63    64    1
    25    26    28   ar
    26    22    23    1
    27    58    59    2
    28    58    57    1
    29    29    30    1
    30    49    50    2
    31    49    56   am
    32    75    72    1
    33    75    76    1
    34    23    25   ar
    35    52    51    1
    36    52    53    1
    37    31    32    2
    38    31    30    1
    39    56    57    1
    40    72    71    1
    41    71    65   am
    42    28    27   ar
    43    64    65    1
    44    64    67    1
    45    77    76    1
    46    77    78   ar
    47    65    66    2
    48    55    53   am
    49    57    60    1
    50    30    33    1
    51    25    27   ar
    52    60    61    1
    53    60    62    1
    54    53    54    2
    55    67    68    1
    56    33    34    1
    57    83    82    2
    58    68    70    1
    59    68    69    1
    60    34    36    1
    61    34    35    1
    62    82    81    1
    63    81    84    1
    64    81    80    1
    65    12    11    2
    66    87    86    1
    67    11    10    1
    68    84    85    1
    69     9    10    1
    70    10    13    1
    71    86    85    1
    72    13    14    1
    73    14    15    1
    74     4     3    2
    75    15    16    1
    76     2     3    1
    77     2     1    1
    78     2     5    1
    79     6     5    1
    80     6     8    1
    81     7     5    1
    82    16    17    1
