@<TRIPOS>MOLECULE
tmp/5wgzA01.pdb
 211 208 0 0 0
SMALL
GASTEIGER

@<TRIPOS>ATOM
      1  N         57.1910   31.2030   64.6970 N.3    82  LEU82      -0.1231
      2  CA        56.0200   30.9710   65.5370 C.3    82  LEU82       0.1678
      3  C         56.1250   31.7730   66.8320 C.2    82  LEU82       0.2434
      4  O         57.1630   32.4010   67.0750 O.2    82  LEU82      -0.2733
      5  CB        55.8850   29.4710   65.8060 C.3    82  LEU82       0.0284
      6  CG        55.5440   28.6800   64.5330 C.3    82  LEU82       0.0019
      7  CD1       55.6330   27.1820   64.7860 C.3    82  LEU82       0.0001
      8  CD2       54.1670   29.0640   63.9960 C.3    82  LEU82       0.0001
      9  N         55.0760   31.8010   67.6680 N.am   83  PRO83      -0.2729
     10  CA        55.1430   32.5950   68.9120 C.3    83  PRO83       0.1401
     11  C         56.3470   32.3140   69.7990 C.2    83  PRO83       0.2269
     12  O         56.8530   33.2480   70.4300 O.2    83  PRO83      -0.2865
     13  CB        53.8330   32.2240   69.6140 C.3    83  PRO83       0.0296
     14  CG        52.8690   32.0030   68.4510 C.3    83  PRO83       0.0237
     15  CD        53.6970   31.3410   67.3860 C.3    83  PRO83       0.0939
     16  N         47.9600   30.4510   60.9750 N.3   109  LEU109     -0.1245
     17  CA        48.1760   29.4320   59.9620 C.3   109  LEU109      0.1561
     18  C         46.8400   29.0980   59.3250 C.2   109  LEU109      0.2260
     19  O         45.8410   28.9200   60.0300 O.2   109  LEU109     -0.2867
     20  CB        48.7970   28.1650   60.5630 C.3   109  LEU109      0.0270
     21  CG        50.2730   28.1570   60.9470 C.3   109  LEU109      0.0019
     22  CD1       50.5050   28.8690   62.2790 C.3   109  LEU109      0.0001
     23  CD2       50.7930   26.7140   60.9820 C.3   109  LEU109      0.0001
     24  N         42.9940   29.6600   61.4150 N.3   127  SER127     -0.1202
     25  CA        43.3120   30.0470   62.7770 C.3   127  SER127      0.2020
     26  C         43.9940   31.4040   62.7480 C.2   127  SER127      0.2619
     27  O         44.7120   31.7320   61.8000 O.2   127  SER127     -0.2717
     28  CB        44.2100   29.0180   63.4570 C.3   127  SER127      0.2103
     29  OG        45.5240   29.0860   62.9340 O.3   127  SER127     -0.2182
     30  N         43.7680   32.1860   63.7940 N.am  128  VAL128     -0.1965
     31  CA        44.3510   33.5070   63.9090 C.3   128  VAL128      0.1727
     32  C         45.5650   33.4470   64.8290 C.2   128  VAL128      0.2617
     33  O         45.8240   32.4440   65.4900 O.2   128  VAL128     -0.2715
     34  CB        43.3190   34.5450   64.4080 C.3   128  VAL128      0.0290
     35  CG1       42.1870   34.6800   63.4030 C.3   128  VAL128      0.0023
     36  CG2       42.7820   34.1420   65.7740 C.3   128  VAL128      0.0023
     37  N         46.3390   34.5310   64.8500 N.am  129  GLY129     -0.1940
     38  CA        47.4410   34.6690   65.7830 C.3   129  GLY129      0.2014
     39  C         47.0000   35.3020   67.0900 C.2   129  GLY129      0.2639
     40  O         46.2240   34.7050   67.8370 O.2   129  GLY129     -0.2714
     41  N         47.4530   36.5170   67.3640 N.am  130  ALA130     -0.1963
     42  CA        47.2140   37.1720   68.6390 C.3   130  ALA130      0.1713
     43  C         47.0100   38.6630   68.4180 C.2   130  ALA130      0.2458
     44  O         47.4160   39.2050   67.3840 O.2   130  ALA130     -0.2730
     45  CB        48.3880   36.9390   69.6010 C.3   130  ALA130      0.0333
     46  N         46.3770   39.3550   69.3700 N.am  131  PRO131     -0.2727
     47  CA        46.2820   40.8150   69.2730 C.3   131  PRO131      0.1402
     48  C         47.6600   41.4570   69.2600 C.2   131  PRO131      0.2269
     49  O         48.6430   40.8990   69.7550 O.2   131  PRO131     -0.2865
     50  CB        45.4990   41.2130   70.5320 C.3   131  PRO131      0.0296
     51  CG        44.7620   39.9940   70.9320 C.3   131  PRO131      0.0237
     52  CD        45.6100   38.8290   70.5130 C.3   131  PRO131      0.0939
     53  N         49.4560   41.6730   72.4060 N.3   134  VAL134     -0.1231
     54  CA        49.8640   40.4170   73.0250 C.3   134  VAL134      0.1692
     55  C         51.2040   39.9930   72.4330 C.2   134  VAL134      0.2591
     56  O         52.2220   39.9930   73.1350 O.2   134  VAL134     -0.2718
     57  CB        48.7910   39.3310   72.8390 C.3   134  VAL134      0.0266
     58  CG1       49.2890   37.9960   73.3760 C.3   134  VAL134      0.0020
     59  CG2       47.5070   39.7480   73.5360 C.3   134  VAL134      0.0020
     60  N         51.2240   39.6490   71.1420 N.am  135  LEU135     -0.1980
     61  CA        52.4640   39.2850   70.4570 C.3   135  LEU135      0.1596
     62  C         52.2390   39.3000   68.9420 C.2   135  LEU135      0.2287
     63  O         51.1440   39.5900   68.4480 O.2   135  LEU135     -0.2864
     64  CB        52.9860   37.9220   70.9270 C.3   135  LEU135      0.0297
     65  CG        52.1510   36.6450   70.7650 C.3   135  LEU135      0.0022
     66  CD1       52.1990   36.0810   69.3390 C.3   135  LEU135      0.0001
     67  CD2       52.6140   35.5880   71.7620 C.3   135  LEU135      0.0001
     68  N         46.9880   21.6940   66.6740 N.3   487  PHE487     -0.1241
     69  CA        46.7970   22.9190   67.4300 C.3   487  PHE487      0.1605
     70  C         46.3270   22.6540   68.8530 C.2   487  PHE487      0.2264
     71  O         46.7140   23.3920   69.7610 O.2   487  PHE487     -0.2867
     72  CB        45.8390   23.8360   66.6790 C.3   487  PHE487      0.0534
     73  CG        46.4170   24.3430   65.3960 C.ar  487  PHE487     -0.0203
     74  CD1       47.5500   25.1270   65.4100 C.ar  487  PHE487     -0.0042
     75  CD2       45.8750   23.9930   64.1810 C.ar  487  PHE487     -0.0042
     76  CE1       48.1030   25.5930   64.2410 C.ar  487  PHE487     -0.0003
     77  CE2       46.4340   24.4490   63.0080 C.ar  487  PHE487     -0.0003
     78  CZ        47.5440   25.2520   63.0400 C.ar  487  PHE487     -0.0000
     79  N         49.4880   24.0460   70.9670 N.3   491  ILE491     -0.1231
     80  CA        49.4030   25.4530   71.3370 C.3   491  ILE491      0.1692
     81  C         50.2440   25.6900   72.5920 C.2   491  ILE491      0.2591
     82  O         50.3610   24.8190   73.4660 O.2   491  ILE491     -0.2718
     83  CB        47.9320   25.8720   71.5120 C.3   491  ILE491      0.0266
     84  CG1       47.8020   27.3910   71.5800 C.3   491  ILE491      0.0019
     85  CG2       47.3010   25.2200   72.7370 C.3   491  ILE491      0.0020
     86  CD1       46.4920   27.8930   71.0230 C.3   491  ILE491      0.0001
     87  N         50.8680   26.8700   72.6660 N.am  492  GLU492     -0.1979
     88  CA        51.9440   27.1290   73.6310 C.3   492  GLU492      0.1602
     89  C         51.3590   27.6540   74.9410 C.2   492  GLU492      0.2287
     90  O         51.4150   28.8460   75.2580 O.2   492  GLU492     -0.2864
     91  CB        52.9560   28.1100   73.0450 C.3   492  GLU492      0.0415
     92  CG        53.5440   27.6930   71.7080 C.3   492  GLU492      0.1163
     93  CD        52.8400   28.3400   70.5190 C.2   492  GLU492      0.3649
     94  OE1       51.6070   28.5460   70.5780 O.co2 492  GLU492     -0.2457
     95  OE2       53.5270   28.6460   69.5220 O.co2 492  GLU492     -0.2457
     96  N         52.9990   30.3760   77.7010 N.3   495  LEU495     -0.1245
     97  CA        54.1290   31.0450   77.0610 C.3   495  LEU495      0.1561
     98  C         54.4370   32.3830   77.7280 C.2   495  LEU495      0.2260
     99  O         55.6050   32.7800   77.8170 O.2   495  LEU495     -0.2867
    100  CB        53.8390   31.2350   75.5740 C.3   495  LEU495      0.0270
    101  CG        54.8950   31.8680   74.6610 C.3   495  LEU495      0.0019
    102  CD1       56.1410   30.9950   74.6100 C.3   495  LEU495      0.0001
    103  CD2       54.3230   32.0920   73.2550 C.3   495  LEU495      0.0001
    104  N         55.9710   20.9830   69.4490 N.3   512  TRP512     -0.1241
    105  CA        54.7120   21.1570   68.7160 C.3   512  TRP512      0.1605
    106  C         53.6200   20.2070   69.2090 C.2   512  TRP512      0.2264
    107  O         52.6830   19.8900   68.4680 O.2   512  TRP512     -0.2867
    108  CB        54.9080   20.9710   67.2030 C.3   512  TRP512      0.0550
    109  CG        54.7130   22.2240   66.4060 C.ar  512  TRP512      0.0003
    110  CD1       55.6490   22.8670   65.6520 C.ar  512  TRP512      0.0946
    111  CD2       53.5040   22.9870   66.2830 C.ar  512  TRP512      0.0152
    112  NE1       55.1010   23.9850   65.0670 N.ar  512  TRP512     -0.2442
    113  CE2       53.7850   24.0810   65.4360 C.ar  512  TRP512      0.0810
    114  CE3       52.2130   22.8550   66.8090 C.ar  512  TRP512      0.0012
    115  CZ2       52.8260   25.0380   65.1070 C.ar  512  TRP512      0.0191
    116  CZ3       51.2580   23.8060   66.4770 C.ar  512  TRP512      0.0001
    117  CH2       51.5720   24.8850   65.6310 C.ar  512  TRP512      0.0015
    118  N         43.6160   24.3660   80.8910 N.3   564  PHE564     -0.1241
    119  CA        44.0140   25.6660   80.3650 C.3   564  PHE564      0.1605
    120  C         42.8140   26.3540   79.7190 C.2   564  PHE564      0.2264
    121  O         42.1810   25.7980   78.8150 O.2   564  PHE564     -0.2867
    122  CB        45.1490   25.4950   79.3570 C.3   564  PHE564      0.0534
    123  CG        45.7790   26.7860   78.9240 C.ar  564  PHE564     -0.0203
    124  CD1       46.6430   27.4640   79.7650 C.ar  564  PHE564     -0.0042
    125  CD2       45.5190   27.3130   77.6670 C.ar  564  PHE564     -0.0042
    126  CE1       47.2290   28.6530   79.3650 C.ar  564  PHE564     -0.0003
    127  CE2       46.1070   28.4970   77.2620 C.ar  564  PHE564     -0.0003
    128  CZ        46.9590   29.1670   78.1100 C.ar  564  PHE564     -0.0000
    129  N         40.9500   28.8210   77.3230 N.3   566  LEU566     -0.1231
    130  CA        41.2690   29.3790   76.0150 C.3   566  LEU566      0.1693
    131  C         39.9870   29.5410   75.2150 C.2   566  LEU566      0.2592
    132  O         39.1630   28.6230   75.1760 O.2   566  LEU566     -0.2718
    133  CB        42.2530   28.4720   75.2660 C.3   566  LEU566      0.0284
    134  CG        43.0390   29.1320   74.1400 C.3   566  LEU566      0.0019
    135  CD1       44.1360   29.9980   74.7070 C.3   566  LEU566      0.0001
    136  CD2       43.6110   28.0900   73.2090 C.3   566  LEU566      0.0001
    137  N         39.8150   30.7070   74.5840 N.am  567  ARG567     -0.1966
    138  CA        38.6480   30.9640   73.7330 C.3   567  ARG567      0.1729
    139  C         38.8600   30.2790   72.3810 C.2   567  ARG567      0.2616
    140  O         39.1250   30.9090   71.3520 O.2   567  ARG567     -0.2715
    141  CB        38.4130   32.4610   73.5710 C.3   567  ARG567      0.0348
    142  CG        38.0500   33.1870   74.8580 C.3   567  ARG567      0.0492
    143  CD        38.3160   34.6900   74.7690 C.3   567  ARG567      0.2205
    144  NE        37.5110   35.3520   73.7450 N.pl3 567  ARG567     -0.0865
    145  CZ        37.9930   35.8140   72.5930 C.cat 567  ARG567      0.5346
    146  NH1       39.2870   35.6890   72.3100 N.pl3 567  ARG567      0.1354
    147  NH2       37.1820   36.4040   71.7240 N.pl3 567  ARG567      0.1354
    148  N         38.7350   28.9480   72.4040 N.am  568  TRP568     -0.1974
    149  CA        38.9970   28.1460   71.2130 C.3   568  TRP568      0.1640
    150  C         38.1390   28.5850   70.0330 C.2   568  TRP568      0.2290
    151  O         38.6220   28.6510   68.8960 O.2   568  TRP568     -0.2864
    152  CB        38.7620   26.6680   71.5150 C.3   568  TRP568      0.0576
    153  CG        39.8720   26.0300   72.2810 C.ar  568  TRP568      0.0006
    154  CD1       39.8490   25.6340   73.5870 C.ar  568  TRP568      0.0946
    155  CD2       41.1800   25.7230   71.7900 C.ar  568  TRP568      0.0152
    156  NE1       41.0640   25.0920   73.9380 N.ar  568  TRP568     -0.2442
    157  CE2       41.8980   25.1330   72.8520 C.ar  568  TRP568      0.0810
    158  CE3       41.8150   25.8900   70.5540 C.ar  568  TRP568      0.0012
    159  CZ2       43.2180   24.7050   72.7150 C.ar  568  TRP568      0.0191
    160  CZ3       43.1260   25.4640   70.4210 C.ar  568  TRP568      0.0001
    161  CH2       43.8120   24.8780   71.4950 C.ar  568  TRP568      0.0015
    162  N         39.6570   31.4320   68.1830 N.3   571  ILE571     -0.1231
    163  CA        40.9480   31.2010   67.5520 C.3   571  ILE571      0.1692
    164  C         40.8310   30.2810   66.3430 C.2   571  ILE571      0.2591
    165  O         41.4800   30.5120   65.3220 O.2   571  ILE571     -0.2718
    166  CB        41.9340   30.6330   68.5930 C.3   571  ILE571      0.0266
    167  CG1       42.1060   31.6290   69.7340 C.3   571  ILE571      0.0019
    168  CG2       43.2720   30.3070   67.9470 C.3   571  ILE571      0.0020
    169  CD1       42.8270   31.0520   70.9280 C.3   571  ILE571      0.0001
    170  N         40.0140   29.2330   66.4430 N.am  572  LEU572     -0.1980
    171  CA        39.7780   28.3040   65.3420 C.3   572  LEU572      0.1596
    172  C         38.4360   28.6490   64.7100 C.2   572  LEU572      0.2287
    173  O         37.3860   28.4840   65.3390 O.2   572  LEU572     -0.2864
    174  CB        39.8030   26.8600   65.8350 C.3   572  LEU572      0.0297
    175  CG        41.0910   26.4490   66.5400 C.3   572  LEU572      0.0022
    176  CD1       41.0590   24.9650   66.8800 C.3   572  LEU572      0.0001
    177  CD2       42.3030   26.7950   65.6710 C.3   572  LEU572      0.0001
    178  N         42.5260   40.4140   64.2640 N.3   591  TYR591     -0.1241
    179  CA        43.6770   41.0880   64.8460 C.3   591  TYR591      0.1605
    180  C         44.4750   41.9170   63.8490 C.2   591  TYR591      0.2264
    181  O         45.4080   42.6140   64.2660 O.2   591  TYR591     -0.2867
    182  CB        44.6260   40.0670   65.4890 C.3   591  TYR591      0.0534
    183  CG        44.0250   39.1710   66.5540 C.ar  591  TYR591     -0.0201
    184  CD1       43.1490   39.6680   67.5190 C.ar  591  TYR591     -0.0009
    185  CD2       44.3500   37.8200   66.5990 C.ar  591  TYR591     -0.0009
    186  CE1       42.6110   38.8300   68.4980 C.ar  591  TYR591      0.0417
    187  CE2       43.8290   36.9880   67.5640 C.ar  591  TYR591      0.0417
    188  CZ        42.9650   37.4900   68.5100 C.ar  591  TYR591      0.1957
    189  OH        42.4560   36.6300   69.4530 O.3   591  TYR591     -0.2866
    190  N         43.9170   40.4560   79.5740 N.3   639  LEU639     -0.1245
    191  CA        44.6880   39.7680   78.5420 C.3   639  LEU639      0.1561
    192  C         45.9860   40.5110   78.2390 C.2   639  LEU639      0.2260
    193  O         47.0740   39.9270   78.2670 O.2   639  LEU639     -0.2867
    194  CB        43.8360   39.6130   77.2790 C.3   639  LEU639      0.0270
    195  CG        44.5140   39.1160   75.9990 C.3   639  LEU639      0.0019
    196  CD1       45.2330   37.8060   76.2550 C.3   639  LEU639      0.0001
    197  CD2       43.4900   38.9550   74.8770 C.3   639  LEU639      0.0001
    198  N         50.7110   39.8950   79.1180 N.3   643  TRP643     -0.1241
    199  CA        51.7100   39.7450   78.0700 C.3   643  TRP643      0.1605
    200  C         52.6650   40.9210   77.9350 C.2   643  TRP643      0.2264
    201  O         53.6560   40.8070   77.2040 O.2   643  TRP643     -0.2867
    202  CB        51.0230   39.5080   76.7190 C.3   643  TRP643      0.0550
    203  CG        50.3930   38.1690   76.6330 C.ar  643  TRP643      0.0003
    204  CD1       49.1120   37.8360   76.9800 C.ar  643  TRP643      0.0946
    205  CD2       51.0160   36.9630   76.1780 C.ar  643  TRP643      0.0152
    206  NE1       48.8990   36.4950   76.7560 N.ar  643  TRP643     -0.2442
    207  CE2       50.0520   35.9360   76.2640 C.ar  643  TRP643      0.0810
    208  CE3       52.2960   36.6520   75.7000 C.ar  643  TRP643      0.0012
    209  CZ2       50.3270   34.6190   75.8890 C.ar  643  TRP643      0.0191
    210  CZ3       52.5680   35.3450   75.3290 C.ar  643  TRP643      0.0001
    211  CH2       51.5870   34.3450   75.4240 C.ar  643  TRP643      0.0015
@<TRIPOS>BOND
     1    18    17    1
     2    18    19    2
     3    17    20    1
     4    17    16    1
     5    20    21    1
     6    21    23    1
     7    21    22    1
     8    24    25    1
     9    27    26    2
    10    26    25    1
    11    26    30   am
    12    25    28    1
    13    29    28    1
    14    77    78   ar
    15    77    75   ar
    16    78    76   ar
    17    35    34    1
    18    30    31    1
    19   180   181    2
    20   180   179    1
    21    31    34    1
    22    31    32    1
    23     8     6    1
    24    75    73   ar
    25    76    74   ar
    26   178   179    1
    27    34    36    1
    28     6     7    1
    29     6     5    1
    30     1     2    1
    31   172   173    2
    32   172   171    1
    33    32    37   am
    34    32    33    2
    35   179   182    1
    36    37    38    1
    37   112   113   ar
    38   112   110   ar
    39   115   113   ar
    40   115   117   ar
    41   165   164    2
    42   171   174    1
    43   171   170    1
    44    73    74   ar
    45    73    72    1
    46   113   111   ar
    47   182   183    1
    48     2     5    1
    49     2     3    1
    50   117   116   ar
    51   110   109   ar
    52   177   175    1
    53    38    39    1
    54   174   175    1
    55   111   109   ar
    56   111   114   ar
    57   164   170   am
    58   164   163    1
    59   109   108    1
    60   116   114   ar
    61   175   176    1
    62   183   185   ar
    63   183   184   ar
    64   185   187   ar
    65    68    69    1
    66    72    69    1
    67     3     4    2
    68     3     9   am
    69    39    41   am
    70    39    40    2
    71   108   105    1
    72    41    42    1
    73    44    43    2
    74    15     9    1
    75    15    14    1
    76    69    70    1
    77   184   186   ar
    78   163   162    1
    79   163   166    1
    80   187   188   ar
    81     9    10    1
    82   168   166    1
    83    43    42    1
    84    43    46   am
    85    63    62    2
    86    14    13    1
    87   107   106    2
    88   186   188   ar
    89   188   189    1
    90   166   167    1
    91    42    45    1
    92   105   106    1
    93   105   104    1
    94    70    71    2
    95   151   150    2
    96    10    13    1
    97    10    11    1
    98    62    61    1
    99    48    47    1
   100    48    49    2
   101    47    46    1
   102    47    50    1
   103    66    65    1
   104    46    52    1
   105    95    93   ar
   106   167   169    1
   107    11    12    2
   108   150   149    1
   109   160   158   ar
   110   160   161   ar
   111    61    64    1
   112    61    60    1
   113    52    51    1
   114    93    94   ar
   115    93    92    1
   116    50    51    1
   117   158   155   ar
   118    65    64    1
   119    65    67    1
   120    79    80    1
   121    86    84    1
   122    60    55   am
   123   149   152    1
   124   149   148    1
   125    80    83    1
   126    80    81    1
   127   140   139    2
   128   161   159   ar
   129    83    84    1
   130    83    85    1
   131   152   153    1
   132    92    91    1
   133   147   145    1
   134   155   153   ar
   135   155   157   ar
   136   153   154   ar
   137   146   145    1
   138   139   148   am
   139   139   138    1
   140    53    54    1
   141    55    54    1
   142    55    56    2
   143    81    87   am
   144    81    82    2
   145   145   144    2
   146    87    88    1
   147   159   157   ar
   148    57    54    1
   149    57    58    1
   150    57    59    1
   151   157   156   ar
   152    91    88    1
   153   136   134    1
   154   103   101    1
   155   141   138    1
   156   141   142    1
   157   154   156   ar
   158    88    89    1
   159   138   137    1
   160   144   143    1
   161   134   135    1
   162   134   133    1
   163   137   131   am
   164   102   101    1
   165   101   100    1
   166   143   142    1
   167   197   195    1
   168    89    90    2
   169   132   131    2
   170   131   130    1
   171   133   130    1
   172   210   211   ar
   173   210   208   ar
   174   211   209   ar
   175   100    97    1
   176   208   205   ar
   177   209   207   ar
   178   195   196    1
   179   195   194    1
   180   130   129    1
   181   205   207   ar
   182   205   203   ar
   183   207   206   ar
   184   203   202    1
   185   203   204   ar
   186   202   199    1
   187   206   204   ar
   188    97    96    1
   189    97    98    1
   190   201   200    2
   191   127   125   ar
   192   127   128   ar
   193   194   191    1
   194   125   123   ar
   195    98    99    2
   196   200   199    1
   197   199   198    1
   198   128   126   ar
   199   192   193    2
   200   192   191    1
   201   191   190    1
   202   121   120    2
   203   123   122    1
   204   123   124   ar
   205   122   119    1
   206   126   124   ar
   207   120   119    1
   208   119   118    1
