@<TRIPOS>MOLECULE
tmp/5wgzA02.pdb
 103 101 0 0 0
SMALL
GASTEIGER

@<TRIPOS>ATOM
      1  N         69.0010   25.0180   74.6770 N.3   419  TRP419     -0.1241
      2  CA        69.4570   24.1060   75.7250 C.3   419  TRP419      0.1605
      3  C         70.9720   23.9450   75.6720 C.2   419  TRP419      0.2264
      4  O         71.6570   24.0530   76.6960 O.2   419  TRP419     -0.2867
      5  CB        68.7660   22.7470   75.5990 C.3   419  TRP419      0.0550
      6  CG        68.8360   21.9070   76.8610 C.ar  419  TRP419      0.0003
      7  CD1       69.2900   22.3010   78.0930 C.ar  419  TRP419      0.0946
      8  CD2       68.4410   20.5350   76.9990 C.ar  419  TRP419      0.0152
      9  NE1       69.1990   21.2570   78.9870 N.ar  419  TRP419     -0.2442
     10  CE2       68.6850   20.1610   78.3430 C.ar  419  TRP419      0.0810
     11  CE3       67.9110   19.5820   76.1130 C.ar  419  TRP419      0.0012
     12  CZ2       68.3990   18.8800   78.8290 C.ar  419  TRP419      0.0191
     13  CZ3       67.6330   18.3060   76.5910 C.ar  419  TRP419      0.0001
     14  CH2       67.8810   17.9660   77.9460 C.ar  419  TRP419      0.0015
     15  N         72.6020   26.9720   77.2600 N.3   422  GLN422     -0.1245
     16  CA        72.5920   26.9680   78.7170 C.3   422  GLN422      0.1566
     17  C         73.6170   25.9820   79.2550 C.2   422  GLN422      0.2260
     18  O         74.3520   26.2920   80.2010 O.2   422  GLN422     -0.2867
     19  CB        71.1840   26.6370   79.2160 C.3   422  GLN422      0.0367
     20  CG        71.0210   26.6340   80.7030 C.3   422  GLN422      0.0905
     21  CD        69.5630   26.5180   81.1190 C.2   422  GLN422      0.2608
     22  OE1       68.6500   26.6870   80.3030 O.2   422  GLN422     -0.2717
     23  NE2       69.3370   26.2340   82.3960 N.am  422  GLN422     -0.0878
     24  N         65.6950   32.5540   81.6870 N.3   501  GLU501     -0.1245
     25  CA        66.1570   31.4690   82.5410 C.3   501  GLU501      0.1567
     26  C         65.4370   30.1640   82.2260 C.2   501  GLU501      0.2260
     27  O         66.0720   29.1060   82.1320 O.2   501  GLU501     -0.2867
     28  CB        65.9650   31.8470   84.0100 C.3   501  GLU501      0.0388
     29  CG        66.4310   30.7800   84.9600 C.3   501  GLU501      0.1160
     30  CD        67.9260   30.5480   84.8710 C.2   501  GLU501      0.3649
     31  OE1       68.6730   31.5460   84.7960 O.co2 501  GLU501     -0.2457
     32  OE2       68.3530   29.3720   84.8630 O.co2 501  GLU501     -0.2457
     33  N         64.8820   27.4330   77.6680 N.3   504  ALA504     -0.1231
     34  CA        65.2710   26.1270   77.1400 C.3   504  ALA504      0.1694
     35  C         64.4370   25.0020   77.7510 C.2   504  ALA504      0.2592
     36  O         64.0120   24.0800   77.0420 O.2   504  ALA504     -0.2718
     37  CB        66.7620   25.8850   77.3850 C.3   504  ALA504      0.0304
     38  N         64.1790   25.0700   79.0630 N.am  505  HIS505     -0.1976
     39  CA        63.3960   24.0260   79.7220 C.3   505  HIS505      0.1656
     40  C         61.9730   23.9810   79.1730 C.2   505  HIS505      0.2291
     41  O         61.4440   22.9020   78.8810 O.2   505  HIS505     -0.2864
     42  CB        63.3890   24.2510   81.2380 C.3   505  HIS505      0.0771
     43  CG        62.7840   23.1210   82.0170 C.ar  505  HIS505      0.0820
     44  ND1       62.4380   23.2350   83.3470 N.ar  505  HIS505     -0.2267
     45  CD2       62.4670   21.8530   81.6540 C.ar  505  HIS505      0.1154
     46  CE1       61.9340   22.0890   83.7700 C.ar  505  HIS505      0.1986
     47  NE2       61.9420   21.2330   82.7650 N.ar  505  HIS505     -0.2212
     48  N         62.0820   22.5760   75.3230 N.3   508  ILE508     -0.1231
     49  CA        62.2470   21.1440   75.1180 C.3   508  ILE508      0.1692
     50  C         61.0210   20.3510   75.5370 C.2   508  ILE508      0.2591
     51  O         60.9410   19.1580   75.2340 O.2   508  ILE508     -0.2718
     52  CB        63.5020   20.6140   75.8450 C.3   508  ILE508      0.0266
     53  CG1       63.3590   20.7640   77.3640 C.3   508  ILE508      0.0019
     54  CG2       64.7560   21.3240   75.3090 C.3   508  ILE508      0.0020
     55  CD1       64.5400   20.2340   78.1460 C.3   508  ILE508      0.0001
     56  N         60.0550   20.9810   76.2080 N.am  509  LYS509     -0.1980
     57  CA        58.8170   20.3120   76.5900 C.3   509  LYS509      0.1596
     58  C         57.6950   20.5240   75.5830 C.2   509  LYS509      0.2287
     59  O         56.6120   19.9450   75.7490 O.2   509  LYS509     -0.2864
     60  CB        58.3600   20.7920   77.9750 C.3   509  LYS509      0.0298
     61  CG        59.3180   20.4280   79.0860 C.3   509  LYS509      0.0038
     62  CD        59.2980   18.9290   79.3680 C.3   509  LYS509      0.0206
     63  CE        60.1990   18.5890   80.5630 C.3   509  LYS509      0.1093
     64  NZ        60.0010   17.1940   81.0300 N.3   509  LYS509     -0.1314
     65  N         63.4410   30.7880   91.5910 N.3   651  PRO651     -0.2102
     66  CA        64.0280   29.4400   91.5000 C.3   651  PRO651      0.1504
     67  C         63.1580   28.3360   92.0910 C.2   651  PRO651      0.2576
     68  O         63.5200   27.1610   91.9470 O.2   651  PRO651     -0.2718
     69  CB        65.3460   29.5750   92.2780 C.3   651  PRO651      0.0282
     70  CG        65.6820   31.0220   92.2120 C.3   651  PRO651      0.0208
     71  CD        64.3660   31.7560   92.2070 C.3   651  PRO651      0.0893
     72  N         62.0310   28.6660   92.7270 N.am  652  SER652     -0.1938
     73  CA        61.2130   27.6890   93.4420 C.3   652  SER652      0.2055
     74  C         59.9810   27.2340   92.6670 C.2   652  SER652      0.2643
     75  O         59.6450   26.0460   92.7040 O.2   652  SER652     -0.2714
     76  CB        60.7720   28.2540   94.7990 C.3   652  SER652      0.2130
     77  OG        59.7360   29.2100   94.6490 O.3   652  SER652     -0.2179
     78  N         59.2870   28.1360   91.9750 N.am  653  LYS653     -0.1963
     79  CA        58.0790   27.7430   91.2590 C.3   653  LYS653      0.1728
     80  C         58.4300   26.8490   90.0740 C.2   653  LYS653      0.2616
     81  O         59.4310   27.0650   89.3850 O.2   653  LYS653     -0.2715
     82  CB        57.3010   28.9740   90.7860 C.3   653  LYS653      0.0311
     83  CG        58.0100   29.8130   89.7400 C.3   653  LYS653      0.0038
     84  CD        57.1740   31.0180   89.3400 C.3   653  LYS653      0.0206
     85  CE        57.8760   31.8360   88.2660 C.3   653  LYS653      0.1093
     86  NZ        57.2050   33.1430   88.0170 N.3   653  LYS653     -0.1314
     87  N         57.6110   25.8270   89.8490 N.am  654  GLU654     -0.1963
     88  CA        57.8940   24.8810   88.7830 C.3   654  GLU654      0.1733
     89  C         57.3570   25.3950   87.4550 C.2   654  GLU654      0.2616
     90  O         56.3420   26.0950   87.3930 O.2   654  GLU654     -0.2715
     91  CB        57.3110   23.4980   89.0860 C.3   654  GLU654      0.0429
     92  CG        57.8070   22.3950   88.1330 C.3   654  GLU654      0.1163
     93  CD        59.3370   22.3030   88.0540 C.2   654  GLU654      0.3649
     94  OE1       59.9830   22.1380   89.1190 O.co2 654  GLU654     -0.2457
     95  OE2       59.8890   22.3980   86.9270 O.co2 654  GLU654     -0.2457
     96  N         58.0710   25.0470   86.3910 N.am  655  LEU655     -0.1977
     97  CA        57.6840   25.4450   85.0480 C.3   655  LEU655      0.1596
     98  C         56.3230   24.8710   84.6830 C.2   655  LEU655      0.2287
     99  O         56.0790   23.6720   84.8360 O.2   655  LEU655     -0.2864
    100  CB        58.7390   24.9650   84.0600 C.3   655  LEU655      0.0297
    101  CG        58.5010   25.2630   82.5830 C.3   655  LEU655      0.0022
    102  CD1       58.4550   26.7580   82.3450 C.3   655  LEU655      0.0001
    103  CD2       59.6120   24.6250   81.8000 C.3   655  LEU655      0.0001
@<TRIPOS>BOND
     1     1     2    1
     2    49    48    1
     3    49    50    1
     4    49    52    1
     5    51    50    2
     6    54    52    1
     7    50    56   am
     8    58    59    2
     9    58    57    1
    10     5     2    1
    11     5     6    1
    12     3     2    1
    13     3     4    2
    14    52    53    1
    15    11    13   ar
    16    11     8   ar
    17    56    57    1
    18    57    60    1
    19    13    14   ar
    20     6     8   ar
    21     6     7   ar
    22     8    10   ar
    23    36    35    2
    24    34    37    1
    25    34    33    1
    26    34    35    1
    27    15    16    1
    28    53    55    1
    29    35    38   am
    30    14    12   ar
    31    60    61    1
    32     7     9   ar
    33    10    12   ar
    34    10     9   ar
    35    16    19    1
    36    16    17    1
    37    41    40    2
    38    38    39    1
    39    61    62    1
    40    40    39    1
    41    19    20    1
    42    17    18    2
    43    62    63    1
    44    39    42    1
    45    22    21    2
    46    63    64    1
    47    20    21    1
    48    21    23   am
    49    42    43    1
    50    45    43   ar
    51    45    47   ar
    52    24    25    1
    53   103   101    1
    54    43    44   ar
    55    27    26    2
    56    26    25    1
    57   102   101    1
    58    25    28    1
    59   101   100    1
    60    47    46   ar
    61    44    46   ar
    62    28    29    1
    63   100    97    1
    64    98    99    2
    65    98    97    1
    66    31    30   ar
    67    32    30   ar
    68    30    29    1
    69    97    96    1
    70    96    89   am
    71    95    93   ar
    72    90    89    2
    73    89    88    1
    74    86    85    1
    75    93    92    1
    76    93    94   ar
    77    92    91    1
    78    85    84    1
    79    88    91    1
    80    88    87    1
    81    84    83    1
    82    81    80    2
    83    83    82    1
    84    87    80   am
    85    80    79    1
    86    82    79    1
    87    79    78    1
    88    66    65    1
    89    66    67    1
    90    66    69    1
    91    65    71    1
    92    68    67    2
    93    78    74   am
    94    67    72   am
    95    71    70    1
    96    70    69    1
    97    74    75    2
    98    74    73    1
    99    72    73    1
   100    73    76    1
   101    77    76    1
