@<TRIPOS>MOLECULE
tmp/5wh5A00.pdb
 180 175 0 0 0
SMALL
GASTEIGER

@<TRIPOS>ATOM
      1  N          3.2810    6.8140   59.3060 N.3    74  TYR74      -0.1227
      2  CA         4.5160    6.0360   59.1370 C.3    74  TYR74       0.1736
      3  C          5.4600    6.6640   58.1120 C.2    74  TYR74       0.2595
      4  O          6.5980    6.9930   58.4380 O.2    74  TYR74      -0.2718
      5  CB         4.2050    4.5830   58.7550 C.3    74  TYR74       0.0548
      6  CG         5.4530    3.7280   58.6220 C.ar   74  TYR74      -0.0200
      7  CD1        5.9030    2.9560   59.6790 C.ar   74  TYR74      -0.0009
      8  CD2        6.1950    3.7260   57.4470 C.ar   74  TYR74      -0.0009
      9  CE1        7.0500    2.1900   59.5690 C.ar   74  TYR74       0.0417
     10  CE2        7.3450    2.9660   57.3230 C.ar   74  TYR74       0.0417
     11  CZ         7.7680    2.1990   58.3840 C.ar   74  TYR74       0.1957
     12  OH         8.9110    1.4470   58.2650 O.3    74  TYR74      -0.2866
     13  N          4.9860    6.8350   56.8800 N.am   75  HIS75      -0.1975
     14  CA         5.8330    7.3250   55.7820 C.3    75  HIS75       0.1656
     15  C          6.0620    8.8380   55.8180 C.2    75  HIS75       0.2291
     16  O          5.6510    9.5790   54.9260 O.2    75  HIS75      -0.2864
     17  CB         5.2590    6.8820   54.4350 C.3    75  HIS75       0.0771
     18  CG         5.4010    5.4160   54.1850 C.ar   75  HIS75       0.0820
     19  ND1        4.3540    4.5270   54.3070 N.ar   75  HIS75      -0.2267
     20  CD2        6.4850    4.6760   53.8470 C.ar   75  HIS75       0.1154
     21  CE1        4.7840    3.3060   54.0430 C.ar   75  HIS75       0.1986
     22  NE2        6.0750    3.3700   53.7610 N.ar   75  HIS75      -0.2212
     23  N         10.6300    8.3770   59.4330 N.3    79  HIS79      -0.1241
     24  CA        10.9740    7.1650   58.6960 C.3    79  HIS79       0.1621
     25  C         12.1520    7.4120   57.7540 C.2    79  HIS79       0.2264
     26  O         13.0780    6.6040   57.7070 O.2    79  HIS79      -0.2867
     27  CB         9.7770    6.6370   57.9080 C.3    79  HIS79       0.0745
     28  CG        10.1330    5.5520   56.9390 C.ar   79  HIS79       0.0817
     29  ND1       10.6180    4.3270   57.3410 N.ar   79  HIS79      -0.2268
     30  CD2       10.1040    5.5210   55.5880 C.ar   79  HIS79       0.1154
     31  CE1       10.8570    3.5800   56.2800 C.ar   79  HIS79       0.1986
     32  NE2       10.5450    4.2770   55.2040 N.ar   79  HIS79      -0.2212
     33  N         11.1560    8.0120   50.1480 N.3   116  ASP116     -0.1239
     34  CA         9.7060    8.0470   50.3690 C.3   116  ASP116      0.1674
     35  C          9.1150    9.4630   50.3410 C.2   116  ASP116      0.2266
     36  O          8.0100    9.6750   50.8380 O.2   116  ASP116     -0.2867
     37  CB         9.3570    7.3740   51.7110 C.3   116  ASP116      0.1410
     38  CG         9.1590    5.8610   51.5950 C.2   116  ASP116      0.3668
     39  OD1        8.8010    5.3790   50.4980 O.co2 116  ASP116     -0.2456
     40  OD2        9.3490    5.1500   52.6140 O.co2 116  ASP116     -0.2456
     41  N         13.2870   -0.1340   46.1250 N.3   186  THR186     -0.1218
     42  CA        12.4830   -0.1130   47.3560 C.3   186  THR186      0.1862
     43  C         11.0120   -0.4690   47.1180 C.2   186  THR186      0.2287
     44  O         10.2480   -0.6100   48.0770 O.2   186  THR186     -0.2866
     45  CB        12.5450    1.2440   48.0940 C.3   186  THR186      0.1770
     46  OG1       11.9820    2.2830   47.2770 O.3   186  THR186     -0.2211
     47  CG2       13.9900    1.5970   48.4710 C.3   186  THR186      0.0375
     48  N          8.2180   -2.8620   46.8010 N.3   188  MET188     -0.1245
     49  CA         8.0340   -4.2290   47.2980 C.3   188  MET188      0.1570
     50  C          7.7190   -5.2620   46.2120 C.2   188  MET188      0.2261
     51  O          7.9550   -6.4460   46.4230 O.2   188  MET188     -0.2867
     52  CB         6.9530   -4.2890   48.3890 C.3   188  MET188      0.0387
     53  CG         7.4230   -3.8150   49.7580 C.3   188  MET188      0.0595
     54  SD         8.8320   -4.7310   50.4230 S.3   188  MET188     -0.1393
     55  CE         8.1580   -6.3810   50.5470 C.3   188  MET188      0.0692
     56  N         15.1710   -0.0670   54.8100 N.3   233  ASP233     -0.1225
     57  CA        13.7370    0.2230   54.6990 C.3   233  ASP233      0.1805
     58  C         12.9420   -0.8150   55.5020 C.2   233  ASP233      0.2597
     59  O         11.9470   -0.4890   56.1400 O.2   233  ASP233     -0.2718
     60  CB        13.3360    0.2030   53.2140 C.3   233  ASP233      0.1424
     61  CG        12.1240    1.0900   52.8750 C.2   233  ASP233      0.3668
     62  OD1       11.6350    1.9310   53.6750 O.co2 233  ASP233     -0.2456
     63  OD2       11.6810    0.9500   51.7210 O.co2 233  ASP233     -0.2456
     64  N         13.4140   -2.0580   55.5010 N.am  234  LEU234     -0.1979
     65  CA        12.7440   -3.1510   56.2060 C.3   234  LEU234      0.1596
     66  C         13.4380   -3.4680   57.5320 C.2   234  LEU234      0.2287
     67  O         13.4770   -4.6230   57.9470 O.2   234  LEU234     -0.2864
     68  CB        12.6900   -4.4020   55.3160 C.3   234  LEU234      0.0297
     69  CG        11.5630   -4.4420   54.2790 C.3   234  LEU234      0.0022
     70  CD1       11.5260   -3.1940   53.4150 C.3   234  LEU234      0.0001
     71  CD2       11.7240   -5.6700   53.4040 C.3   234  LEU234      0.0001
     72  N         12.7600   -2.1100   60.6840 N.3   236  ASN236     -0.1226
     73  CA        12.0430   -1.8510   61.9460 C.3   236  ASN236      0.1770
     74  C         12.0330   -3.0690   62.8880 C.2   236  ASN236      0.2439
     75  O         12.2920   -2.9200   64.0880 O.2   236  ASN236     -0.2733
     76  CB        10.5840   -1.4090   61.7390 C.3   236  ASN236      0.1168
     77  CG        10.4300   -0.1410   60.9170 C.2   236  ASN236      0.2627
     78  OD1        9.3600    0.0830   60.3520 O.2   236  ASN236     -0.2716
     79  ND2       11.4710    0.6860   60.8420 N.am  236  ASN236     -0.0877
     80  N         11.7100   -4.2720   62.3650 N.am  237  PRO237     -0.2729
     81  CA        11.6520   -5.4420   63.2520 C.3   237  PRO237      0.1401
     82  C         13.0080   -5.9060   63.7950 C.2   237  PRO237      0.2269
     83  O         13.0450   -6.7600   64.6840 O.2   237  PRO237     -0.2865
     84  CB        11.0200   -6.5270   62.3610 C.3   237  PRO237      0.0296
     85  CG        10.3480   -5.7830   61.2600 C.3   237  PRO237      0.0237
     86  CD        11.2640   -4.6260   61.0060 C.3   237  PRO237      0.0939
     87  N         10.6690   -0.7520   67.6040 N.3   244  TYR244     -0.1241
     88  CA         9.8910   -1.5990   66.7040 C.3   244  TYR244      0.1605
     89  C          8.3920   -1.4430   66.9700 C.2   244  TYR244      0.2264
     90  O          7.6180   -1.2410   66.0360 O.2   244  TYR244     -0.2867
     91  CB        10.3560   -3.0540   66.8420 C.3   244  TYR244      0.0534
     92  CG         9.6020   -4.0890   66.0310 C.ar  244  TYR244     -0.0201
     93  CD1        8.9150   -3.7600   64.8630 C.ar  244  TYR244     -0.0009
     94  CD2        9.6210   -5.4220   66.4200 C.ar  244  TYR244     -0.0009
     95  CE1        8.2320   -4.7280   64.1420 C.ar  244  TYR244      0.0417
     96  CE2        8.9530   -6.3930   65.6970 C.ar  244  TYR244      0.0417
     97  CZ         8.2620   -6.0460   64.5610 C.ar  244  TYR244      0.1957
     98  OH         7.5980   -7.0340   63.8590 O.3   244  TYR244     -0.2866
     99  N          7.0460    1.7670   65.5240 N.3   247  TRP247     -0.1227
    100  CA         6.9250    1.6560   64.0700 C.3   247  TRP247      0.1737
    101  C          5.6810    0.8550   63.6840 C.2   247  TRP247      0.2596
    102  O          4.9730    1.2150   62.7400 O.2   247  TRP247     -0.2718
    103  CB         8.1730    1.0260   63.4570 C.3   247  TRP247      0.0564
    104  CG         9.3840    1.9050   63.5160 C.ar  247  TRP247      0.0003
    105  CD1       10.5710    1.6130   64.1160 C.ar  247  TRP247      0.0946
    106  CD2        9.5300    3.2170   62.9560 C.ar  247  TRP247      0.0152
    107  NE1       11.4500    2.6600   63.9660 N.ar  247  TRP247     -0.2442
    108  CE2       10.8370    3.6560   63.2560 C.ar  247  TRP247      0.0810
    109  CE3        8.6840    4.0640   62.2320 C.ar  247  TRP247      0.0012
    110  CZ2       11.3220    4.9050   62.8540 C.ar  247  TRP247      0.0191
    111  CZ3        9.1690    5.3070   61.8230 C.ar  247  TRP247      0.0001
    112  CH2       10.4730    5.7160   62.1460 C.ar  247  TRP247      0.0015
    113  N          5.4100   -0.2160   64.4240 N.am  248  THR248     -0.1953
    114  CA         4.2350   -1.0500   64.1620 C.3   248  THR248      0.1897
    115  C          2.9530   -0.2600   64.4370 C.2   248  THR248      0.2313
    116  O          2.0140   -0.3110   63.6530 O.2   248  THR248     -0.2863
    117  CB         4.2640   -2.3450   64.9930 C.3   248  THR248      0.1794
    118  OG1        5.4290   -3.1050   64.6560 O.3   248  THR248     -0.2208
    119  CG2        3.0320   -3.1850   64.7320 C.3   248  THR248      0.0378
    120  N          2.5900    2.1410   61.3050 N.3   251  ILE251     -0.1231
    121  CA         2.1770    1.5100   60.0490 C.3   251  ILE251      0.1692
    122  C          0.7170    1.0560   60.1450 C.2   251  ILE251      0.2591
    123  O         -0.0230    1.1660   59.1750 O.2   251  ILE251     -0.2718
    124  CB         3.0910    0.3360   59.6070 C.3   251  ILE251      0.0266
    125  CG1        2.8900    0.0330   58.1190 C.3   251  ILE251      0.0019
    126  CG2        2.8360   -0.9260   60.4130 C.3   251  ILE251      0.0020
    127  CD1        3.3850    1.1270   57.2000 C.3   251  ILE251      0.0001
    128  N          0.2980    0.5640   61.3100 N.am  252  MET252     -0.1979
    129  CA        -1.0880    0.1130   61.4640 C.3   252  MET252      0.1605
    130  C         -2.0680    1.2810   61.3720 C.2   252  MET252      0.2287
    131  O         -3.1220    1.1560   60.7430 O.2   252  MET252     -0.2864
    132  CB        -1.2800   -0.6880   62.7560 C.3   252  MET252      0.0413
    133  CG        -0.5810   -2.0470   62.7490 C.3   252  MET252      0.0598
    134  SD        -0.8210   -3.0560   61.2640 S.3   252  MET252     -0.1393
    135  CE        -2.6060   -3.0260   61.0870 C.3   252  MET252      0.0692
    136  N         -2.1960    2.0860   57.6980 N.3   255  PHE255     -0.1241
    137  CA        -2.9950    1.0320   57.0530 C.3   255  PHE255      0.1605
    138  C         -4.4960    1.1830   57.3300 C.2   255  PHE255      0.2264
    139  O         -5.3200    1.0700   56.4140 O.2   255  PHE255     -0.2867
    140  CB        -2.5300   -0.3600   57.5060 C.3   255  PHE255      0.0534
    141  CG        -1.3890   -0.9290   56.7020 C.ar  255  PHE255     -0.0203
    142  CD1       -0.4280   -0.1090   56.1170 C.ar  255  PHE255     -0.0042
    143  CD2       -1.2580   -2.3020   56.5610 C.ar  255  PHE255     -0.0042
    144  CE1        0.6150   -0.6510   55.3850 C.ar  255  PHE255     -0.0003
    145  CE2       -0.2110   -2.8500   55.8370 C.ar  255  PHE255     -0.0003
    146  CZ         0.7270   -2.0220   55.2490 C.ar  255  PHE255     -0.0000
    147  N         -5.0270   -6.4060   56.1180 N.3   272  MET272     -0.1245
    148  CA        -4.4370   -5.7150   57.2720 C.3   272  MET272      0.1570
    149  C         -4.8650   -4.2480   57.4090 C.2   272  MET272      0.2261
    150  O         -4.3210   -3.5280   58.2540 O.2   272  MET272     -0.2867
    151  CB        -2.8910   -5.8420   57.2580 C.3   272  MET272      0.0387
    152  CG        -2.3800   -7.2750   57.1230 C.3   272  MET272      0.0595
    153  SD        -0.5980   -7.4750   56.8620 S.3   272  MET272     -0.1393
    154  CE        -0.4040   -6.9790   55.1490 C.3   272  MET272      0.0692
    155  N          0.0860  -10.5220   62.0340 N.3   283  SER283     -0.1202
    156  CA         0.5940   -9.8890   60.8240 C.3   283  SER283      0.2020
    157  C          2.0790   -9.5460   60.9380 C.2   283  SER283      0.2618
    158  O          2.8130   -9.7040   59.9720 O.2   283  SER283     -0.2717
    159  CB        -0.2140   -8.6480   60.4770 C.3   283  SER283      0.2103
    160  OG        -1.5470   -8.9970   60.1610 O.3   283  SER283     -0.2182
    161  N          2.5280   -9.0810   62.1040 N.am  284  GLN284     -0.1979
    162  CA         3.9670   -8.8300   62.2920 C.3   284  GLN284      0.1601
    163  C          4.7750  -10.1230   62.2100 C.2   284  GLN284      0.2287
    164  O          5.8500  -10.1510   61.5960 O.2   284  GLN284     -0.2864
    165  CB         4.2540   -8.1090   63.6110 C.3   284  GLN284      0.0394
    166  CG         3.9370   -6.6270   63.5870 C.3   284  GLN284      0.0908
    167  CD         4.5930   -5.8990   62.4260 C.2   284  GLN284      0.2608
    168  OE1        5.8080   -5.9860   62.2260 O.2   284  GLN284     -0.2717
    169  NE2        3.7890   -5.1780   61.6470 N.am  284  GLN284     -0.0878
    170  N          4.9180  -11.0310   58.5860 N.3   287  PHE287     -0.1241
    171  CA         5.8180  -10.0630   57.9340 C.3   287  PHE287      0.1605
    172  C          7.2810  -10.4680   58.1530 C.2   287  PHE287      0.2264
    173  O          8.0710  -10.5090   57.2150 O.2   287  PHE287     -0.2867
    174  CB         5.5170   -8.6630   58.4900 C.3   287  PHE287      0.0534
    175  CG         6.3520   -7.5450   57.9050 C.ar  287  PHE287     -0.0203
    176  CD1        6.4730   -7.3750   56.5330 C.ar  287  PHE287     -0.0042
    177  CD2        6.9630   -6.6180   58.7420 C.ar  287  PHE287     -0.0042
    178  CE1        7.2230   -6.3290   56.0080 C.ar  287  PHE287     -0.0003
    179  CE2        7.7030   -5.5640   58.2230 C.ar  287  PHE287     -0.0003
    180  CZ         7.8350   -5.4220   56.8540 C.ar  287  PHE287     -0.0000
@<TRIPOS>BOND
     1    41    42    1
     2    50    51    2
     3    50    49    1
     4    48    49    1
     5    43    42    1
     6    43    44    2
     7    46    45    1
     8    49    52    1
     9    42    45    1
    10    45    47    1
    11    52    53    1
    12    53    54    1
    13    33    34    1
    14    35    34    1
    15    35    36    2
    16    34    37    1
    17    54    55    1
    18    39    38   ar
    19    38    37    1
    20    38    40   ar
    21    63    61   ar
    22    61    60    1
    23    61    62   ar
    24    60    57    1
    25    71    69    1
    26    70    69    1
    27    22    20   ar
    28    22    21   ar
    29    20    18   ar
    30    21    19   ar
    31    18    19   ar
    32    18    17    1
    33    69    68    1
    34    17    14    1
    35    57    56    1
    36    57    58    1
    37    16    15    2
    38   154   153    1
    39    32    30   ar
    40    32    31   ar
    41   146   144   ar
    42   146   145   ar
    43    68    65    1
    44   144   142   ar
    45    64    58   am
    46    64    65    1
    47    58    59    2
    48    30    28   ar
    49    14    15    1
    50    14    13    1
    51   145   143   ar
    52   178   176   ar
    53   178   180   ar
    54   142   141   ar
    55   147   148    1
    56    65    66    1
    57    31    29   ar
    58   139   138    2
    59   176   175   ar
    60   143   141   ar
    61   141   140    1
    62   180   179   ar
    63   153   152    1
    64    13     3   am
    65    28    29   ar
    66    28    27    1
    67   137   138    1
    68   137   140    1
    69   137   136    1
    70   152   151    1
    71   127   125    1
    72   173   172    2
    73   151   148    1
    74   148   149    1
    75    10     8   ar
    76    10    11   ar
    77   149   150    2
    78     8     6   ar
    79    66    67    2
    80    26    25    2
    81    25    24    1
    82   175   174    1
    83   175   177   ar
    84    27    24    1
    85   171   172    1
    86   171   174    1
    87   171   170    1
    88     3     4    2
    89     3     2    1
    90   125   124    1
    91   179   177   ar
    92    12    11    1
    93    11     9   ar
    94     6     5    1
    95     6     7   ar
    96    24    23    1
    97     5     2    1
    98     2     1    1
    99   123   122    2
   100     9     7   ar
   101   124   121    1
   102   124   126    1
   103   158   157    2
   104   121   122    1
   105   121   120    1
   106   122   128   am
   107   160   159    1
   108    78    77    2
   109   159   156    1
   110    72    73    1
   111   131   130    2
   112   156   157    1
   113   156   155    1
   114    79    77   am
   115    77    76    1
   116   157   161   am
   117    86    85    1
   118    86    80    1
   119   135   134    1
   120    85    84    1
   121   134   133    1
   122   128   129    1
   123   130   129    1
   124   129   132    1
   125   164   163    2
   126   169   167   am
   127    76    73    1
   128   111   112   ar
   129   111   109   ar
   130    73    74    1
   131   161   162    1
   132   112   110   ar
   133   163   162    1
   134   168   167    2
   135   109   106   ar
   136   162   165    1
   137    84    81    1
   138    80    74   am
   139    80    81    1
   140   167   166    1
   141   102   101    2
   142   133   132    1
   143   110   108   ar
   144    74    75    2
   145   106   108   ar
   146   106   104   ar
   147    81    82    1
   148   108   107   ar
   149   103   104    1
   150   103   100    1
   151   104   105   ar
   152   166   165    1
   153   116   115    2
   154   101   100    1
   155   101   113   am
   156    82    83    2
   157    98    97    1
   158   107   105   ar
   159   100    99    1
   160    95    97   ar
   161    95    93   ar
   162   114   113    1
   163   114   115    1
   164   114   117    1
   165    97    96   ar
   166   118   117    1
   167   119   117    1
   168    93    92   ar
   169    96    94   ar
   170    92    94   ar
   171    92    91    1
   172    90    89    2
   173    88    91    1
   174    88    89    1
   175    88    87    1
