@<TRIPOS>MOLECULE
tmp/5whcA00.pdb
 117 110 0 0 0
SMALL
GASTEIGER

@<TRIPOS>ATOM
      1  N         28.8790   10.7420    5.5580 N.3    89  GLN89      -0.1245
      2  CA        29.5090   10.1210    4.3970 C.3    89  GLN89       0.1566
      3  C         29.4300    8.6010    4.4600 C.2    89  GLN89       0.2260
      4  O         29.3830    7.9430    3.4160 O.2    89  GLN89      -0.2867
      5  CB        30.9620   10.5830    4.2620 C.3    89  GLN89       0.0367
      6  CG        31.8930   10.1060    5.3580 C.3    89  GLN89       0.0905
      7  CD        32.4950   11.2530    6.1450 C.2    89  GLN89       0.2608
      8  OE1       33.7160   11.3760    6.2500 O.2    89  GLN89      -0.2717
      9  NE2       31.6370   12.1000    6.7070 N.am   89  GLN89      -0.0878
     10  N         25.8650    7.9000    3.3140 N.3    92  CYS92      -0.1221
     11  CA        25.8540    8.0640    1.8650 C.3    92  CYS92       0.1808
     12  C         26.5930    6.9260    1.1740 C.2    92  CYS92       0.2601
     13  O         26.2020    6.4960    0.0830 O.2    92  CYS92      -0.2717
     14  CB        26.4670    9.4130    1.4910 C.3    92  CYS92       0.0970
     15  SG        26.1910    9.9050   -0.2200 S.3    92  CYS92      -0.0800
     16  N         27.6610    6.4270    1.7960 N.am   93  ARG93      -0.1979
     17  CA        28.3920    5.2970    1.2340 C.3    93  ARG93       0.1597
     18  C         27.5520    4.0240    1.2740 C.2    93  ARG93       0.2287
     19  O         27.5360    3.2570    0.3050 O.2    93  ARG93      -0.2864
     20  CB        29.7070    5.1120    1.9930 C.3    93  ARG93       0.0334
     21  CG        30.8000    4.3850    1.2400 C.3    93  ARG93       0.0492
     22  CD        32.1490    4.6690    1.8870 C.3    93  ARG93       0.2205
     23  NE        32.6140    6.0250    1.6060 N.pl3  93  ARG93      -0.0865
     24  CZ        33.3950    6.7340    2.4160 C.cat  93  ARG93       0.5346
     25  NH1       33.7900    6.2220    3.5740 N.pl3  93  ARG93       0.1354
     26  NH2       33.7710    7.9600    2.0740 N.pl3  93  ARG93       0.1354
     27  N         24.6950    4.5590   -1.5880 N.3    96  LEU96      -0.1231
     28  CA        25.1680    4.5470   -2.9690 C.3    96  LEU96       0.1693
     29  C         25.8420    3.2290   -3.3360 C.2    96  LEU96       0.2592
     30  O         25.8120    2.8260   -4.5050 O.2    96  LEU96      -0.2718
     31  CB        26.1200    5.7190   -3.2050 C.3    96  LEU96       0.0284
     32  CG        25.5070    7.1130   -3.0310 C.3    96  LEU96       0.0019
     33  CD1       26.5210    8.2000   -3.3660 C.3    96  LEU96       0.0001
     34  CD2       24.2480    7.2620   -3.8750 C.3    96  LEU96       0.0001
     35  N         26.4550    2.5450   -2.3660 N.am   97  ASP97      -0.1974
     36  CA        27.0230    1.2300   -2.6430 C.3    97  ASP97       0.1709
     37  C         25.9410    0.2280   -3.0190 C.2    97  ASP97       0.2293
     38  O         26.1680   -0.6480   -3.8600 O.2    97  ASP97      -0.2864
     39  CB        27.8070    0.7260   -1.4310 C.3    97  ASP97       0.1436
     40  CG        28.9420   -0.2070   -1.8090 C.2    97  ASP97       0.3671
     41  OD1       28.7790   -1.0140   -2.7490 O.co2  97  ASP97      -0.2456
     42  OD2       30.0090   -0.1200   -1.1670 O.co2  97  ASP97      -0.2456
     43  N         24.3450    1.2040   -6.7540 N.3   100  GLU100     -0.1245
     44  CA        25.2700    0.9340   -7.8500 C.3   100  GLU100      0.1567
     45  C         25.3860   -0.5610   -8.1030 C.2   100  GLU100      0.2260
     46  O         25.4600   -0.9990   -9.2570 O.2   100  GLU100     -0.2867
     47  CB        26.6410    1.5400   -7.5580 C.3   100  GLU100      0.0388
     48  CG        27.6260    1.4450   -8.7210 C.3   100  GLU100      0.1160
     49  CD        26.9780    1.6770  -10.0830 C.2   100  GLU100      0.3649
     50  OE1       27.1700    0.8330  -10.9840 O.co2 100  GLU100     -0.2457
     51  OE2       26.2760    2.6980  -10.2580 O.co2 100  GLU100     -0.2457
     52  N         26.5020    5.7170  -10.5810 N.3   112  ILE112     -0.1245
     53  CA        27.1550    6.2300   -9.3740 C.3   112  ILE112      0.1561
     54  C         28.5730    6.7100   -9.6630 C.2   112  ILE112      0.2260
     55  O         28.9100    7.8400   -9.2710 O.2   112  ILE112     -0.2867
     56  CB        27.0940    5.1790   -8.2510 C.3   112  ILE112      0.0252
     57  CG1       25.6430    4.8680   -7.8840 C.3   112  ILE112      0.0019
     58  CG2       27.8530    5.6570   -7.0230 C.3   112  ILE112      0.0019
     59  CD1       24.9110    6.0200   -7.2770 C.3   112  ILE112      0.0001
     60  N         29.8150   10.6730   -9.3860 N.3   116  PHE116     -0.1241
     61  CA        30.5630   10.9720   -8.1710 C.3   116  PHE116      0.1605
     62  C         32.0530   10.6570   -8.2300 C.2   116  PHE116      0.2264
     63  O         32.7880   11.1000   -7.3400 O.2   116  PHE116     -0.2867
     64  CB        29.9610   10.2110   -6.9800 C.3   116  PHE116      0.0534
     65  CG        28.5460   10.5930   -6.6630 C.ar  116  PHE116     -0.0203
     66  CD1       28.2550   11.8280   -6.1090 C.ar  116  PHE116     -0.0042
     67  CD2       27.5070    9.7110   -6.9020 C.ar  116  PHE116     -0.0042
     68  CE1       26.9540   12.1790   -5.8110 C.ar  116  PHE116     -0.0003
     69  CE2       26.2030   10.0570   -6.6050 C.ar  116  PHE116     -0.0003
     70  CZ        25.9270   11.2930   -6.0590 C.ar  116  PHE116     -0.0000
     71  N         35.2210    9.4720   -4.2270 N.3   140  TYR140     -0.1227
     72  CA        33.8090    9.7740   -4.3950 C.3   140  TYR140      0.1736
     73  C         33.3600   10.9390   -3.5280 C.2   140  TYR140      0.2595
     74  O         32.1760   11.2950   -3.5500 O.2   140  TYR140     -0.2718
     75  CB        32.9670    8.5270   -4.0990 C.3   140  TYR140      0.0548
     76  CG        33.1680    7.4290   -5.1230 C.ar  140  TYR140     -0.0200
     77  CD1       34.3240    6.6560   -5.1280 C.ar  140  TYR140     -0.0009
     78  CD2       32.2100    7.1770   -6.0960 C.ar  140  TYR140     -0.0009
     79  CE1       34.5150    5.6620   -6.0710 C.ar  140  TYR140      0.0417
     80  CE2       32.3900    6.1850   -7.0370 C.ar  140  TYR140      0.0417
     81  CZ        33.5410    5.4310   -7.0230 C.ar  140  TYR140      0.1957
     82  OH        33.7130    4.4440   -7.9650 O.3   140  TYR140     -0.2866
     83  N         34.2790   11.5410   -2.7810 N.am  141  ASP141     -0.1974
     84  CA        34.0470   12.7310   -1.9740 C.3   141  ASP141      0.1709
     85  C         35.4050   13.1650   -1.4450 C.2   141  ASP141      0.2293
     86  O         36.4010   12.4490   -1.5830 O.2   141  ASP141     -0.2864
     87  CB        33.0590   12.4790   -0.8310 C.3   141  ASP141      0.1436
     88  CG        33.5300   11.4020    0.1220 C.2   141  ASP141      0.3671
     89  OD1       33.8920   10.3010   -0.3430 O.co2 141  ASP141     -0.2456
     90  OD2       33.5420   11.6600    1.3410 O.co2 141  ASP141     -0.2456
     91  N         30.9480   16.1460   -3.6160 N.3   195  HIS195     -0.1241
     92  CA        30.5660   16.0540   -2.2100 C.3   195  HIS195      0.1621
     93  C         31.7780   16.4110   -1.3550 C.2   195  HIS195      0.2264
     94  O         32.7740   15.6790   -1.3380 O.2   195  HIS195     -0.2867
     95  CB        30.0370   14.6630   -1.8730 C.3   195  HIS195      0.0745
     96  CG        28.6190   14.4430   -2.2990 C.ar  195  HIS195      0.0817
     97  ND1       27.9240   13.2890   -2.0120 N.ar  195  HIS195     -0.2268
     98  CD2       27.7650   15.2370   -2.9870 C.ar  195  HIS195      0.1154
     99  CE1       26.7030   13.3800   -2.5080 C.ar  195  HIS195      0.1986
    100  NE2       26.5810   14.5520   -3.1040 N.ar  195  HIS195     -0.2212
    101  N         32.9090   17.0140    2.4120 N.3   197  GLN197     -0.1245
    102  CA        32.6860   16.9220    3.8510 C.3   197  GLN197      0.1566
    103  C         33.6120   17.9020    4.5600 C.2   197  GLN197      0.2260
    104  O         34.8390   17.8020    4.4420 O.2   197  GLN197     -0.2867
    105  CB        32.9260   15.4990    4.3580 C.3   197  GLN197      0.0367
    106  CG        31.6570   14.6760    4.5370 C.3   197  GLN197      0.0905
    107  CD        31.0700   14.2130    3.2190 C.2   197  GLN197      0.2608
    108  OE1       31.7880   13.7390    2.3400 O.2   197  GLN197     -0.2717
    109  NE2       29.7600   14.3520    3.0750 N.am  197  GLN197     -0.0878
    110  N         28.6970   19.7070    5.3460 N.3   299  MET299     -0.1245
    111  CA        28.8370   19.0250    4.0700 C.3   299  MET299      0.1570
    112  C         28.2880   19.9290    2.9770 C.2   299  MET299      0.2261
    113  O         27.2810   20.6130    3.1790 O.2   299  MET299     -0.2867
    114  CB        28.1110   17.6740    4.0560 C.3   299  MET299      0.0387
    115  CG        27.9790   17.0640    2.6670 C.3   299  MET299      0.0595
    116  SD        27.2940   15.4000    2.6690 S.3   299  MET299     -0.1393
    117  CE        26.9190   15.1980    0.9310 C.3   299  MET299      0.0692
@<TRIPOS>BOND
     1    50    49   ar
     2    52    53    1
     3    51    49   ar
     4    49    48    1
     5    54    53    1
     6    54    55    2
     7    60    61    1
     8    53    56    1
     9    46    45    2
    10    48    47    1
    11    56    57    1
    12    56    58    1
    13    62    61    1
    14    62    63    2
    15    61    64    1
    16    45    44    1
    17    82    81    1
    18    57    59    1
    19    44    47    1
    20    44    43    1
    21    80    81   ar
    22    80    78   ar
    23    81    79   ar
    24    64    65    1
    25    67    65   ar
    26    67    69   ar
    27    65    66   ar
    28    69    70   ar
    29    66    68   ar
    30    78    76   ar
    31    79    77   ar
    32    70    68   ar
    33    77    76   ar
    34    76    75    1
    35    30    29    2
    36    72    71    1
    37    72    75    1
    38    72    73    1
    39    34    32    1
    40    38    37    2
    41    91    92    1
    42    74    73    2
    43    73    83   am
    44    33    32    1
    45    29    28    1
    46    29    35   am
    47    31    32    1
    48    31    28    1
    49   100    98   ar
    50   100    99   ar
    51    37    36    1
    52    98    96   ar
    53    28    27    1
    54    83    84    1
    55    41    40   ar
    56    36    35    1
    57    36    39    1
    58    99    97   ar
    59    96    97   ar
    60    96    95    1
    61    92    95    1
    62    92    93    1
    63    84    85    1
    64    84    87    1
    65    40    39    1
    66    40    42   ar
    67    86    85    2
    68    93    94    2
    69    87    88    1
    70    89    88   ar
    71    15    14    1
    72    13    12    2
    73    88    90   ar
    74    19    18    2
    75   117   116    1
    76    12    16   am
    77    12    11    1
    78    17    18    1
    79    17    16    1
    80    17    20    1
    81    21    22    1
    82    21    20    1
    83    14    11    1
    84    23    22    1
    85    23    24    2
    86    11    10    1
    87    26    24    1
    88   108   107    2
    89   101   102    1
    90    24    25    1
    91   115   116    1
    92   115   114    1
    93   112   113    2
    94   112   111    1
    95   109   107   am
    96   107   106    1
    97     4     3    2
    98   102   105    1
    99   102   103    1
   100   114   111    1
   101   111   110    1
   102     5     2    1
   103     5     6    1
   104   105   106    1
   105     2     3    1
   106     2     1    1
   107   104   103    2
   108     6     7    1
   109     7     8    2
   110     7     9   am
