@<TRIPOS>MOLECULE
tmp/5whkC01.pdb
 134 128 0 0 0
SMALL
GASTEIGER

@<TRIPOS>ATOM
      1  N          7.8290    5.6840    4.7550 N.3     6  TYR6       -0.1241
      2  CA         8.2820    4.3060    4.9200 C.3     6  TYR6        0.1605
      3  C          7.1760    3.4620    5.5250 C.2     6  TYR6        0.2264
      4  O          6.5750    3.8560    6.5270 O.2     6  TYR6       -0.2867
      5  CB         9.4980    4.2290    5.8300 C.3     6  TYR6        0.0534
      6  CG        10.7250    4.8840    5.2810 C.ar    6  TYR6       -0.0201
      7  CD1       10.9290    6.2590    5.4300 C.ar    6  TYR6       -0.0009
      8  CD2       11.7010    4.1260    4.6430 C.ar    6  TYR6       -0.0009
      9  CE1       12.0710    6.8610    4.9390 C.ar    6  TYR6        0.0417
     10  CE2       12.8320    4.7050    4.1690 C.ar    6  TYR6        0.0417
     11  CZ        13.0100    6.0790    4.3120 C.ar    6  TYR6        0.1957
     12  OH        14.1450    6.6440    3.8230 O.3     6  TYR6       -0.2866
     13  N          6.6110   -0.0010    7.3810 N.3     8  LEU8       -0.1245
     14  CA         7.3260   -1.0300    8.1200 C.3     8  LEU8        0.1561
     15  C          6.3360   -2.0710    8.6280 C.2     8  LEU8        0.2260
     16  O          5.2730   -1.7220    9.1480 O.2     8  LEU8       -0.2867
     17  CB         8.1160   -0.4120    9.2860 C.3     8  LEU8        0.0270
     18  CG         9.0590    0.7520    8.9240 C.3     8  LEU8        0.0019
     19  CD1        8.3550    2.0980    8.9920 C.3     8  LEU8        0.0001
     20  CD2       10.2630    0.7800    9.8360 C.3     8  LEU8        0.0001
     21  N         26.7230    5.4800   -0.7750 N.3    51  TRP51      -0.1227
     22  CA        26.7180    5.7460    0.6630 C.3    51  TRP51       0.1737
     23  C         25.2970    5.8290    1.2030 C.2    51  TRP51       0.2595
     24  O         25.0570    5.5120    2.3750 O.2    51  TRP51      -0.2718
     25  CB        27.4740    7.0410    0.9840 C.3    51  TRP51       0.0564
     26  CG        26.7690    8.2680    0.4850 C.ar   51  TRP51       0.0003
     27  CD1       26.9760    8.9000   -0.7070 C.ar   51  TRP51       0.0946
     28  CD2       25.7190    8.9940    1.1480 C.ar   51  TRP51       0.0152
     29  NE1       26.1300    9.9760   -0.8250 N.ar   51  TRP51      -0.2442
     30  CE2       25.3440   10.0550    0.2960 C.ar   51  TRP51       0.0810
     31  CE3       25.0600    8.8500    2.3740 C.ar   51  TRP51       0.0012
     32  CZ2       24.3470   10.9720    0.6340 C.ar   51  TRP51       0.0191
     33  CZ3       24.0610    9.7610    2.7030 C.ar   51  TRP51       0.0001
     34  CH2       23.7170   10.8060    1.8350 C.ar   51  TRP51       0.0015
     35  N         24.3440    6.2530    0.3650 N.am   52  TYR52      -0.1976
     36  CA        22.9640    6.3710    0.8150 C.3    52  TYR52       0.1639
     37  C         22.3810    5.0080    1.1540 C.2    52  TYR52       0.2290
     38  O         21.7340    4.8360    2.1950 O.2    52  TYR52      -0.2864
     39  CB        22.1080    7.0540   -0.2490 C.3    52  TYR52       0.0560
     40  CG        20.6380    6.9360    0.0690 C.ar   52  TYR52      -0.0198
     41  CD1       20.0570    7.7240    1.0590 C.ar   52  TYR52      -0.0009
     42  CD2       19.8390    6.0130   -0.5880 C.ar   52  TYR52      -0.0009
     43  CE1       18.7100    7.6080    1.3740 C.ar   52  TYR52       0.0417
     44  CE2       18.4980    5.8900   -0.2870 C.ar   52  TYR52       0.0417
     45  CZ        17.9370    6.6900    0.6930 C.ar   52  TYR52       0.1957
     46  OH        16.6020    6.5600    0.9930 O.3    52  TYR52      -0.2866
     47  N         23.7220    3.6090    4.2470 N.3    55  LYS55      -0.1231
     48  CA        23.1040    4.2440    5.4030 C.3    55  LYS55       0.1693
     49  C         21.7060    3.6930    5.6470 C.2    55  LYS55       0.2591
     50  O         21.3320    3.4190    6.7970 O.2    55  LYS55      -0.2718
     51  CB        23.0550    5.7580    5.2180 C.3    55  LYS55       0.0285
     52  CG        22.5120    6.5030    6.4240 C.3    55  LYS55       0.0035
     53  CD        22.4730    8.0030    6.1660 C.3    55  LYS55       0.0206
     54  CE        22.1880    8.7670    7.4430 C.3    55  LYS55       0.1093
     55  NZ        21.0060    8.2280    8.1770 N.3    55  LYS55      -0.1314
     56  N         20.9180    3.5230    4.5820 N.am   56  GLU56      -0.1979
     57  CA        19.5840    2.9590    4.7660 C.3    56  GLU56       0.1602
     58  C         19.6630    1.5470    5.3410 C.2    56  GLU56       0.2287
     59  O         18.8600    1.1770    6.2070 O.2    56  GLU56      -0.2864
     60  CB        18.8140    2.9620    3.4490 C.3    56  GLU56       0.0415
     61  CG        18.3230    4.3160    3.0050 C.3    56  GLU56       0.1163
     62  CD        17.0260    4.7380    3.6950 C.2    56  GLU56       0.3649
     63  OE1       16.7620    4.3030    4.8390 O.co2  56  GLU56      -0.2457
     64  OE2       16.2590    5.5030    3.0720 O.co2  56  GLU56      -0.2457
     65  N         20.2450    1.7890    9.0850 N.3    59  ASP59      -0.1225
     66  CA        19.0830    2.2190    9.8580 C.3    59  ASP59       0.1805
     67  C         18.0220    1.1340    9.9220 C.2    59  ASP59       0.2597
     68  O         17.4310    0.8960   10.9840 O.2    59  ASP59      -0.2718
     69  CB        18.4950    3.4980    9.2600 C.3    59  ASP59       0.1424
     70  CG        19.3860    4.6890    9.4750 C.2    59  ASP59       0.3668
     71  OD1       20.0900    4.7060   10.5100 O.co2  59  ASP59      -0.2456
     72  OD2       19.3920    5.5900    8.6120 O.co2  59  ASP59      -0.2456
     73  N         17.7780    0.4590    8.8000 N.am   60  LEU60      -0.1979
     74  CA        16.7060   -0.5200    8.7420 C.3    60  LEU60       0.1596
     75  C         17.0670   -1.7910    9.4940 C.2    60  LEU60       0.2287
     76  O         16.1800   -2.4610   10.0340 O.2    60  LEU60      -0.2864
     77  CB        16.3590   -0.8080    7.2850 C.3    60  LEU60       0.0297
     78  CG        15.7330    0.4470    6.6860 C.3    60  LEU60       0.0022
     79  CD1       15.6730    0.3790    5.1770 C.3    60  LEU60       0.0001
     80  CD2       14.3500    0.6510    7.2990 C.3    60  LEU60       0.0001
     81  N         16.0210   -0.6270   12.8060 N.3    63  LYS63      -0.1245
     82  CA        14.5650   -0.7060   12.9150 C.3    63  LYS63       0.1561
     83  C         14.0980   -2.1440   13.0600 C.2    63  LYS63       0.2260
     84  O         13.1610   -2.4280   13.8170 O.2    63  LYS63      -0.2867
     85  CB        13.9080   -0.0680   11.7040 C.3    63  LYS63       0.0271
     86  CG        13.9140    1.4370   11.7500 C.3    63  LYS63       0.0035
     87  CD        13.2800    1.9360   13.0290 C.3    63  LYS63       0.0206
     88  CE        13.0510    3.4290   12.9570 C.3    63  LYS63       0.1093
     89  NZ        12.5990    3.9600   14.2520 N.3    63  LYS63      -0.1314
     90  N          6.2830    5.9880    8.8250 N.3    86  LEU86      -0.1245
     91  CA         7.2470    7.0110    9.2160 C.3    86  LEU86       0.1561
     92  C          7.6260    7.8480    8.0000 C.2    86  LEU86       0.2260
     93  O          8.1410    7.3110    7.0150 O.2    86  LEU86      -0.2867
     94  CB         8.4860    6.3640    9.8470 C.3    86  LEU86       0.0270
     95  CG         8.3220    5.7870   11.2580 C.3    86  LEU86       0.0019
     96  CD1        9.4800    4.8600   11.6270 C.3    86  LEU86       0.0001
     97  CD2        8.2660    6.9200   12.2530 C.3    86  LEU86       0.0001
     98  N         14.5560    9.0440   15.8400 N.3   143  GLU143     -0.1245
     99  CA        13.1920    9.2190   15.3600 C.3   143  GLU143      0.1567
    100  C         12.8440   10.7020   15.2360 C.2   143  GLU143      0.2260
    101  O         12.3370   11.1450   14.1950 O.2   143  GLU143     -0.2867
    102  CB        12.2190    8.5100   16.3040 C.3   143  GLU143      0.0388
    103  CG        10.8690    8.2050   15.7000 C.3   143  GLU143      0.1160
    104  CD        10.7820    6.7710   15.1540 C.2   143  GLU143      0.3649
    105  OE1       11.6960    6.3690   14.3930 O.co2 143  GLU143     -0.2457
    106  OE2        9.8010    6.0550   15.4900 O.co2 143  GLU143     -0.2457
    107  N         14.7580   12.3650   12.4870 N.3   146  PHE146     -0.1241
    108  CA        14.2260   11.9950   11.1820 C.3   146  PHE146      0.1605
    109  C         12.9570   12.7740   10.8660 C.2   146  PHE146      0.2264
    110  O         12.8280   13.3570    9.7860 O.2   146  PHE146     -0.2867
    111  CB        13.9540   10.4950   11.1040 C.3   146  PHE146      0.0534
    112  CG        13.1930   10.1060    9.8680 C.ar  146  PHE146     -0.0203
    113  CD1       13.8290   10.0930    8.6290 C.ar  146  PHE146     -0.0042
    114  CD2       11.8420    9.7960    9.9350 C.ar  146  PHE146     -0.0042
    115  CE1       13.1370    9.7690    7.4780 C.ar  146  PHE146     -0.0003
    116  CE2       11.1370    9.4650    8.7900 C.ar  146  PHE146     -0.0003
    117  CZ        11.7860    9.4570    7.5540 C.ar  146  PHE146     -0.0000
    118  N         15.7200   15.4240    9.0860 N.3   150  SER150     -0.1217
    119  CA        16.2560   14.6270    7.9900 C.3   150  SER150      0.1889
    120  C         15.2350   14.4830    6.8790 C.2   150  SER150      0.2288
    121  O         15.5400   14.6960    5.6980 O.2   150  SER150     -0.2866
    122  CB        16.6800   13.2460    8.4870 C.3   150  SER150      0.2089
    123  OG        17.6880   13.3390    9.4750 O.3   150  SER150     -0.2183
    124  N         15.4280   15.5150    3.0160 N.3   154  ARG154     -0.1245
    125  CA        15.5410   14.5150    1.9590 C.3   154  ARG154      0.1563
    126  C         14.4120   14.6510    0.9500 C.2   154  ARG154      0.2260
    127  O         14.6210   14.4520   -0.2510 O.2   154  ARG154     -0.2867
    128  CB        15.5570   13.0990    2.5490 C.3   154  ARG154      0.0307
    129  CG        16.8890   12.7080    3.1430 C.3   154  ARG154      0.0489
    130  CD        17.2140   11.2640    2.8970 C.3   154  ARG154      0.2205
    131  NE        16.1970   10.3920    3.4810 N.pl3 154  ARG154     -0.0865
    132  CZ        15.4950    9.4800    2.8090 C.cat 154  ARG154      0.5346
    133  NH1       14.5950    8.7600    3.4480 N.pl3 154  ARG154      0.1354
    134  NH2       15.6880    9.2770    1.5110 N.pl3 154  ARG154      0.1354
@<TRIPOS>BOND
     1    29    27   ar
     2    29    30   ar
     3    21    22    1
     4    27    26   ar
     5    42    44   ar
     6    42    40   ar
     7    44    45   ar
     8   127   126    2
     9    39    40    1
    10    39    36    1
    11    40    41   ar
    12    30    32   ar
    13    30    28   ar
    14    35    36    1
    15    35    23   am
    16    26    25    1
    17    26    28   ar
    18    32    34   ar
    19    22    25    1
    20    22    23    1
    21    45    46    1
    22    45    43   ar
    23    36    37    1
    24   126   125    1
    25    41    43   ar
    26    28    31   ar
    27    37    38    2
    28    23    24    2
    29   134   132    1
    30    34    33   ar
    31   125   128    1
    32   125   124    1
    33    31    33   ar
    34   128   129    1
    35   132   133    1
    36   132   131    2
    37   130   129    1
    38   130   131    1
    39    61    60    1
    40    61    62    1
    41    64    62   ar
    42    60    57    1
    43    62    63   ar
    44    12    11    1
    45    10    11   ar
    46    10     8   ar
    47    47    48    1
    48    11     9   ar
    49    56    57    1
    50    56    49   am
    51     8     6   ar
    52     1     2    1
    53    57    58    1
    54     2     3    1
    55     2     5    1
    56     9     7   ar
    57    79    78    1
    58    51    48    1
    59    51    52    1
    60     6     7   ar
    61     6     5    1
    62    58    59    2
    63    48    49    1
    64     3     4    2
    65    49    50    2
    66   121   120    2
    67    53    52    1
    68    53    54    1
    69    78    77    1
    70    78    80    1
    71   120   119    1
    72    93    92    2
    73    77    74    1
    74    13    14    1
    75    54    55    1
    76   115   117   ar
    77   115   113   ar
    78   117   116   ar
    79   119   122    1
    80   119   118    1
    81    92    91    1
    82    14    15    1
    83    14    17    1
    84   122   123    1
    85    72    70   ar
    86    15    16    2
    87   113   112   ar
    88    74    73    1
    89    74    75    1
    90   116   114   ar
    91    73    67   am
    92    90    91    1
    93    18    19    1
    94    18    17    1
    95    18    20    1
    96    65    66    1
    97    91    94    1
    98    69    70    1
    99    69    66    1
   100    70    71   ar
   101    75    76    2
   102   110   109    2
   103    94    95    1
   104    66    67    1
   105   112   114   ar
   106   112   111    1
   107    67    68    2
   108   109   108    1
   109   111   108    1
   110   108   107    1
   111    95    96    1
   112    95    97    1
   113    85    86    1
   114    85    82    1
   115    86    87    1
   116    81    82    1
   117    82    83    1
   118    88    87    1
   119    88    89    1
   120    83    84    2
   121   101   100    2
   122   105   104   ar
   123   104   106   ar
   124   104   103    1
   125   100    99    1
   126    99    98    1
   127    99   102    1
   128   103   102    1
