@<TRIPOS>MOLECULE
tmp/5whlA00.pdb
 99 93 0 0 0
SMALL
GASTEIGER

@<TRIPOS>ATOM
      1  N        -42.5350  -20.2240   54.8650 N.3    86  ARG86      -0.1245
      2  CA       -41.5310  -19.3460   54.2490 C.3    86  ARG86       0.1563
      3  C        -40.7780  -20.1100   53.1540 C.2    86  ARG86       0.2260
      4  O        -39.5710  -20.3460   53.2180 O.2    86  ARG86      -0.2867
      5  CB       -40.5690  -18.7680   55.2930 C.3    86  ARG86       0.0307
      6  CG       -41.2440  -18.3160   56.5660 C.3    86  ARG86       0.0489
      7  CD       -41.1550  -16.8360   56.9340 C.3    86  ARG86       0.2205
      8  NE       -42.0710  -16.5720   58.0540 N.pl3  86  ARG86      -0.0865
      9  CZ       -41.7920  -16.8300   59.3400 C.cat  86  ARG86       0.5346
     10  NH1      -40.6070  -17.3430   59.6690 N.pl3  86  ARG86       0.1354
     11  NH2      -42.6960  -16.5900   60.3020 N.pl3  86  ARG86       0.1354
     12  N        -34.7910  -21.1820   55.1390 N.3   132  ILE132     -0.1231
     13  CA       -36.1200  -20.6180   55.3350 C.3   132  ILE132      0.1692
     14  C        -36.1000  -19.2230   54.7510 C.2   132  ILE132      0.2592
     15  O        -35.1020  -18.5120   54.8570 O.2   132  ILE132     -0.2718
     16  CB       -36.5310  -20.4780   56.8080 C.3   132  ILE132      0.0266
     17  CG1      -36.2930  -21.7010   57.6330 C.3   132  ILE132      0.0019
     18  CG2      -37.9870  -20.2130   56.9290 C.3   132  ILE132      0.0020
     19  CD1      -36.3200  -21.2460   59.0460 C.3   132  ILE132      0.0001
     20  N        -37.2270  -18.7840   54.2090 N.am  133  GLY133     -0.1957
     21  CA       -37.2540  -17.4650   53.6110 C.3   133  GLY133      0.1869
     22  C        -36.3980  -17.4040   52.3640 C.2   133  GLY133      0.2309
     23  O        -35.8060  -16.3580   52.0770 O.2   133  GLY133     -0.2863
     24  N        -32.5940  -18.2250   55.5770 N.3   149  PHE149     -0.1241
     25  CA       -32.2160  -18.3790   56.9840 C.3   149  PHE149      0.1605
     26  C        -32.0530  -19.8640   57.3030 C.2   149  PHE149      0.2264
     27  O        -32.9210  -20.6640   56.9540 O.2   149  PHE149     -0.2867
     28  CB       -33.2960  -17.7420   57.8700 C.3   149  PHE149      0.0534
     29  CG       -32.9920  -17.7430   59.3530 C.ar  149  PHE149     -0.0203
     30  CD1      -31.8580  -17.1400   59.8500 C.ar  149  PHE149     -0.0042
     31  CD2      -33.9080  -18.2590   60.2530 C.ar  149  PHE149     -0.0042
     32  CE1      -31.6170  -17.1120   61.2310 C.ar  149  PHE149     -0.0003
     33  CE2      -33.6720  -18.2290   61.6210 C.ar  149  PHE149     -0.0003
     34  CZ       -32.5330  -17.6580   62.1120 C.ar  149  PHE149     -0.0000
     35  N        -28.5370  -15.8450   58.7010 N.3   154  ARG154     -0.1245
     36  CA       -29.1320  -15.4250   57.4500 C.3   154  ARG154      0.1563
     37  C        -28.0600  -15.4850   56.3610 C.2   154  ARG154      0.2260
     38  O        -26.8600  -15.3550   56.6310 O.2   154  ARG154     -0.2867
     39  CB       -29.7200  -14.0220   57.5780 C.3   154  ARG154      0.0307
     40  CG       -31.1040  -13.9560   58.1920 C.3   154  ARG154      0.0489
     41  CD       -31.0720  -13.7040   59.6930 C.3   154  ARG154      0.2205
     42  NE       -32.4150  -13.7360   60.2710 N.pl3 154  ARG154     -0.0865
     43  CZ       -32.6730  -13.6160   61.5760 C.cat 154  ARG154      0.5346
     44  NH1      -31.6820  -13.4480   62.4300 N.pl3 154  ARG154      0.1354
     45  NH2      -33.9200  -13.6520   62.0310 N.pl3 154  ARG154      0.1354
     46  N        -32.6090  -12.5980   53.9670 N.3   179  SER179     -0.1202
     47  CA       -33.6780  -13.5310   54.2710 C.3   179  SER179      0.2020
     48  C        -34.9990  -12.8570   53.9570 C.2   179  SER179      0.2619
     49  O        -35.1630  -11.6560   54.2000 O.2   179  SER179     -0.2717
     50  CB       -33.6670  -13.9710   55.7370 C.3   179  SER179      0.2103
     51  OG       -34.5950  -15.0270   55.9650 O.3   179  SER179     -0.2182
     52  N        -35.9300  -13.6340   53.4060 N.am  180  GLY180     -0.1956
     53  CA       -37.2010  -13.0840   52.9930 C.3   180  GLY180      0.1869
     54  C        -37.0720  -11.9980   51.9530 C.2   180  GLY180      0.2309
     55  O        -37.8540  -11.0430   51.9590 O.2   180  GLY180     -0.2863
     56  N        -34.0830   -9.3390   54.8410 N.3   196  TYR196     -0.1241
     57  CA       -33.7300   -9.0760   56.2250 C.3   196  TYR196      0.1605
     58  C        -32.4240   -9.7900   56.5110 C.2   196  TYR196      0.2264
     59  O        -32.2720  -10.9640   56.1590 O.2   196  TYR196     -0.2867
     60  CB       -34.8180   -9.5740   57.1680 C.3   196  TYR196      0.0534
     61  CG       -34.5270   -9.3120   58.6170 C.ar  196  TYR196     -0.0201
     62  CD1      -34.2960   -8.0160   59.0770 C.ar  196  TYR196     -0.0009
     63  CD2      -34.4890  -10.3530   59.5380 C.ar  196  TYR196     -0.0009
     64  CE1      -34.0290   -7.7620   60.4250 C.ar  196  TYR196      0.0417
     65  CE2      -34.2300  -10.1110   60.8790 C.ar  196  TYR196      0.0417
     66  CZ       -34.0050   -8.8180   61.3130 C.ar  196  TYR196      0.1957
     67  OH       -33.7500   -8.5920   62.6390 O.3   196  TYR196     -0.2866
     68  N        -34.1430   -4.4860   57.8820 N.3   201  GLN201     -0.1245
     69  CA       -34.8200   -4.7040   56.6140 C.3   201  GLN201      0.1566
     70  C        -34.1360   -3.8920   55.5160 C.2   201  GLN201      0.2260
     71  O        -33.5890   -2.8140   55.7600 O.2   201  GLN201     -0.2867
     72  CB       -36.2970   -4.3400   56.7170 C.3   201  GLN201      0.0367
     73  CG       -37.1830   -5.3810   57.3720 C.3   201  GLN201      0.0905
     74  CD       -37.0400   -5.4440   58.8790 C.2   201  GLN201      0.2608
     75  OE1      -36.6120   -4.4800   59.5260 O.2   201  GLN201     -0.2717
     76  NE2      -37.4590   -6.5660   59.4560 N.am  201  GLN201     -0.0878
     77  N        -38.8490   -6.6270   54.0350 N.3   226  SER226     -0.1202
     78  CA       -38.6220   -8.0630   54.0010 C.3   226  SER226      0.2020
     79  C        -39.9680   -8.7700   53.9000 C.2   226  SER226      0.2618
     80  O        -41.0200   -8.1820   54.1610 O.2   226  SER226     -0.2717
     81  CB       -37.8380   -8.5400   55.2260 C.3   226  SER226      0.2103
     82  OG       -38.5080   -8.2150   56.4250 O.3   226  SER226     -0.2182
     83  N        -39.9330  -10.0270   53.4690 N.am  227  ALA227     -0.1979
     84  CA       -41.1570  -10.8030   53.2590 C.3   227  ALA227      0.1597
     85  C        -42.0440  -10.1250   52.2210 C.2   227  ALA227      0.2287
     86  O        -43.2720  -10.1020   52.3420 O.2   227  ALA227     -0.2864
     87  CB       -41.9250  -11.0300   54.5670 C.3   227  ALA227      0.0319
     88  N        -42.5660   -6.0420   55.3240 N.3   243  TYR243     -0.1241
     89  CA       -42.4310   -5.4540   56.6460 C.3   243  TYR243      0.1605
     90  C        -41.1020   -4.7080   56.6900 C.2   243  TYR243      0.2264
     91  O        -40.1340   -5.1120   56.0380 O.2   243  TYR243     -0.2867
     92  CB       -42.5280   -6.5370   57.7340 C.3   243  TYR243      0.0534
     93  CG       -42.3370   -6.0640   59.1670 C.ar  243  TYR243     -0.0201
     94  CD1      -41.1450   -6.2900   59.8440 C.ar  243  TYR243     -0.0009
     95  CD2      -43.3670   -5.4230   59.8580 C.ar  243  TYR243     -0.0009
     96  CE1      -40.9730   -5.8740   61.1650 C.ar  243  TYR243      0.0417
     97  CE2      -43.2020   -4.9990   61.1840 C.ar  243  TYR243      0.0417
     98  CZ       -42.0030   -5.2320   61.8280 C.ar  243  TYR243      0.1957
     99  OH       -41.8150   -4.8270   63.1340 O.3   243  TYR243     -0.2866
@<TRIPOS>BOND
     1    54    55    2
     2    54    53    1
     3    23    22    2
     4    85    86    2
     5    85    84    1
     6    22    21    1
     7    53    52    1
     8     3     4    2
     9     3     2    1
    10    84    83    1
    11    84    87    1
    12    52    48   am
    13    83    79   am
    14    21    20    1
    15    79    78    1
    16    79    80    2
    17    48    49    2
    18    48    47    1
    19    46    47    1
    20    78    77    1
    21    78    81    1
    22    20    14   am
    23     2     1    1
    24     2     5    1
    25    47    50    1
    26    14    15    2
    27    14    13    1
    28    56    57    1
    29    12    13    1
    30    81    82    1
    31     5     6    1
    32    88    89    1
    33    13    16    1
    34    70    71    2
    35    70    69    1
    36    24    25    1
    37    50    51    1
    38    91    90    2
    39    59    58    2
    40    57    58    1
    41    57    60    1
    42    37    38    2
    43    37    36    1
    44     6     7    1
    45    69    72    1
    46    69    68    1
    47    89    90    1
    48    89    92    1
    49    72    73    1
    50    16    18    1
    51    16    17    1
    52     7     8    1
    53    27    26    2
    54    25    26    1
    55    25    28    1
    56    60    61    1
    57    73    74    1
    58    36    39    1
    59    36    35    1
    60    39    40    1
    61    17    19    1
    62    92    93    1
    63    28    29    1
    64     8     9    2
    65    40    41    1
    66    61    62   ar
    67    61    63   ar
    68    74    76   am
    69    74    75    2
    70    62    64   ar
    71    93    94   ar
    72    93    95   ar
    73     9    10    1
    74     9    11    1
    75    29    30   ar
    76    29    31   ar
    77    63    65   ar
    78    41    42    1
    79    94    96   ar
    80    30    32   ar
    81    95    97   ar
    82    31    33   ar
    83    42    43    2
    84    64    66   ar
    85    65    66   ar
    86    96    98   ar
    87    97    98   ar
    88    32    34   ar
    89    66    67    1
    90    43    45    1
    91    43    44    1
    92    33    34   ar
    93    98    99    1
