@<TRIPOS>MOLECULE
tmp/5whoB00.pdb
 95 89 0 0 0
SMALL
GASTEIGER

@<TRIPOS>ATOM
      1  N         86.0480   29.6610   59.5360 N.3    86  ARG86      -0.1245
      2  CA        87.0720   30.5120   60.1450 C.3    86  ARG86       0.1563
      3  C         88.3870   29.7410   60.2540 C.2    86  ARG86       0.2260
      4  O         89.0190   29.6560   61.3110 O.2    86  ARG86      -0.2867
      5  CB        86.6090   31.0510   61.5030 C.3    86  ARG86       0.0307
      6  CG        85.1780   31.5840   61.4740 C.3    86  ARG86       0.0489
      7  CD        85.0890   33.0530   61.8400 C.3    86  ARG86       0.2205
      8  NE        85.3560   33.2890   63.2580 N.pl3  86  ARG86      -0.0865
      9  CZ        86.2460   34.1740   63.7080 C.cat  86  ARG86       0.5346
     10  NH1       86.4350   34.3300   65.0190 N.pl3  86  ARG86       0.1354
     11  NH2       86.9620   34.8980   62.8380 N.pl3  86  ARG86       0.1354
     12  N         89.6660   28.7530   66.3480 N.3   132  ILE132     -0.1245
     13  CA        88.9750   29.2690   65.1800 C.3   132  ILE132      0.1561
     14  C         89.3630   30.7340   65.0310 C.2   132  ILE132      0.2260
     15  O         89.8590   31.3750   65.9640 O.2   132  ILE132     -0.2867
     16  CB        87.4490   29.0850   65.2560 C.3   132  ILE132      0.0252
     17  CG1       86.7880   30.2340   66.0030 C.3   132  ILE132      0.0019
     18  CG2       87.1190   27.7490   65.9130 C.3   132  ILE132      0.0019
     19  CD1       85.3310   30.4010   65.6390 C.3   132  ILE132      0.0001
     20  N         90.3820   31.7870   68.7250 N.3   149  PHE149     -0.1241
     21  CA        89.3080   31.6660   69.7140 C.3   149  PHE149      0.1605
     22  C         89.0620   30.1820   69.9640 C.2   149  PHE149      0.2264
     23  O         88.8790   29.4250   69.0000 O.2   149  PHE149     -0.2867
     24  CB        88.0370   32.3490   69.1800 C.3   149  PHE149      0.0534
     25  CG        86.8570   32.3080   70.1150 C.ar  149  PHE149     -0.0203
     26  CD1       86.9420   32.8440   71.3980 C.ar  149  PHE149     -0.0042
     27  CD2       85.6490   31.7540   69.6950 C.ar  149  PHE149     -0.0042
     28  CE1       85.8460   32.8240   72.2550 C.ar  149  PHE149     -0.0003
     29  CE2       84.5510   31.7270   70.5270 C.ar  149  PHE149     -0.0003
     30  CZ        84.6440   32.2670   71.8220 C.ar  149  PHE149     -0.0000
     31  N         89.3610   34.1020   73.7860 N.3   154  ARG154     -0.1245
     32  CA        90.2050   34.5820   72.7010 C.3   154  ARG154      0.1563
     33  C         91.6610   34.4600   73.1370 C.2   154  ARG154      0.2260
     34  O         91.9650   34.4450   74.3380 O.2   154  ARG154     -0.2867
     35  CB        89.8590   36.0320   72.3560 C.3   154  ARG154      0.0307
     36  CG        88.7000   36.1990   71.3910 C.3   154  ARG154      0.0489
     37  CD        87.3960   36.4490   72.1320 C.3   154  ARG154      0.2205
     38  NE        86.2500   36.3410   71.2290 N.pl3 154  ARG154     -0.0865
     39  CZ        84.9810   36.3820   71.6210 C.cat 154  ARG154      0.5346
     40  NH1       84.6930   36.5350   72.9030 N.pl3 154  ARG154      0.1354
     41  NH2       84.0020   36.2680   70.7260 N.pl3 154  ARG154      0.1354
     42  N         91.6870   37.2640   67.9640 N.3   179  SER179     -0.1202
     43  CA        91.0140   36.3240   67.0750 C.3   179  SER179      0.2020
     44  C         90.6360   37.0530   65.7980 C.2   179  SER179      0.2619
     45  O         90.3720   38.2570   65.8140 O.2   179  SER179     -0.2717
     46  CB        89.7600   35.6970   67.7030 C.3   179  SER179      0.2103
     47  OG        88.7280   36.6510   67.8610 O.3   179  SER179     -0.2182
     48  N         90.6300   36.3150   64.6930 N.am  180  GLY180     -0.1956
     49  CA        90.2910   36.9260   63.4190 C.3   180  GLY180      0.1869
     50  C         91.2280   38.0470   63.0320 C.2   180  GLY180      0.2309
     51  O         90.7840   39.0530   62.4730 O.2   180  GLY180     -0.2863
     52  N         90.2920   40.7770   67.1740 N.3   196  TYR196     -0.1241
     53  CA        89.2970   41.1040   68.1790 C.3   196  TYR196      0.1605
     54  C         89.7500   40.4710   69.4810 C.2   196  TYR196      0.2264
     55  O         90.0630   39.2760   69.5070 O.2   196  TYR196     -0.2867
     56  CB        87.9330   40.5730   67.7560 C.3   196  TYR196      0.0534
     57  CG        86.7970   40.8950   68.6830 C.ar  196  TYR196     -0.0201
     58  CD1       86.3140   42.1960   68.8020 C.ar  196  TYR196     -0.0009
     59  CD2       86.1830   39.8920   69.4270 C.ar  196  TYR196     -0.0009
     60  CE1       85.2630   42.4870   69.6470 C.ar  196  TYR196      0.0417
     61  CE2       85.1260   40.1770   70.2750 C.ar  196  TYR196      0.0417
     62  CZ        84.6730   41.4720   70.3760 C.ar  196  TYR196      0.1957
     63  OH        83.6290   41.7570   71.2130 O.3   196  TYR196     -0.2866
     64  N         87.5020   45.6020   68.4210 N.3   201  GLN201     -0.1245
     65  CA        88.3550   45.3630   67.2630 C.3   201  GLN201      0.1566
     66  C         89.6370   46.1740   67.3820 C.2   201  GLN201      0.2260
     67  O         89.6590   47.2520   67.9800 O.2   201  GLN201     -0.2867
     68  CB        87.6460   45.7350   65.9570 C.3   201  GLN201      0.0367
     69  CG        86.5120   44.8160   65.5810 C.3   201  GLN201      0.0905
     70  CD        85.2580   45.1580   66.3530 C.2   201  GLN201      0.2608
     71  OE1       85.1240   46.2670   66.8740 O.2   201  GLN201     -0.2717
     72  NE2       84.3420   44.2040   66.4520 N.am  201  GLN201     -0.0878
     73  N         88.5420   43.2950   62.3100 N.3   226  SER226     -0.1202
     74  CA        88.6370   41.8580   62.5160 C.3   226  SER226      0.2020
     75  C         88.0750   41.1400   61.2970 C.2   226  SER226      0.2618
     76  O         87.2410   41.6830   60.5640 O.2   226  SER226     -0.2717
     77  CB        87.8750   41.4240   63.7650 C.3   226  SER226      0.2103
     78  OG        86.5000   41.6770   63.5670 O.3   226  SER226     -0.2182
     79  N         88.5240   39.9010   61.1040 N.am  227  ALA227     -0.1979
     80  CA        88.1640   39.1060   59.9300 C.3   227  ALA227      0.1597
     81  C         88.6300   39.7880   58.6430 C.2   227  ALA227      0.2287
     82  O         87.9710   39.7090   57.6010 O.2   227  ALA227     -0.2864
     83  CB        86.6590   38.8110   59.8790 C.3   227  ALA227      0.0319
     84  N         85.8190   44.0830   59.6830 N.3   243  TYR243     -0.1241
     85  CA        84.7220   44.6890   60.4200 C.3   243  TYR243      0.1605
     86  C         85.2800   45.4230   61.6310 C.2   243  TYR243      0.2264
     87  O         86.1760   44.9140   62.3150 O.2   243  TYR243     -0.2867
     88  CB        83.7160   43.6020   60.8350 C.3   243  TYR243      0.0534
     89  CG        82.5860   44.0470   61.7340 C.ar  243  TYR243     -0.0201
     90  CD1       82.5170   43.6190   63.0510 C.ar  243  TYR243     -0.0009
     91  CD2       81.5680   44.8660   61.2560 C.ar  243  TYR243     -0.0009
     92  CE1       81.4720   44.0120   63.8800 C.ar  243  TYR243      0.0417
     93  CE2       80.5210   45.2680   62.0750 C.ar  243  TYR243      0.0417
     94  CZ        80.4790   44.8340   63.3860 C.ar  243  TYR243      0.1957
     95  OH        79.4460   45.2180   64.2050 O.3   243  TYR243     -0.2866
@<TRIPOS>BOND
     1    82    81    2
     2    81    80    1
     3     1     2    1
     4    84    85    1
     5    83    80    1
     6    80    79    1
     7     2     3    1
     8     2     5    1
     9     3     4    2
    10    85    88    1
    11    85    86    1
    12    76    75    2
    13    88    89    1
    14    79    75   am
    15    91    89   ar
    16    91    93   ar
    17    75    74    1
    18     6     5    1
    19     6     7    1
    20    86    87    2
    21    89    90   ar
    22     7     8    1
    23    93    94   ar
    24    73    74    1
    25    51    50    2
    26    74    77    1
    27    11     9    1
    28    50    49    1
    29    90    92   ar
    30     8     9    2
    31    94    92   ar
    32    94    95    1
    33    49    48    1
    34    78    77    1
    35     9    10    1
    36    48    44   am
    37    14    13    1
    38    14    15    2
    39    13    16    1
    40    13    12    1
    41    16    18    1
    42    16    17    1
    43    69    68    1
    44    69    70    1
    45    19    17    1
    46    44    45    2
    47    44    43    1
    48    68    65    1
    49    70    72   am
    50    70    71    2
    51    43    46    1
    52    43    42    1
    53    52    53    1
    54    65    66    1
    55    65    64    1
    56    66    67    2
    57    46    47    1
    58    56    53    1
    59    56    57    1
    60    53    54    1
    61    57    58   ar
    62    57    59   ar
    63    20    21    1
    64    58    60   ar
    65    23    22    2
    66    24    21    1
    67    24    25    1
    68    59    61   ar
    69    54    55    2
    70    60    62   ar
    71    27    25   ar
    72    27    29   ar
    73    21    22    1
    74    25    26   ar
    75    61    62   ar
    76    62    63    1
    77    29    30   ar
    78    41    39    1
    79    38    39    2
    80    38    37    1
    81    36    37    1
    82    36    35    1
    83    26    28   ar
    84    39    40    1
    85    30    28   ar
    86    35    32    1
    87    32    33    1
    88    32    31    1
    89    33    34    2
