@<TRIPOS>MOLECULE
tmp/5whrB01.pdb
 124 119 0 0 0
SMALL
GASTEIGER

@<TRIPOS>ATOM
      1  N         30.8960    2.0020   17.8850 N.3   115  TYR115     -0.1241
      2  CA        30.5300    1.1110   16.7870 C.3   115  TYR115      0.1605
      3  C         31.2220    1.5180   15.4690 C.2   115  TYR115      0.2264
      4  O         31.6620    0.6480   14.7170 O.2   115  TYR115     -0.2867
      5  CB        29.0060    1.1280   16.6580 C.3   115  TYR115      0.0534
      6  CG        28.4330    0.2420   15.5790 C.ar  115  TYR115     -0.0201
      7  CD1       28.1000   -1.0820   15.8500 C.ar  115  TYR115     -0.0009
      8  CD2       28.0970    0.7550   14.3290 C.ar  115  TYR115     -0.0009
      9  CE1       27.4900   -1.8850   14.8930 C.ar  115  TYR115      0.0417
     10  CE2       27.4920   -0.0430   13.3570 C.ar  115  TYR115      0.0417
     11  CZ        27.1930   -1.3630   13.6480 C.ar  115  TYR115      0.1957
     12  OH        26.5780   -2.1690   12.7370 O.3   115  TYR115     -0.2866
     13  N         35.1480   -0.0400   15.9830 N.3   118  CYS118     -0.1221
     14  CA        35.2640   -1.4970   16.0410 C.3   118  CYS118      0.1808
     15  C         34.4220   -2.2490   15.0170 C.2   118  CYS118      0.2601
     16  O         34.6610   -3.4410   14.8190 O.2   118  CYS118     -0.2717
     17  CB        35.0470   -2.0300   17.4560 C.3   118  CYS118      0.0970
     18  SG        33.3800   -1.7670   18.1340 S.3   118  CYS118     -0.0800
     19  N         33.4860   -1.5890   14.3200 N.am  119  VAL119     -0.1979
     20  CA        32.7400   -2.2810   13.2580 C.3   119  VAL119      0.1595
     21  C         32.9240   -1.5970   11.9080 C.2   119  VAL119      0.2287
     22  O         33.3590   -2.2420   10.9660 O.2   119  VAL119     -0.2864
     23  CB        31.2470   -2.5330   13.5860 C.3   119  VAL119      0.0276
     24  CG1       30.4620   -2.9860   12.3520 C.3   119  VAL119      0.0022
     25  CG2       31.1000   -3.5430   14.7180 C.3   119  VAL119      0.0022
     26  N         31.6400  -11.6200   15.5000 N.3   152  PHE152     -0.1227
     27  CA        30.7760  -10.5720   16.0400 C.3   152  PHE152      0.1736
     28  C         30.8560   -9.2570   15.2590 C.2   152  PHE152      0.2595
     29  O         29.8180   -8.7770   14.8140 O.2   152  PHE152     -0.2718
     30  CB        31.0470  -10.3730   17.5340 C.3   152  PHE152      0.0547
     31  CG        30.1620   -9.3530   18.1930 C.ar  152  PHE152     -0.0202
     32  CD1       28.8820   -9.6970   18.6200 C.ar  152  PHE152     -0.0042
     33  CD2       30.5980   -8.0440   18.3840 C.ar  152  PHE152     -0.0042
     34  CE1       28.0460   -8.7420   19.1920 C.ar  152  PHE152     -0.0003
     35  CE2       29.7640   -7.0950   18.9620 C.ar  152  PHE152     -0.0003
     36  CZ        28.4970   -7.4590   19.3710 C.ar  152  PHE152     -0.0000
     37  N         32.0680   -8.6930   15.0690 N.am  153  PHE153     -0.1976
     38  CA        32.2110   -7.4410   14.3290 C.3   153  PHE153      0.1639
     39  C         31.8130   -7.5710   12.8580 C.2   153  PHE153      0.2290
     40  O         31.1490   -6.6710   12.3540 O.2   153  PHE153     -0.2864
     41  CB        33.6060   -6.8100   14.4860 C.3   153  PHE153      0.0560
     42  CG        34.0300   -6.4350   15.8930 C.ar  153  PHE153     -0.0200
     43  CD1       33.1000   -5.9370   16.8110 C.ar  153  PHE153     -0.0042
     44  CD2       35.3570   -6.5610   16.2990 C.ar  153  PHE153     -0.0042
     45  CE1       33.4860   -5.6210   18.1230 C.ar  153  PHE153     -0.0003
     46  CE2       35.7470   -6.2210   17.5990 C.ar  153  PHE153     -0.0003
     47  CZ        34.8060   -5.7570   18.5060 C.ar  153  PHE153     -0.0000
     48  N         27.8680   -7.9270   12.1990 N.3   156  SER156     -0.1217
     49  CA        27.3560   -6.5570   12.3390 C.3   156  SER156      0.1889
     50  C         27.5990   -5.7590   11.0510 C.2   156  SER156      0.2288
     51  O         26.6810   -5.1190   10.5410 O.2   156  SER156     -0.2866
     52  CB        28.0290   -5.8490   13.5130 C.3   156  SER156      0.2089
     53  OG        27.2410   -5.9890   14.6800 O.3   156  SER156     -0.2183
     54  N         30.9900  -14.4880   23.8390 N.3   215  PHE215     -0.1241
     55  CA        30.4370  -13.1470   23.7220 C.3   215  PHE215      0.1605
     56  C         30.1890  -12.5860   25.1230 C.2   215  PHE215      0.2264
     57  O         30.6850  -11.5060   25.4500 O.2   215  PHE215     -0.2867
     58  CB        29.1460  -13.0920   22.8600 C.3   215  PHE215      0.0534
     59  CG        28.5080  -11.7230   22.9760 C.ar  215  PHE215     -0.0203
     60  CD1       29.0850  -10.6140   22.3580 C.ar  215  PHE215     -0.0042
     61  CD2       27.4390  -11.5100   23.8360 C.ar  215  PHE215     -0.0042
     62  CE1       28.5890   -9.3200   22.5860 C.ar  215  PHE215     -0.0003
     63  CE2       26.9430  -10.2240   24.0630 C.ar  215  PHE215     -0.0003
     64  CZ        27.5170   -9.1320   23.4330 C.ar  215  PHE215     -0.0000
     65  N         33.7450   -4.4010   25.4180 N.3   223  LEU223     -0.1245
     66  CA        32.9790   -3.3620   24.7170 C.3   223  LEU223      0.1561
     67  C         32.1880   -2.4260   25.6650 C.2   223  LEU223      0.2260
     68  O         31.7010   -1.3810   25.2240 O.2   223  LEU223     -0.2867
     69  CB        32.0720   -3.9900   23.6340 C.3   223  LEU223      0.0270
     70  CG        32.8060   -4.8640   22.5930 C.3   223  LEU223      0.0019
     71  CD1       31.8370   -5.6570   21.7690 C.3   223  LEU223      0.0001
     72  CD2       33.7270   -4.0330   21.6970 C.3   223  LEU223      0.0001
     73  N         30.2220    0.6440   23.6400 N.3   251  GLY251     -0.1210
     74  CA        29.7790    0.4430   22.2680 C.3   251  GLY251      0.1956
     75  C         28.4990   -0.3740   22.2260 C.2   251  GLY251      0.2613
     76  O         28.2090   -1.1280   23.1580 O.2   251  GLY251     -0.2717
     77  N         27.6900   -0.1640   21.1840 N.am  252  SER252     -0.1938
     78  CA        26.4600   -0.9000   20.9230 C.3   252  SER252      0.2055
     79  C         26.0350   -0.6410   19.4870 C.2   252  SER252      0.2643
     80  O         26.4970    0.3290   18.8820 O.2   252  SER252     -0.2714
     81  CB        25.3410   -0.5520   21.9240 C.3   252  SER252      0.2130
     82  OG        24.8100    0.7600   21.8310 O.3   252  SER252     -0.2179
     83  N         25.1380   -1.4930   18.9380 N.am  253  ALA253     -0.1963
     84  CA        24.6010   -1.2330   17.6140 C.3   253  ALA253      0.1728
     85  C         23.4690   -0.2050   17.7200 C.2   253  ALA253      0.2616
     86  O         22.9700    0.2550   16.7090 O.2   253  ALA253     -0.2715
     87  CB        24.1850   -2.5000   16.9090 C.3   253  ALA253      0.0334
     88  N         23.2030    0.2710   18.9430 N.am  254  GLY254     -0.1955
     89  CA        22.3110    1.4060   19.1900 C.3   254  GLY254      0.1869
     90  C         22.9390    2.6620   18.5900 C.2   254  GLY254      0.2309
     91  O         22.2400    3.6320   18.2580 O.2   254  GLY254     -0.2863
     92  N         16.2180  -10.5080   16.4850 N.3   335  HIS335     -0.1241
     93  CA        17.2590   -9.9180   17.3040 C.3   335  HIS335      0.1621
     94  C         17.0000  -10.2190   18.7900 C.2   335  HIS335      0.2264
     95  O         17.9500  -10.5460   19.4940 O.2   335  HIS335     -0.2867
     96  CB        17.3680   -8.4130   17.0160 C.3   335  HIS335      0.0745
     97  CG        18.3940   -7.7110   17.8260 C.ar  335  HIS335      0.0817
     98  ND1       18.0480   -7.0060   18.9580 N.ar  335  HIS335     -0.2268
     99  CD2       19.7310   -7.6400   17.6530 C.ar  335  HIS335      0.1154
    100  CE1       19.1790   -6.5250   19.4420 C.ar  335  HIS335      0.1986
    101  NE2       20.2240   -6.8830   18.6890 N.ar  335  HIS335     -0.2212
    102  N         22.8150  -13.4210   25.7810 N.3   343  ILE343     -0.1245
    103  CA        22.8990  -12.6990   27.0390 C.3   343  ILE343      0.1561
    104  C         22.0930  -13.4130   28.1500 C.2   343  ILE343      0.2260
    105  O         22.7120  -13.7900   29.1470 O.2   343  ILE343     -0.2867
    106  CB        22.5770  -11.1810   26.9290 C.3   343  ILE343      0.0252
    107  CG1       23.6400  -10.4410   26.0870 C.3   343  ILE343      0.0019
    108  CG2       22.4590  -10.5450   28.3280 C.3   343  ILE343      0.0019
    109  CD1       23.4370   -8.9420   25.8580 C.3   343  ILE343      0.0001
    110  N         24.0540   -5.5270   28.8560 N.3   351  GLY351     -0.1210
    111  CA        24.7330   -5.5550   27.5650 C.3   351  GLY351      0.1956
    112  C         25.8310   -4.5140   27.4950 C.2   351  GLY351      0.2613
    113  O         26.1270   -3.8530   28.4960 O.2   351  GLY351     -0.2717
    114  N         26.4420   -4.3520   26.3230 N.am  352  THR352     -0.1938
    115  CA        27.5760   -3.4330   26.1610 C.3   352  THR352      0.2028
    116  C         27.1940   -1.9160   26.2010 C.2   352  THR352      0.2642
    117  O         28.0420   -1.0950   26.5650 O.2   352  THR352     -0.2714
    118  CB        28.3880   -3.7950   24.9040 C.3   352  THR352      0.1808
    119  OG1       27.5590   -3.6550   23.7520 O.3   352  THR352     -0.2208
    120  CG2       28.9170   -5.2000   24.9420 C.3   352  THR352      0.0379
    121  N         25.9560   -1.5720   25.8330 N.am  353  GLY353     -0.1954
    122  CA        25.4760   -0.1900   25.8130 C.3   353  GLY353      0.1869
    123  C         25.0520    0.3660   27.1600 C.2   353  GLY353      0.2309
    124  O         25.1360    1.5750   27.3890 O.2   353  GLY353     -0.2863
@<TRIPOS>BOND
     1    51    50    2
     2    22    21    2
     3    50    49    1
     4    21    20    1
     5    48    49    1
     6    49    52    1
     7    24    23    1
     8    40    39    2
     9    12    11    1
    10    39    38    1
    11    20    23    1
    12    20    19    1
    13    10    11   ar
    14    10     8   ar
    15    52    53    1
    16    23    25    1
    17    11     9   ar
    18    19    15   am
    19     8     6   ar
    20    38    41    1
    21    38    37    1
    22    41    42    1
    23     4     3    2
    24    29    28    2
    25    16    15    2
    26     9     7   ar
    27    15    14    1
    28    37    28   am
    29    28    27    1
    30     3     2    1
    31    26    27    1
    32     6     7   ar
    33     6     5    1
    34    42    44   ar
    35    42    43   ar
    36    13    14    1
    37    27    30    1
    38    14    17    1
    39    44    46   ar
    40    92    93    1
    41     5     2    1
    42    86    85    2
    43     2     1    1
    44    43    45   ar
    45    87    84    1
    46    96    93    1
    47    96    97    1
    48    93    94    1
    49    17    18    1
    50    30    31    1
    51    46    47   ar
    52    84    85    1
    53    84    83    1
    54    99    97   ar
    55    99   101   ar
    56    85    88   am
    57    97    98   ar
    58    45    47   ar
    59    31    33   ar
    60    31    32   ar
    61    91    90    2
    62    33    35   ar
    63    90    89    1
    64    32    34   ar
    65   101   100   ar
    66    94    95    2
    67    80    79    2
    68    83    79   am
    69    88    89    1
    70    98   100   ar
    71    35    36   ar
    72    34    36   ar
    73    79    78    1
    74    78    77    1
    75    78    81    1
    76    77    75   am
    77    72    70    1
    78    71    70    1
    79    82    81    1
    80    75    74    1
    81    75    76    2
    82    74    73    1
    83    60    62   ar
    84    60    59   ar
    85    62    64   ar
    86    70    69    1
    87    58    59    1
    88    58    55    1
    89    59    61   ar
    90    64    63   ar
    91    69    66    1
    92    55    54    1
    93    55    56    1
    94   119   118    1
    95    61    63   ar
    96    66    65    1
    97    66    67    1
    98   118   120    1
    99   118   115    1
   100    56    57    2
   101    68    67    2
   102   102   103    1
   103   122   121    1
   104   122   123    1
   105   121   116   am
   106   109   107    1
   107   107   106    1
   108   115   116    1
   109   115   114    1
   110   116   117    2
   111   114   112   am
   112   106   103    1
   113   106   108    1
   114   103   104    1
   115   123   124    2
   116   112   111    1
   117   112   113    2
   118   111   110    1
   119   104   105    2
