@<TRIPOS>MOLECULE
tmp/5whtC00.pdb
 84 80 0 0 0
SMALL
GASTEIGER

@<TRIPOS>ATOM
      1  N         -8.9210   -5.7220  -11.3300 N.3     9  ALA9       -0.1231
      2  CA       -10.2090   -6.1050  -10.7620 C.3     9  ALA9        0.1694
      3  C        -11.2210   -5.0200  -11.0860 C.2     9  ALA9        0.2592
      4  O        -10.8450   -3.8750  -11.2750 O.2     9  ALA9       -0.2718
      5  CB       -10.0840   -6.2630   -9.2530 C.3     9  ALA9        0.0304
      6  N        -12.5040   -5.3620  -11.1560 N.am   10  TYR10      -0.1962
      7  CA       -13.4940   -4.3180  -11.3910 C.3    10  TYR10       0.1771
      8  C        -14.7730   -4.5380  -10.5940 C.2    10  TYR10       0.2620
      9  O        -15.0270   -5.6290  -10.0880 O.2    10  TYR10      -0.2715
     10  CB       -13.8000   -4.1840  -12.8820 C.3    10  TYR10       0.0574
     11  CG       -14.3320   -5.4540  -13.5050 C.ar   10  TYR10      -0.0198
     12  CD1      -15.6670   -5.7920  -13.3980 C.ar   10  TYR10      -0.0009
     13  CD2      -13.4910   -6.3130  -14.2000 C.ar   10  TYR10      -0.0009
     14  CE1      -16.1600   -6.9610  -13.9650 C.ar   10  TYR10       0.0417
     15  CE2      -13.9680   -7.4710  -14.7680 C.ar   10  TYR10       0.0417
     16  CZ       -15.3020   -7.7920  -14.6500 C.ar   10  TYR10       0.1957
     17  OH       -15.7700   -8.9510  -15.2200 O.3    10  TYR10      -0.2866
     18  N        -15.5780   -3.4900  -10.4890 N.am   11  TYR11      -0.1960
     19  CA       -16.7960   -3.5380   -9.6940 C.3    11  TYR11       0.1771
     20  C        -17.8710   -2.7580  -10.4350 C.2    11  TYR11       0.2620
     21  O        -17.6830   -1.5850  -10.7410 O.2    11  TYR11      -0.2715
     22  CB       -16.5570   -2.9210   -8.3060 C.3    11  TYR11       0.0574
     23  CG       -15.4080   -3.5480   -7.5360 C.ar   11  TYR11      -0.0198
     24  CD1      -14.0970   -3.1170   -7.7270 C.ar   11  TYR11      -0.0009
     25  CD2      -15.6320   -4.5730   -6.6250 C.ar   11  TYR11      -0.0009
     26  CE1      -13.0410   -3.6920   -7.0290 C.ar   11  TYR11       0.0417
     27  CE2      -14.5860   -5.1500   -5.9270 C.ar   11  TYR11       0.0417
     28  CZ       -13.2940   -4.7050   -6.1360 C.ar   11  TYR11       0.1957
     29  OH       -12.2500   -5.2710   -5.4420 O.3    11  TYR11      -0.2866
     30  N        -18.9920   -3.4140  -10.7250 N.am   12  SER12      -0.1950
     31  CA       -20.0460   -2.8150  -11.5360 C.3    12  SER12       0.1924
     32  C        -21.1760   -2.1930  -10.7140 C.2    12  SER12       0.2314
     33  O        -21.3600   -2.5100   -9.5300 O.2    12  SER12      -0.2863
     34  CB       -20.6560   -3.8780  -12.4550 C.3    12  SER12       0.2116
     35  OG       -19.6650   -4.5020  -13.2480 O.3    12  SER12      -0.2180
     36  N        -21.6780    0.7100   -9.5480 N.3    14  GLU14      -0.1245
     37  CA       -21.1850    1.5230   -8.4450 C.3    14  GLU14       0.1567
     38  C        -21.4520    2.9930   -8.7180 C.2    14  GLU14       0.2260
     39  O        -21.6520    3.4050   -9.8600 O.2    14  GLU14      -0.2867
     40  CB       -19.6670    1.3240   -8.2640 C.3    14  GLU14       0.0388
     41  CG       -19.2560   -0.1130   -7.9820 C.3    14  GLU14       0.1160
     42  CD       -19.2300   -0.4560   -6.5040 C.2    14  GLU14       0.3649
     43  OE1      -19.2180    0.4700   -5.6630 O.co2  14  GLU14      -0.2457
     44  OE2      -19.2040   -1.6600   -6.1810 O.co2  14  GLU14      -0.2457
     45  N        -22.2890    0.6740   -4.0510 N.3    36  LYS36      -0.1245
     46  CA       -23.2960    0.1020   -4.9260 C.3    36  LYS36       0.1561
     47  C        -24.4770    1.0570   -5.0250 C.2    36  LYS36       0.2260
     48  O        -24.9260    1.6180   -4.0200 O.2    36  LYS36      -0.2867
     49  CB       -23.7700   -1.2580   -4.3950 C.3    36  LYS36       0.0271
     50  CG       -22.7230   -2.3510   -4.4820 C.3    36  LYS36       0.0035
     51  CD       -22.4250   -2.7260   -5.9330 C.3    36  LYS36       0.0206
     52  CE       -21.4520   -3.8990   -5.9920 C.3    36  LYS36       0.1093
     53  NZ       -21.2690   -4.4160   -7.3790 N.3    36  LYS36      -0.1314
     54  N        -23.3980   -4.3070   -0.3720 N.3    41  GLY41      -0.1210
     55  CA       -21.9600   -4.4800   -0.4680 C.3    41  GLY41       0.1956
     56  C        -21.1200   -3.5200    0.3520 C.2    41  GLY41       0.2612
     57  O        -21.6110   -2.8460    1.2570 O.2    41  GLY41      -0.2717
     58  N        -19.8340   -3.4700    0.0220 N.am   42  THR42      -0.1952
     59  CA       -18.8590   -2.6900    0.7760 C.3    42  THR42       0.1897
     60  C        -18.2030   -1.6740   -0.1510 C.2    42  THR42       0.2313
     61  O        -17.9040   -1.9890   -1.2960 O.2    42  THR42      -0.2863
     62  CB       -17.7670   -3.6130    1.3730 C.3    42  THR42       0.1794
     63  OG1      -18.3640   -4.5320    2.2930 O.3    42  THR42      -0.2208
     64  CG2      -16.7100   -2.8020    2.0960 C.3    42  THR42       0.0378
     65  N        -18.7680    1.2770  -13.8110 N.3    77  ARG77      -0.1245
     66  CA       -17.8950    0.1850  -13.4180 C.3    77  ARG77       0.1563
     67  C        -16.5320    0.7840  -13.1080 C.2    77  ARG77       0.2260
     68  O        -15.9870    1.5270  -13.9130 O.2    77  ARG77      -0.2867
     69  CB       -17.7800   -0.8690  -14.5230 C.3    77  ARG77       0.0307
     70  CG       -16.7500   -1.9740  -14.2010 C.3    77  ARG77       0.0489
     71  CD       -16.7070   -3.0680  -15.2750 C.3    77  ARG77       0.2205
     72  NE       -17.9720   -3.7930  -15.3570 N.pl3  77  ARG77      -0.0865
     73  CZ       -18.3570   -4.5220  -16.4000 C.cat  77  ARG77       0.5346
     74  NH1      -17.5640   -4.6420  -17.4600 N.pl3  77  ARG77       0.1354
     75  NH2      -19.5390   -5.1310  -16.3850 N.pl3  77  ARG77       0.1354
     76  N         -5.1750   -3.9250   -7.5490 N.3    82  LYS82      -0.1245
     77  CA        -5.0270   -4.0090   -6.0960 C.3    82  LYS82       0.1561
     78  C         -3.5650   -3.9660   -5.6550 C.2    82  LYS82       0.2260
     79  O         -2.6640   -4.2500   -6.4400 O.2    82  LYS82      -0.2867
     80  CB        -5.6770   -5.2930   -5.5540 C.3    82  LYS82       0.0271
     81  CG        -7.1880   -5.3640   -5.7420 C.3    82  LYS82       0.0035
     82  CD        -7.7210   -6.6720   -5.1700 C.3    82  LYS82       0.0206
     83  CE        -9.2400   -6.7830   -5.2660 C.3    82  LYS82       0.1093
     84  NZ        -9.6850   -8.1290   -4.7580 N.3    82  LYS82      -0.1314
@<TRIPOS>BOND
     1    74    73    1
     2    73    75    1
     3    73    72    2
     4    72    71    1
     5    71    70    1
     6    17    16    1
     7    15    16   ar
     8    15    13   ar
     9    16    14   ar
    10    69    70    1
    11    69    66    1
    12    13    11   ar
    13    14    12   ar
    14    68    67    2
    15    65    66    1
    16    11    12   ar
    17    11    10    1
    18    66    67    1
    19    35    34    1
    20    10     7    1
    21    34    31    1
    22    31    30    1
    23    31    32    1
    24     7     6    1
    25     7     8    1
    26     1     2    1
    27     4     3    2
    28     6     3   am
    29     3     2    1
    30     2     5    1
    31    21    20    2
    32    30    20   am
    33    32    33    2
    34     8    18   am
    35     8     9    2
    36    18    19    1
    37    20    19    1
    38    39    38    2
    39    19    22    1
    40    36    37    1
    41    38    37    1
    42    37    40    1
    43    22    23    1
    44    40    41    1
    45    41    42    1
    46    24    23   ar
    47    24    26   ar
    48    76    77    1
    49    23    25   ar
    50    53    52    1
    51    26    28   ar
    52    25    27   ar
    53    42    44   ar
    54    42    43   ar
    55    79    78    2
    56    28    27   ar
    57    28    29    1
    58    77    78    1
    59    77    80    1
    60    52    51    1
    61    51    50    1
    62    81    80    1
    63    81    82    1
    64    83    82    1
    65    83    84    1
    66    47    46    1
    67    47    48    2
    68    46    49    1
    69    46    45    1
    70    50    49    1
    71    61    60    2
    72    55    54    1
    73    55    56    1
    74    60    59    1
    75    58    56   am
    76    58    59    1
    77    56    57    2
    78    59    62    1
    79    62    64    1
    80    62    63    1
