@<TRIPOS>MOLECULE
tmp/5whuI02.pdb
 117 114 0 0 0
SMALL
GASTEIGER

@<TRIPOS>ATOM
      1  N        114.0190 -173.2900  264.1090 N.3    22  TYR22      -0.1241
      2  CA       113.6700 -172.9180  262.7560 C.3    22  TYR22       0.1605
      3  C        114.5740 -171.8000  262.2860 C.2    22  TYR22       0.2264
      4  O        114.9380 -170.9180  263.0680 O.2    22  TYR22      -0.2867
      5  CB       112.2140 -172.4640  262.7430 C.3    22  TYR22       0.0534
      6  CG       111.7260 -171.8990  261.4410 C.ar   22  TYR22      -0.0201
      7  CD1      111.7160 -172.6680  260.2830 C.ar   22  TYR22      -0.0009
      8  CD2      111.2340 -170.6030  261.3760 C.ar   22  TYR22      -0.0009
      9  CE1      111.2550 -172.1530  259.0840 C.ar   22  TYR22       0.0417
     10  CE2      110.7670 -170.0820  260.1900 C.ar   22  TYR22       0.0417
     11  CZ       110.7800 -170.8570  259.0470 C.ar   22  TYR22       0.1957
     12  OH       110.3080 -170.3290  257.8720 O.3    22  TYR22      -0.2866
     13  N        114.8180 -168.5910  260.0860 N.3    24  SER24      -0.1202
     14  CA       114.0500 -167.5360  259.4130 C.3    24  SER24       0.2020
     15  C        114.9840 -166.3600  259.1570 C.2    24  SER24       0.2619
     16  O        115.9060 -166.1190  259.9340 O.2    24  SER24      -0.2717
     17  CB       112.8640 -167.1050  260.2750 C.3    24  SER24       0.2103
     18  OG       111.9860 -166.2560  259.5570 O.3    24  SER24      -0.2182
     19  N        114.7670 -165.6330  258.0670 N.am   25  GLY25      -0.1956
     20  CA       115.7850 -164.7140  257.5980 C.3    25  GLY25       0.1869
     21  C        117.0500 -165.5430  257.4990 C.2    25  GLY25       0.2309
     22  O        117.0180 -166.6760  257.0250 O.2    25  GLY25      -0.2863
     23  N        118.8020 -166.2720  260.3710 N.3    27  LYS27      -0.1245
     24  CA       119.0560 -166.4590  261.7940 C.3    27  LYS27       0.1561
     25  C        118.4490 -167.7580  262.3330 C.2    27  LYS27       0.2260
     26  O        117.3370 -168.1370  261.9670 O.2    27  LYS27      -0.2867
     27  CB       118.5370 -165.2530  262.5910 C.3    27  LYS27       0.0271
     28  CG       119.2210 -163.9390  262.2150 C.3    27  LYS27       0.0035
     29  CD       119.1610 -162.9010  263.3390 C.3    27  LYS27       0.0206
     30  CE       117.8560 -162.1110  263.3400 C.3    27  LYS27       0.1093
     31  NZ       117.7930 -161.1130  264.4560 N.3    27  LYS27      -0.1314
     32  N        109.2320 -165.5090  269.5690 N.3    51  ILE51      -0.1245
     33  CA       110.4400 -165.9950  268.9120 C.3    51  ILE51       0.1561
     34  C        111.6580 -165.3570  269.5530 C.2    51  ILE51       0.2260
     35  O        111.6710 -164.1550  269.8110 O.2    51  ILE51      -0.2867
     36  CB       110.4030 -165.6900  267.4180 C.3    51  ILE51       0.0252
     37  CG1      109.1650 -166.3490  266.7970 C.3    51  ILE51       0.0019
     38  CG2      111.6790 -166.1750  266.7280 C.3    51  ILE51       0.0019
     39  CD1      108.9620 -165.9910  265.3270 C.3    51  ILE51       0.0001
     40  N        113.7240 -162.6390  267.0300 N.3    54  PHE54      -0.1227
     41  CA       112.9760 -161.6640  266.2390 C.3    54  PHE54       0.1736
     42  C        111.7980 -161.1650  267.0480 C.2    54  PHE54       0.2596
     43  O        111.3760 -161.8160  267.9940 O.2    54  PHE54      -0.2718
     44  CB       112.3900 -162.3040  264.9760 C.3    54  PHE54       0.0547
     45  CG       113.4110 -162.8220  264.0100 C.ar   54  PHE54      -0.0202
     46  CD1      114.1500 -161.9450  263.2240 C.ar   54  PHE54      -0.0042
     47  CD2      113.6000 -164.1890  263.8520 C.ar   54  PHE54      -0.0042
     48  CE1      115.0780 -162.4250  262.3100 C.ar   54  PHE54      -0.0003
     49  CE2      114.5180 -164.6730  262.9440 C.ar   54  PHE54      -0.0003
     50  CZ       115.2620 -163.7910  262.1690 C.ar   54  PHE54      -0.0000
     51  N        111.2300 -160.0390  266.6390 N.am   55  GLY55      -0.1942
     52  CA       109.9990 -159.5690  267.2460 C.3    55  GLY55       0.2014
     53  C        110.1780 -158.2170  267.8890 C.2    55  GLY55       0.2639
     54  O        111.2950 -157.7030  267.9600 O.2    55  GLY55      -0.2714
     55  N        109.0820 -157.6320  268.3540 N.am   56  THR56      -0.1950
     56  CA       109.1720 -156.3450  269.0380 C.3    56  THR56       0.1897
     57  C        109.8100 -156.4510  270.4380 C.2    56  THR56       0.2313
     58  O        110.3560 -155.4760  270.9260 O.2    56  THR56      -0.2863
     59  CB       107.8170 -155.6180  269.0830 C.3    56  THR56       0.1794
     60  OG1      106.8740 -156.3870  269.8280 O.3    56  THR56      -0.2208
     61  CG2      107.2850 -155.4360  267.6780 C.3    56  THR56       0.0378
     62  N        112.4680 -159.2990  272.1690 N.3    58  LYS58      -0.1245
     63  CA       113.2290 -160.5450  272.1330 C.3    58  LYS58       0.1561
     64  C        113.3940 -161.1930  273.5100 C.2    58  LYS58       0.2260
     65  O        113.5940 -162.4130  273.5930 O.2    58  LYS58      -0.2867
     66  CB       114.6240 -160.3170  271.5390 C.3    58  LYS58       0.0271
     67  CG       114.7110 -160.3700  270.0240 C.3    58  LYS58       0.0035
     68  CD       114.4150 -159.0170  269.4430 C.3    58  LYS58       0.0206
     69  CE       114.6870 -158.9740  267.9500 C.3    58  LYS58       0.1093
     70  NZ       114.1000 -157.7230  267.3960 N.3    58  LYS58      -0.1314
     71  N        103.0410 -158.8270  263.1990 N.3    86  VAL86      -0.1231
     72  CA       104.4640 -158.6860  263.4690 C.3    86  VAL86       0.1692
     73  C        105.3200 -159.5620  262.5420 C.2    86  VAL86       0.2592
     74  O        106.2250 -159.0700  261.8730 O.2    86  VAL86      -0.2718
     75  CB       104.7680 -158.9930  264.9580 C.3    86  VAL86       0.0266
     76  CG1      106.2720 -159.0190  265.2170 C.3    86  VAL86       0.0020
     77  CG2      104.0760 -157.9700  265.8530 C.3    86  VAL86       0.0020
     78  N        105.0390 -160.8610  262.5040 N.am   87  TRP87      -0.1962
     79  CA       105.8920 -161.7690  261.7460 C.3    87  TRP87       0.1771
     80  C        105.6910 -161.5770  260.2440 C.2    87  TRP87       0.2620
     81  O        104.5640 -161.5210  259.7630 O.2    87  TRP87      -0.2715
     82  CB       105.6500 -163.2290  262.1480 C.3    87  TRP87       0.0590
     83  CG       105.5800 -163.4380  263.6330 C.ar   87  TRP87       0.0006
     84  CD1      104.5350 -163.9580  264.3310 C.ar   87  TRP87       0.0946
     85  CD2      106.5920 -163.1150  264.6030 C.ar   87  TRP87       0.0152
     86  NE1      104.8330 -163.9860  265.6740 N.ar   87  TRP87      -0.2442
     87  CE2      106.0900 -163.4760  265.8650 C.ar   87  TRP87       0.0810
     88  CE3      107.8760 -162.5700  264.5210 C.ar   87  TRP87       0.0012
     89  CZ2      106.8220 -163.3060  267.0440 C.ar   87  TRP87       0.0191
     90  CZ3      108.6030 -162.3960  265.6930 C.ar   87  TRP87       0.0001
     91  CH2      108.0740 -162.7660  266.9370 C.ar   87  TRP87       0.0015
     92  N        106.7960 -161.4660  259.5130 N.am   88  THR88      -0.1937
     93  CA       106.7390 -161.2150  258.0850 C.3    88  THR88       0.2028
     94  C        107.1860 -162.4250  257.2720 C.2    88  THR88       0.2642
     95  O        107.1250 -162.3930  256.0460 O.2    88  THR88      -0.2714
     96  CB       107.6050 -160.0170  257.7010 C.3    88  THR88       0.1808
     97  OG1      108.9560 -160.2520  258.1290 O.3    88  THR88      -0.2208
     98  CG2      107.0870 -158.7720  258.3710 C.3    88  THR88       0.0379
     99  N        107.6610 -163.4750  257.9440 N.am   89  ASP89      -0.1971
    100  CA       108.0260 -164.7220  257.2470 C.3    89  ASP89       0.1709
    101  C        106.7240 -165.4160  256.8880 C.2    89  ASP89       0.2293
    102  O        106.0710 -166.0110  257.7570 O.2    89  ASP89      -0.2864
    103  CB       108.9020 -165.6270  258.1320 C.3    89  ASP89       0.1436
    104  CG       109.2550 -166.9720  257.4630 C.2    89  ASP89       0.3671
    105  OD1      108.5500 -167.3830  256.5120 O.co2  89  ASP89      -0.2456
    106  OD2      110.2370 -167.6200  257.9010 O.co2  89  ASP89      -0.2456
    107  N        106.1150 -168.8540  257.7670 N.3    92  PHE92      -0.1241
    108  CA       105.8440 -169.0140  259.1870 C.3    92  PHE92       0.1605
    109  C        104.4080 -168.6180  259.4920 C.2    92  PHE92       0.2264
    110  O        103.7230 -169.2970  260.2530 O.2    92  PHE92      -0.2867
    111  CB       106.8260 -168.2250  260.0450 C.3    92  PHE92       0.0534
    112  CG       106.5810 -168.3660  261.5230 C.ar   92  PHE92      -0.0203
    113  CD1      105.7100 -167.5130  262.1750 C.ar   92  PHE92      -0.0042
    114  CD2      107.2100 -169.3690  262.2560 C.ar   92  PHE92      -0.0042
    115  CE1      105.4790 -167.6320  263.5450 C.ar   92  PHE92      -0.0003
    116  CE2      106.9800 -169.4990  263.6160 C.ar   92  PHE92      -0.0003
    117  CZ       106.1180 -168.6350  264.2640 C.ar   92  PHE92      -0.0000
@<TRIPOS>BOND
     1    95    94    2
     2   105   104   ar
     3   101   100    1
     4   101   102    2
     5    22    21    2
     6   100    99    1
     7   100   103    1
     8    94    99   am
     9    94    93    1
    10   104   106   ar
    11   104   103    1
    12    21    20    1
    13    20    19    1
    14    96    93    1
    15    96    97    1
    16    96    98    1
    17   107   108    1
    18    12    11    1
    19    19    15   am
    20    93    92    1
    21    11     9   ar
    22    11    10   ar
    23     9     7   ar
    24    15    14    1
    25    15    16    2
    26   108   109    1
    27   108   111    1
    28    14    13    1
    29    14    17    1
    30   109   110    2
    31    92    80   am
    32    18    17    1
    33    81    80    2
    34   111   112    1
    35    10     8   ar
    36    80    79    1
    37     7     6   ar
    38    23    24    1
    39     8     6   ar
    40     6     5    1
    41   112   113   ar
    42   112   114   ar
    43    79    82    1
    44    79    78    1
    45    24    25    1
    46    24    27    1
    47    74    73    2
    48    26    25    2
    49    82    83    1
    50    50    48   ar
    51    50    49   ar
    52   113   115   ar
    53    28    27    1
    54    28    29    1
    55   114   116   ar
    56     3     2    1
    57     3     4    2
    58    48    46   ar
    59    78    73   am
    60    73    72    1
    61     5     2    1
    62     2     1    1
    63    49    47   ar
    64    71    72    1
    65    46    45   ar
    66    29    30    1
    67    30    31    1
    68    72    75    1
    69   115   117   ar
    70   116   117   ar
    71    83    84   ar
    72    83    85   ar
    73    47    45   ar
    74    45    44    1
    75    84    86   ar
    76    88    85   ar
    77    88    90   ar
    78    85    87   ar
    79    75    76    1
    80    75    77    1
    81    44    41    1
    82    39    37    1
    83    86    87   ar
    84    90    91   ar
    85    87    89   ar
    86    41    40    1
    87    41    42    1
    88    51    42   am
    89    51    52    1
    90    38    36    1
    91    37    36    1
    92    91    89   ar
    93    42    43    2
    94    52    53    1
    95    70    69    1
    96    36    33    1
    97    61    59    1
    98    53    54    2
    99    53    55   am
   100    69    68    1
   101    55    56    1
   102    33    34    1
   103    33    32    1
   104    56    59    1
   105    56    57    1
   106    59    60    1
   107    68    67    1
   108    34    35    2
   109    67    66    1
   110    57    58    2
   111    66    63    1
   112    63    62    1
   113    63    64    1
   114    64    65    2
