@<TRIPOS>MOLECULE
tmp/5whuI00.pdb
 97 94 0 0 0
SMALL
GASTEIGER

@<TRIPOS>ATOM
      1  N         97.2940 -152.8960  274.3220 N.3     6  ASN6       -0.1225
      2  CA        95.9330 -152.5510  273.8960 C.3     6  ASN6        0.1785
      3  C         95.1870 -153.6590  273.1470 C.2     6  ASN6        0.2598
      4  O         93.9840 -153.5440  272.8940 O.2     6  ASN6       -0.2718
      5  CB        95.9400 -151.2660  273.0550 C.3     6  ASN6        0.1169
      6  CG        96.7800 -151.3900  271.7860 C.2     6  ASN6        0.2627
      7  OD1       97.6660 -152.2370  271.6910 O.2     6  ASN6       -0.2716
      8  ND2       96.5170 -150.5220  270.8150 N.am    6  ASN6       -0.0877
      9  N         95.8950 -154.7210  272.7800 N.am    7  THR7       -0.1939
     10  CA        95.2960 -155.7840  271.9780 C.3     7  THR7        0.2028
     11  C         95.3440 -157.0960  272.7500 C.2     7  THR7        0.2642
     12  O         96.4200 -157.6500  272.9660 O.2     7  THR7       -0.2714
     13  CB        96.0380 -155.9390  270.6320 C.3     7  THR7        0.1808
     14  OG1       96.0650 -154.6780  269.9550 O.3     7  THR7       -0.2208
     15  CG2       95.3520 -156.9610  269.7470 C.3     7  THR7        0.0379
     16  N         94.1850 -157.5940  273.1670 N.am    8  TYR8       -0.1959
     17  CA        94.1460 -158.7840  274.0200 C.3     8  TYR8        0.1771
     18  C         92.8370 -159.5640  273.9040 C.2     8  TYR8        0.2619
     19  O         91.8210 -159.0370  273.4520 O.2     8  TYR8       -0.2715
     20  CB        94.3450 -158.3730  275.4820 C.3     8  TYR8        0.0574
     21  CG        93.3730 -157.2960  275.8940 C.ar    8  TYR8       -0.0198
     22  CD1       92.0780 -157.6110  276.2850 C.ar    8  TYR8       -0.0009
     23  CD2       93.7420 -155.9550  275.8670 C.ar    8  TYR8       -0.0009
     24  CE1       91.1780 -156.6010  276.6520 C.ar    8  TYR8        0.0417
     25  CE2       92.8660 -154.9680  276.2280 C.ar    8  TYR8        0.0417
     26  CZ        91.5860 -155.2890  276.6130 C.ar    8  TYR8        0.1957
     27  OH        90.7220 -154.2790  276.9580 O.3     8  TYR8       -0.2866
     28  N         92.8670 -160.8200  274.3420 N.am    9  GLN9       -0.1963
     29  CA        91.6580 -161.6250  274.4600 C.3     9  GLN9        0.1733
     30  C         91.5130 -162.1690  275.8890 C.2     9  GLN9        0.2617
     31  O         92.4340 -162.7690  276.4330 O.2     9  GLN9       -0.2715
     32  CB        91.6710 -162.7490  273.4220 C.3     9  GLN9        0.0408
     33  CG        91.7180 -162.2100  272.0050 C.3     9  GLN9        0.0908
     34  CD        91.6070 -163.2890  270.9440 C.2     9  GLN9        0.2608
     35  OE1       90.6130 -164.0090  270.8790 O.2     9  GLN9       -0.2717
     36  NE2       92.6290 -163.3970  270.0990 N.am    9  GLN9       -0.0878
     37  N         90.3530 -161.9480  276.4930 N.am   10  SER10      -0.1950
     38  CA        90.1340 -162.3200  277.8850 C.3    10  SER10       0.1924
     39  C         89.3410 -163.6100  278.0070 C.2    10  SER10       0.2314
     40  O         88.5130 -163.9160  277.1510 O.2    10  SER10      -0.2863
     41  CB        89.3910 -161.1980  278.6130 C.3    10  SER10       0.2116
     42  OG        90.1410 -160.0020  278.5940 O.3    10  SER10      -0.2180
     43  N         87.9940 -170.6470  273.5270 N.3    38  ARG38      -0.1245
     44  CA        87.1990 -169.9700  274.5210 C.3    38  ARG38       0.1563
     45  C         86.0090 -170.8800  274.7350 C.2    38  ARG38       0.2260
     46  O         85.0090 -170.7850  274.0300 O.2    38  ARG38      -0.2867
     47  CB        86.7870 -168.5600  274.0570 C.3    38  ARG38       0.0307
     48  CG        86.0610 -167.7690  275.1290 C.3    38  ARG38       0.0489
     49  CD        85.7130 -166.3490  274.7050 C.3    38  ARG38       0.2205
     50  NE        86.8410 -165.4290  274.8220 N.pl3  38  ARG38      -0.0865
     51  CZ        87.4030 -164.8100  273.7870 C.cat  38  ARG38       0.5346
     52  NH1       88.4260 -163.9880  273.9760 N.pl3  38  ARG38       0.1354
     53  NH2       86.9350 -165.0120  272.5620 N.pl3  38  ARG38       0.1354
     54  N         88.2970 -168.2800  269.3830 N.3    43  PRO43      -0.2102
     55  CA        88.3790 -166.8230  269.2460 C.3    43  PRO43       0.1504
     56  C         88.8390 -166.3980  267.8520 C.2    43  PRO43       0.2575
     57  O         89.2790 -167.2340  267.0550 O.2    43  PRO43      -0.2718
     58  CB        89.4080 -166.4170  270.3030 C.3    43  PRO43       0.0282
     59  CG        90.1070 -167.7000  270.7150 C.3    43  PRO43       0.0208
     60  CD        89.1350 -168.8020  270.4770 C.3    43  PRO43       0.0893
     61  N         88.7210 -165.1020  267.5710 N.am   44  ASN44      -0.1975
     62  CA        89.1010 -164.5430  266.2790 C.3    44  ASN44       0.1688
     63  C         90.5580 -164.8280  265.9530 C.2    44  ASN44       0.2292
     64  O         90.8880 -165.3070  264.8680 O.2    44  ASN44      -0.2864
     65  CB        88.8430 -163.0360  266.2670 C.3    44  ASN44       0.1181
     66  CG        87.4110 -162.6890  266.6280 C.2    44  ASN44       0.2629
     67  OD1       86.6560 -163.5420  267.1060 O.2    44  ASN44      -0.2716
     68  ND2       87.0290 -161.4310  266.4090 N.am   44  ASN44      -0.0877
     69  N         98.6500 -159.5420  272.9200 N.3    82  TYR82      -0.1241
     70  CA        99.4270 -159.8410  271.7240 C.3    82  TYR82       0.1605
     71  C         99.5070 -158.6370  270.7890 C.2    82  TYR82       0.2264
     72  O         98.8170 -157.6440  270.9790 O.2    82  TYR82      -0.2867
     73  CB        98.8190 -161.0270  270.9920 C.3    82  TYR82       0.0534
     74  CG        97.4030 -160.7970  270.5320 C.ar   82  TYR82      -0.0201
     75  CD1       96.3430 -160.8730  271.4190 C.ar   82  TYR82      -0.0009
     76  CD2       97.1210 -160.5360  269.1960 C.ar   82  TYR82      -0.0009
     77  CE1       95.0430 -160.6820  270.9960 C.ar   82  TYR82       0.0417
     78  CE2       95.8220 -160.3390  268.7630 C.ar   82  TYR82       0.0417
     79  CZ        94.7880 -160.4170  269.6650 C.ar   82  TYR82       0.1957
     80  OH        93.4960 -160.2240  269.2290 O.3    82  TYR82      -0.2866
     81  N         99.3840 -157.8050  266.6630 N.3    84  GLU84      -0.1245
     82  CA        99.0830 -158.3310  265.3300 C.3    84  GLU84       0.1567
     83  C        100.1290 -157.9380  264.3020 C.2    84  GLU84       0.2260
     84  O        100.8590 -156.9690  264.4870 O.2    84  GLU84      -0.2867
     85  CB        97.7230 -157.8190  264.8650 C.3    84  GLU84       0.0388
     86  CG        96.5960 -158.1440  265.8240 C.3    84  GLU84       0.1160
     87  CD        95.2630 -157.5670  265.3940 C.2    84  GLU84       0.3649
     88  OE1       95.0710 -156.3350  265.5280 O.co2  84  GLU84      -0.2457
     89  OE2       94.4060 -158.3510  264.9320 O.co2  84  GLU84      -0.2457
     90  N         91.0570 -151.7500  277.8630 N.3   118  LEU118     -0.1245
     91  CA        90.6360 -150.5360  277.1830 C.3   118  LEU118      0.1561
     92  C         89.3670 -149.9770  277.8170 C.2   118  LEU118      0.2260
     93  O         89.3720 -148.8700  278.3630 O.2   118  LEU118     -0.2867
     94  CB        90.4190 -150.8010  275.6930 C.3   118  LEU118      0.0270
     95  CG        91.6830 -151.0660  274.8640 C.3   118  LEU118      0.0019
     96  CD1       91.3350 -151.5130  273.4460 C.3   118  LEU118      0.0001
     97  CD2       92.5810 -149.8340  274.8360 C.3   118  LEU118      0.0001
@<TRIPOS>BOND
     1    83    84    2
     2    83    82    1
     3    85    82    1
     4    85    86    1
     5    64    63    2
     6    89    87   ar
     7    82    81    1
     8    87    88   ar
     9    87    86    1
    10    63    62    1
    11    65    62    1
    12    65    66    1
    13    62    61    1
    14    68    66   am
    15    66    67    2
    16    57    56    2
    17    61    56   am
    18    56    55    1
    19    78    76   ar
    20    78    79   ar
    21    76    74   ar
    22    80    79    1
    23    55    54    1
    24    55    58    1
    25    54    60    1
    26    79    77   ar
    27    15    13    1
    28    14    13    1
    29    36    34   am
    30    58    59    1
    31    60    59    1
    32    74    73    1
    33    74    75   ar
    34    13    10    1
    35    71    72    2
    36    71    70    1
    37     8     6   am
    38    35    34    2
    39    34    33    1
    40    73    70    1
    41    77    75   ar
    42     7     6    2
    43    70    69    1
    44     6     5    1
    45    10    11    1
    46    10     9    1
    47    33    32    1
    48    53    51    1
    49    11    12    2
    50    11    16   am
    51     9     3   am
    52     4     3    2
    53     5     2    1
    54     3     2    1
    55    16    17    1
    56    32    29    1
    57    96    95    1
    58    19    18    2
    59    43    44    1
    60    51    52    1
    61    51    50    2
    62     2     1    1
    63    18    17    1
    64    18    28   am
    65    17    20    1
    66    46    45    2
    67    47    44    1
    68    47    48    1
    69    28    29    1
    70    29    30    1
    71    44    45    1
    72    49    50    1
    73    49    48    1
    74    97    95    1
    75    95    94    1
    76    20    21    1
    77    94    91    1
    78    23    21   ar
    79    23    25   ar
    80    30    31    2
    81    30    37   am
    82    21    22   ar
    83    25    26   ar
    84    22    24   ar
    85    37    38    1
    86    26    24   ar
    87    26    27    1
    88    40    39    2
    89    91    92    1
    90    91    90    1
    91    92    93    2
    92    38    39    1
    93    38    41    1
    94    42    41    1
