@<TRIPOS>MOLECULE
tmp/5whvJ00.pdb
 88 87 0 0 0
SMALL
GASTEIGER

@<TRIPOS>ATOM
      1  N        106.5460 -155.6700  279.5140 N.3    22  TYR22      -0.1241
      2  CA       106.0890 -154.2930  279.4580 C.3    22  TYR22       0.1605
      3  C        107.2740 -153.3480  279.3570 C.2    22  TYR22       0.2264
      4  O        108.2790 -153.5070  280.0700 O.2    22  TYR22      -0.2867
      5  CB       105.2520 -154.0010  280.7200 C.3    22  TYR22       0.0534
      6  CG       104.8240 -152.5670  280.9080 C.ar   22  TYR22      -0.0201
      7  CD1      103.9610 -151.9440  280.0160 C.ar   22  TYR22      -0.0009
      8  CD2      105.2750 -151.8400  282.0070 C.ar   22  TYR22      -0.0009
      9  CE1      103.5810 -150.6240  280.1990 C.ar   22  TYR22       0.0417
     10  CE2      104.9050 -150.5380  282.2050 C.ar   22  TYR22       0.0417
     11  CZ       104.0550 -149.9340  281.3020 C.ar   22  TYR22       0.1957
     12  OH       103.6910 -148.6310  281.5130 O.3    22  TYR22      -0.2866
     13  N        108.6360 -149.9040  280.3010 N.3    24  SER24      -0.1217
     14  CA       108.3840 -148.8690  281.2920 C.3    24  SER24       0.1889
     15  C        109.5700 -147.9260  281.3660 C.2    24  SER24       0.2288
     16  O        110.7010 -148.3470  281.6410 O.2    24  SER24      -0.2866
     17  CB       108.1260 -149.4970  282.6660 C.3    24  SER24       0.2089
     18  OG       107.7490 -148.5040  283.6060 O.3    24  SER24      -0.2183
     19  N        109.0810 -156.1710  289.8930 N.3    51  ILE51      -0.1245
     20  CA       109.5260 -155.8770  288.5320 C.3    51  ILE51       0.1561
     21  C        111.0020 -156.2210  288.4300 C.2    51  ILE51       0.2260
     22  O        111.7700 -155.9440  289.3620 O.2    51  ILE51      -0.2867
     23  CB       109.2910 -154.4060  288.1570 C.3    51  ILE51       0.0252
     24  CG1      107.8000 -154.0760  288.3250 C.3    51  ILE51       0.0019
     25  CG2      109.7670 -154.1270  286.7140 C.3    51  ILE51       0.0019
     26  CD1      107.4210 -152.6290  288.0490 C.3    51  ILE51       0.0001
     27  N        113.2860 -152.9000  287.9490 N.3    54  PHE54      -0.1227
     28  CA       112.9980 -151.7370  288.7890 C.3    54  PHE54       0.1736
     29  C        112.7370 -152.1560  290.2270 C.2    54  PHE54       0.2596
     30  O        112.3400 -153.2880  290.4800 O.2    54  PHE54      -0.2718
     31  CB       111.7650 -150.9950  288.2890 C.3    54  PHE54       0.0547
     32  CG       111.9900 -150.2240  287.0210 C.ar   54  PHE54      -0.0202
     33  CD1      112.7380 -149.0550  287.0310 C.ar   54  PHE54      -0.0042
     34  CD2      111.4090 -150.6380  285.8280 C.ar   54  PHE54      -0.0042
     35  CE1      112.9280 -148.3230  285.8590 C.ar   54  PHE54      -0.0003
     36  CE2      111.5870 -149.9140  284.6610 C.ar   54  PHE54      -0.0003
     37  CZ       112.3520 -148.7570  284.6750 C.ar   54  PHE54      -0.0000
     38  N        112.8900 -151.2150  291.1510 N.am   55  GLY55      -0.1957
     39  CA       112.4760 -151.4100  292.5300 C.3    55  GLY55       0.1869
     40  C        113.5870 -151.2270  293.5420 C.2    55  GLY55       0.2309
     41  O        114.7690 -151.0790  293.1910 O.2    55  GLY55      -0.2863
     42  N        106.4390 -147.2490  295.6280 N.3    86  VAL86      -0.1231
     43  CA       107.7220 -147.4600  294.9650 C.3    86  VAL86       0.1692
     44  C        107.6810 -147.1090  293.4830 C.2    86  VAL86       0.2592
     45  O        108.4370 -146.2600  293.0270 O.2    86  VAL86      -0.2718
     46  CB       108.2060 -148.9240  295.1220 C.3    86  VAL86       0.0266
     47  CG1      109.4380 -149.1650  294.2770 C.3    86  VAL86       0.0020
     48  CG2      108.4910 -149.2390  296.5920 C.3    86  VAL86       0.0020
     49  N        106.7650 -147.7260  292.7420 N.am   87  TRP87      -0.1962
     50  CA       106.7310 -147.5580  291.2910 C.3    87  TRP87       0.1771
     51  C        106.3490 -146.1380  290.9060 C.2    87  TRP87       0.2620
     52  O        105.4200 -145.5490  291.4820 O.2    87  TRP87      -0.2715
     53  CB       105.7840 -148.5650  290.6410 C.3    87  TRP87       0.0590
     54  CG       105.9430 -149.9390  291.2150 C.ar   87  TRP87       0.0006
     55  CD1      104.9720 -150.7060  291.7930 C.ar   87  TRP87       0.0946
     56  CD2      107.1610 -150.6930  291.3060 C.ar   87  TRP87       0.0152
     57  NE1      105.5090 -151.9060  292.2190 N.ar   87  TRP87      -0.2442
     58  CE2      106.8500 -151.9150  291.9390 C.ar   87  TRP87       0.0810
     59  CE3      108.4800 -150.4560  290.9030 C.ar   87  TRP87       0.0012
     60  CZ2      107.8150 -152.8980  292.1760 C.ar   87  TRP87       0.0191
     61  CZ3      109.4390 -151.4330  291.1450 C.ar   87  TRP87       0.0001
     62  CH2      109.0990 -152.6400  291.7650 C.ar   87  TRP87       0.0015
     63  N        107.1010 -145.5630  289.9740 N.am   88  THR88      -0.1937
     64  CA       106.8290 -144.1780  289.5620 C.3    88  THR88       0.2028
     65  C        106.1970 -144.0970  288.1770 C.2    88  THR88       0.2642
     66  O        105.8670 -143.0040  287.7030 O.2    88  THR88      -0.2714
     67  CB       108.0810 -143.2970  289.6130 C.3    88  THR88       0.1808
     68  OG1      109.0910 -143.8690  288.7750 O.3    88  THR88      -0.2208
     69  CG2      108.5990 -143.2140  291.0390 C.3    88  THR88       0.0379
     70  N        106.0680 -145.2400  287.5100 N.am   89  ASP89      -0.1971
     71  CA       105.3550 -145.2660  286.2310 C.3    89  ASP89       0.1709
     72  C        103.8570 -145.1930  286.5130 C.2    89  ASP89       0.2293
     73  O        103.2360 -146.1870  286.9060 O.2    89  ASP89      -0.2864
     74  CB       105.6780 -146.5230  285.4490 C.3    89  ASP89       0.1436
     75  CG       104.9450 -146.5810  284.1220 C.2    89  ASP89       0.3671
     76  OD1      103.8810 -145.9220  283.9800 O.co2  89  ASP89      -0.2456
     77  OD2      105.4140 -147.3130  283.2250 O.co2  89  ASP89      -0.2456
     78  N        101.5260 -147.6880  285.1250 N.3    92  PHE92      -0.1241
     79  CA       101.5730 -148.9690  285.8110 C.3    92  PHE92       0.1605
     80  C        100.8100 -148.9260  287.1320 C.2    92  PHE92       0.2264
     81  O        100.0390 -149.8450  287.4440 O.2    92  PHE92      -0.2867
     82  CB       103.0050 -149.4350  286.0520 C.3    92  PHE92       0.0534
     83  CG       103.0890 -150.8060  286.6750 C.ar   92  PHE92      -0.0203
     84  CD1      103.0800 -151.9440  285.8890 C.ar   92  PHE92      -0.0042
     85  CD2      103.1410 -150.9500  288.0600 C.ar   92  PHE92      -0.0042
     86  CE1      103.1430 -153.2080  286.4660 C.ar   92  PHE92      -0.0003
     87  CE2      103.2040 -152.2120  288.6460 C.ar   92  PHE92      -0.0003
     88  CZ       103.2030 -153.3470  287.8400 C.ar   92  PHE92      -0.0000
@<TRIPOS>BOND
     1     3     2    1
     2     3     4    2
     3     2     1    1
     4     2     5    1
     5     7     9   ar
     6     7     6   ar
     7     9    11   ar
     8    13    14    1
     9     5     6    1
    10     6     8   ar
    11    14    15    1
    12    14    17    1
    13    11    12    1
    14    11    10   ar
    15    15    16    2
    16     8    10   ar
    17    17    18    1
    18    77    75   ar
    19    76    75   ar
    20    75    74    1
    21    36    37   ar
    22    36    34   ar
    23    37    35   ar
    24    78    79    1
    25    74    71    1
    26    79    82    1
    27    79    80    1
    28    34    32   ar
    29    35    33   ar
    30    84    86   ar
    31    84    83   ar
    32    82    83    1
    33    71    72    1
    34    71    70    1
    35    86    88   ar
    36    72    73    2
    37    83    85   ar
    38    25    23    1
    39    32    33   ar
    40    32    31    1
    41    80    81    2
    42    70    65   am
    43    66    65    2
    44    88    87   ar
    45    27    28    1
    46    26    24    1
    47    85    87   ar
    48    23    24    1
    49    23    20    1
    50    65    64    1
    51    31    28    1
    52    21    20    1
    53    21    22    2
    54    20    19    1
    55    68    67    1
    56    28    29    1
    57    64    67    1
    58    64    63    1
    59    67    69    1
    60    63    51   am
    61    29    30    2
    62    29    38   am
    63    53    54    1
    64    53    50    1
    65    59    61   ar
    66    59    56   ar
    67    51    50    1
    68    51    52    2
    69    61    62   ar
    70    38    39    1
    71    54    56   ar
    72    54    55   ar
    73    50    49    1
    74    56    58   ar
    75    62    60   ar
    76    55    57   ar
    77    58    60   ar
    78    58    57   ar
    79    39    40    1
    80    49    44   am
    81    45    44    2
    82    41    40    2
    83    44    43    1
    84    47    46    1
    85    43    46    1
    86    43    42    1
    87    46    48    1
