@<TRIPOS>MOLECULE
tmp/5whvH01.pdb
 85 83 0 0 0
SMALL
GASTEIGER

@<TRIPOS>ATOM
      1  N        122.9310 -203.9780  294.6470 N.3    44  ASN44      -0.1225
      2  CA       124.3330 -203.9960  295.0390 C.3    44  ASN44       0.1785
      3  C        124.8970 -202.6010  295.2850 C.2    44  ASN44       0.2597
      4  O        125.3960 -202.2880  296.3740 O.2    44  ASN44      -0.2718
      5  CB       125.1650 -204.7020  293.9680 C.3    44  ASN44       0.1169
      6  CG       125.1050 -203.9880  292.6240 C.2    44  ASN44       0.2627
      7  OD1      124.7960 -202.7940  292.5550 O.2    44  ASN44      -0.2716
      8  ND2      125.4260 -204.7090  291.5510 N.am   44  ASN44      -0.0877
      9  N        124.7830 -201.7780  294.2450 N.am   45  VAL45      -0.1966
     10  CA       125.0820 -200.3600  294.2760 C.3    45  VAL45       0.1727
     11  C        123.7580 -199.6570  294.4980 C.2    45  VAL45       0.2616
     12  O        122.8310 -199.8090  293.7030 O.2    45  VAL45      -0.2715
     13  CB       125.7160 -199.9060  292.9370 C.3    45  VAL45       0.0290
     14  CG1      125.9350 -198.3810  292.9010 C.3    45  VAL45       0.0023
     15  CG2      127.0140 -200.6610  292.6770 C.3    45  VAL45       0.0023
     16  N        123.6360 -198.9210  295.5920 N.am   46  HIS46      -0.1959
     17  CA       122.3460 -198.3370  295.9100 C.3    46  HIS46       0.1787
     18  C        122.4270 -196.8400  296.1610 C.2    46  HIS46       0.2620
     19  O        121.4030 -196.2070  296.4570 O.2    46  HIS46      -0.2715
     20  CB       121.6960 -199.0480  297.0920 C.3    46  HIS46       0.0785
     21  CG       122.5430 -199.0530  298.3230 C.ar   46  HIS46       0.0821
     22  ND1      122.7200 -197.9320  299.1060 N.ar   46  HIS46      -0.2267
     23  CD2      123.2680 -200.0390  298.8990 C.ar   46  HIS46       0.1154
     24  CE1      123.5140 -198.2320  300.1200 C.ar   46  HIS46       0.1986
     25  NE2      123.8600 -199.5010  300.0180 N.ar   46  HIS46      -0.2212
     26  N        123.6320 -196.2770  296.0770 N.am   47  THR47      -0.1951
     27  CA       123.8000 -194.8330  296.2610 C.3    47  THR47       0.1897
     28  C        124.6460 -194.2010  295.1480 C.2    47  THR47       0.2313
     29  O        125.8260 -194.5590  294.9570 O.2    47  THR47      -0.2863
     30  CB       124.3980 -194.5170  297.6550 C.3    47  THR47       0.1794
     31  OG1      123.4970 -194.9870  298.6650 O.3    47  THR47      -0.2208
     32  CG2      124.5890 -193.0110  297.8230 C.3    47  THR47       0.0378
     33  N        131.8010 -195.9280  288.5470 N.3    84  GLU84      -0.1231
     34  CA       132.2660 -196.3200  289.8700 C.3    84  GLU84       0.1699
     35  C        133.6010 -195.6840  290.2210 C.2    84  GLU84       0.2592
     36  O        134.3820 -195.3640  289.3270 O.2    84  GLU84      -0.2718
     37  CB       132.3750 -197.8440  289.9540 C.3    84  GLU84       0.0402
     38  CG       131.0340 -198.5520  289.9460 C.3    84  GLU84       0.1161
     39  CD       131.1560 -200.0650  289.8480 C.2    84  GLU84       0.3649
     40  OE1      131.6260 -200.5720  288.7990 O.co2  84  GLU84      -0.2457
     41  OE2      130.7770 -200.7420  290.8250 O.co2  84  GLU84      -0.2457
     42  N        133.8680 -195.5460  291.5230 N.am   85  ASN85      -0.1974
     43  CA       135.1490 -195.0380  292.0210 C.3    85  ASN85       0.1688
     44  C        135.5520 -193.7020  291.4480 C.2    85  ASN85       0.2292
     45  O        136.6860 -193.5140  291.0360 O.2    85  ASN85      -0.2864
     46  CB       136.2760 -196.0450  291.7860 C.3    85  ASN85       0.1181
     47  CG       135.9890 -197.3710  292.4210 C.2    85  ASN85       0.2629
     48  OD1      135.8590 -197.4560  293.6480 O.2    85  ASN85      -0.2716
     49  ND2      135.8810 -198.4180  291.6080 N.am   85  ASN85      -0.0877
     50  N        132.5170 -190.3740  300.4540 N.3    93  THR93      -0.1218
     51  CA       132.1950 -191.7320  300.0190 C.3    93  THR93       0.1862
     52  C        131.6800 -192.5810  301.1730 C.2    93  THR93       0.2287
     53  O        130.8480 -193.4580  300.9720 O.2    93  THR93      -0.2866
     54  CB       133.3820 -192.4200  299.3520 C.3    93  THR93       0.1770
     55  OG1      134.4620 -192.5370  300.3000 O.3    93  THR93      -0.2211
     56  CG2      133.8270 -191.6150  298.1540 C.3    93  THR93       0.0375
     57  N        128.0950 -191.3570  301.6520 N.3    96  PHE96      -0.1227
     58  CA       127.2890 -191.6550  300.4700 C.3    96  PHE96       0.1736
     59  C        127.9110 -192.7730  299.6150 C.2    96  PHE96       0.2596
     60  O        127.7350 -193.9450  299.9250 O.2    96  PHE96      -0.2718
     61  CB       127.0450 -190.3690  299.6700 C.3    96  PHE96       0.0547
     62  CG       126.2920 -189.2990  300.4540 C.ar   96  PHE96      -0.0202
     63  CD1      124.9100 -189.3670  300.6140 C.ar   96  PHE96      -0.0042
     64  CD2      126.9660 -188.2340  301.0250 C.ar   96  PHE96      -0.0042
     65  CE1      124.2180 -188.3810  301.3410 C.ar   96  PHE96      -0.0003
     66  CE2      126.2880 -187.2500  301.7480 C.ar   96  PHE96      -0.0003
     67  CZ       124.9140 -187.3230  301.9010 C.ar   96  PHE96      -0.0000
     68  N        128.6700 -192.4290  298.5750 N.am   97  SER97      -0.1938
     69  CA       129.3960 -193.4650  297.8250 C.3    97  SER97       0.2055
     70  C        130.4560 -192.8360  296.9380 C.2    97  SER97       0.2644
     71  O        130.6440 -191.6210  296.9440 O.2    97  SER97      -0.2714
     72  CB       128.4550 -194.3030  296.9570 C.3    97  SER97       0.2130
     73  OG       128.0860 -193.5650  295.8040 O.3    97  SER97      -0.2179
     74  N        131.1550 -193.6640  296.1720 N.am   98  GLY98      -0.1939
     75  CA       132.0940 -193.1410  295.1960 C.3    98  GLY98       0.2014
     76  C        131.5320 -193.0690  293.7870 C.2    98  GLY98       0.2638
     77  O        132.2720 -192.7470  292.8470 O.2    98  GLY98      -0.2714
     78  N        130.2360 -193.3590  293.6410 N.am   99  ASN99      -0.1972
     79  CA       129.6080 -193.4600  292.3180 C.3    99  ASN99       0.1688
     80  C        129.1270 -192.1280  291.7320 C.2    99  ASN99       0.2292
     81  O        128.4330 -191.3500  292.4080 O.2    99  ASN99      -0.2864
     82  CB       128.4500 -194.4650  292.3350 C.3    99  ASN99       0.1181
     83  CG       128.8620 -195.8370  292.8660 C.2    99  ASN99       0.2629
     84  OD1      129.7260 -196.5100  292.2930 O.2    99  ASN99      -0.2716
     85  ND2      128.1940 -196.2820  293.9360 N.am   99  ASN99      -0.0877
@<TRIPOS>BOND
     1    33    34    1
     2    40    39   ar
     3    36    35    2
     4    39    38    1
     5    39    41   ar
     6    34    37    1
     7    34    35    1
     8    38    37    1
     9    35    42   am
    10    45    44    2
    11    44    43    1
    12    42    43    1
    13     8     6   am
    14    49    47   am
    15    80    79    1
    16    80    81    2
    17    46    43    1
    18    46    47    1
    19    84    83    2
    20    79    82    1
    21    79    78    1
    22    82    83    1
    23    47    48    2
    24     7     6    2
    25     6     5    1
    26    15    13    1
    27    77    76    2
    28    83    85   am
    29    14    13    1
    30    13    10    1
    31    78    76   am
    32    12    11    2
    33    76    75    1
    34     5     2    1
    35     9    10    1
    36     9     3   am
    37    10    11    1
    38    11    16   am
    39     1     2    1
    40    29    28    2
    41     2     3    1
    42    28    27    1
    43    75    74    1
    44     3     4    2
    45    16    17    1
    46    73    72    1
    47    17    18    1
    48    17    20    1
    49    26    18   am
    50    26    27    1
    51    18    19    2
    52    74    70   am
    53    27    30    1
    54    70    71    2
    55    70    69    1
    56    72    69    1
    57    20    21    1
    58    30    32    1
    59    30    31    1
    60    69    68    1
    61    56    54    1
    62    21    23   ar
    63    21    22   ar
    64    68    59   am
    65    23    25   ar
    66    22    24   ar
    67    54    51    1
    68    54    55    1
    69    59    60    2
    70    59    58    1
    71    61    62    1
    72    61    58    1
    73    25    24   ar
    74    51    50    1
    75    51    52    1
    76    62    63   ar
    77    62    64   ar
    78    58    57    1
    79    63    65   ar
    80    53    52    2
    81    64    66   ar
    82    65    67   ar
    83    66    67   ar
