@<TRIPOS>MOLECULE
tmp/5whxB01.pdb
 123 119 0 0 0
SMALL
GASTEIGER

@<TRIPOS>ATOM
      1  N        -19.8510  -84.8620   -8.9040 N.3    13  PHE13      -0.1241
      2  CA       -18.8250  -84.7490   -7.8750 C.3    13  PHE13       0.1605
      3  C        -18.5380  -86.0250   -7.1340 C.2    13  PHE13       0.2264
      4  O        -17.4120  -86.3480   -6.8650 O.2    13  PHE13      -0.2867
      5  CB       -19.0750  -83.6130   -6.8940 C.3    13  PHE13       0.0534
      6  CG       -17.8500  -83.1460   -6.1840 C.ar   13  PHE13      -0.0203
      7  CD1      -16.8260  -82.5470   -6.8640 C.ar   13  PHE13      -0.0042
      8  CD2      -17.7320  -83.2860   -4.8330 C.ar   13  PHE13      -0.0042
      9  CE1      -15.7200  -82.1330   -6.2130 C.ar   13  PHE13      -0.0003
     10  CE2      -16.6220  -82.8710   -4.1760 C.ar   13  PHE13      -0.0003
     11  CZ       -15.6160  -82.2760   -4.8690 C.ar   13  PHE13      -0.0000
     12  N        -20.7830  -77.1740   -1.1390 N.3    94  SER94      -0.1217
     13  CA       -20.0620  -75.9800   -1.4590 C.3    94  SER94       0.1889
     14  C        -20.3590  -74.8510   -0.4680 C.2    94  SER94       0.2288
     15  O        -19.7570  -73.8590   -0.5410 O.2    94  SER94      -0.2866
     16  CB       -20.3080  -75.5560   -2.9040 C.3    94  SER94       0.2089
     17  OG       -19.9350  -76.5540   -3.7790 O.3    94  SER94      -0.2183
     18  N        -15.2350  -78.8300    2.2600 N.3   117  HIS117     -0.1227
     19  CA       -15.4150  -78.2590    0.9510 C.3   117  HIS117      0.1737
     20  C        -14.1280  -78.2860    0.1880 C.2   117  HIS117      0.2438
     21  O        -13.2750  -77.4830    0.3420 O.2   117  HIS117     -0.2733
     22  CB       -16.0180  -76.8850    0.9740 C.3   117  HIS117      0.0758
     23  CG       -16.3100  -76.2950   -0.3760 C.ar  117  HIS117      0.0818
     24  ND1      -16.6570  -75.0130   -0.5410 N.ar  117  HIS117     -0.2268
     25  CD2      -16.3210  -76.8620   -1.6100 C.ar  117  HIS117      0.1154
     26  CE1      -16.8420  -74.7800   -1.8190 C.ar  117  HIS117      0.1986
     27  NE2      -16.6240  -75.9080   -2.4760 N.ar  117  HIS117     -0.2212
     28  N        -14.0240  -79.3110   -0.6620 N.am  118  PRO118     -0.2718
     29  CA       -12.9320  -79.3150   -1.6200 C.3   118  PRO118      0.1535
     30  C        -13.1720  -78.1880   -2.6220 C.2   118  PRO118      0.2598
     31  O        -14.1060  -78.2580   -3.3590 O.2   118  PRO118     -0.2715
     32  CB       -13.0990  -80.6540   -2.3430 C.3   118  PRO118      0.0310
     33  CG       -13.8970  -81.4860   -1.4510 C.3   118  PRO118      0.0237
     34  CD       -14.8270  -80.5400   -0.7820 C.3   118  PRO118      0.0939
     35  N        -12.2850  -77.2120   -2.6550 N.am  119  MET119     -0.1964
     36  CA       -12.4710  -76.0710   -3.4950 C.3   119  MET119      0.1736
     37  C        -12.0380  -76.2930   -4.9290 C.2   119  MET119      0.2616
     38  O        -11.3860  -75.5130   -5.5070 O.2   119  MET119     -0.2715
     39  CB       -11.6990  -74.8680   -2.9090 C.3   119  MET119      0.0427
     40  CG       -11.8290  -74.6810   -1.4380 C.3   119  MET119      0.0599
     41  SD       -13.5300  -74.3470   -0.9800 S.3   119  MET119     -0.1393
     42  CE       -13.8910  -72.9240   -1.9540 C.3   119  MET119      0.0692
     43  N        -12.4440  -77.4140   -5.4630 N.am  120  PHE120     -0.1960
     44  CA       -12.0770  -77.8200   -6.7940 C.3   120  PHE120      0.1771
     45  C        -12.9770  -78.9510   -7.2250 C.2   120  PHE120      0.2620
     46  O        -13.6500  -79.5160   -6.4460 O.2   120  PHE120     -0.2715
     47  CB       -10.6220  -78.2800   -6.8570 C.3   120  PHE120      0.0574
     48  CG       -10.3130  -79.4440   -5.9840 C.ar  120  PHE120     -0.0200
     49  CD1       -9.9680  -79.2630   -4.6960 C.ar  120  PHE120     -0.0042
     50  CD2      -10.2670  -80.6830   -6.4850 C.ar  120  PHE120     -0.0042
     51  CE1       -9.6770  -80.3270   -3.9070 C.ar  120  PHE120     -0.0003
     52  CE2       -9.9910  -81.7440   -5.7170 C.ar  120  PHE120     -0.0003
     53  CZ        -9.6890  -81.5740   -4.4270 C.ar  120  PHE120     -0.0000
     54  N        -12.9290  -79.2450   -8.5000 N.am  121  GLY121     -0.1954
     55  CA       -13.7630  -80.2500   -9.0500 C.3   121  GLY121      0.1869
     56  C        -13.3190  -80.6440  -10.4400 C.2   121  GLY121      0.2309
     57  O        -12.2920  -80.2910  -10.9100 O.2   121  GLY121     -0.2863
     58  N        -13.9570  -79.7810  -13.3560 N.3   123  GLN123     -0.1231
     59  CA       -13.6230  -78.7500  -14.3040 C.3   123  GLN123      0.1698
     60  C        -12.3760  -77.9630  -13.9830 C.2   123  GLN123      0.2592
     61  O        -11.8930  -77.2470  -14.8090 O.2   123  GLN123     -0.2718
     62  CB       -14.7880  -77.7820  -14.4990 C.3   123  GLN123      0.0381
     63  CG       -16.0850  -78.4250  -14.9540 C.3   123  GLN123      0.0905
     64  CD       -15.9170  -79.5130  -16.0150 C.2   123  GLN123      0.2608
     65  OE1      -15.3150  -79.3070  -17.0660 O.2   123  GLN123     -0.2717
     66  NE2      -16.4710  -80.6630  -15.7410 N.am  123  GLN123     -0.0878
     67  N        -11.9240  -78.0250  -12.7510 N.am  124  THR124     -0.1953
     68  CA       -10.7740  -77.2530  -12.3610 C.3   124  THR124      0.1897
     69  C         -9.6300  -78.0830  -11.9100 C.2   124  THR124      0.2313
     70  O         -8.5910  -77.5460  -11.6710 O.2   124  THR124     -0.2863
     71  CB       -11.0910  -76.2810  -11.2680 C.3   124  THR124      0.1794
     72  OG1      -11.5610  -76.9880  -10.1310 O.3   124  THR124     -0.2208
     73  CG2      -12.1450  -75.3910  -11.7520 C.3   124  THR124      0.0378
     74  N        -16.0090  -67.2890   -4.0770 N.3   177  GLN177     -0.1245
     75  CA       -16.6600  -68.2410   -4.9570 C.3   177  GLN177      0.1566
     76  C        -18.0510  -67.7880   -5.4760 C.2   177  GLN177      0.2260
     77  O        -18.3670  -67.9620   -6.6300 O.2   177  GLN177     -0.2867
     78  CB       -16.8490  -69.5720   -4.2410 C.3   177  GLN177      0.0367
     79  CG       -17.3420  -70.7010   -5.1130 C.3   177  GLN177      0.0905
     80  CD       -17.6300  -71.9800   -4.3660 C.2   177  GLN177      0.2608
     81  OE1      -17.8660  -71.9820   -3.2220 O.2   177  GLN177     -0.2717
     82  NE2      -17.6350  -73.0620   -5.0780 N.am  177  GLN177     -0.0878
     83  N        -18.9730  -67.3040   -9.4060 N.3   181  HIS181     -0.1241
     84  CA       -20.0640  -67.9670  -10.0720 C.3   181  HIS181      0.1621
     85  C        -21.0650  -66.9990  -10.6220 C.2   181  HIS181      0.2264
     86  O        -21.6130  -67.2130  -11.6870 O.2   181  HIS181     -0.2867
     87  CB       -20.7800  -68.9690   -9.1730 C.3   181  HIS181      0.0745
     88  CG       -20.0660  -70.2850   -9.0120 C.ar  181  HIS181      0.0817
     89  ND1      -20.5720  -71.4260   -9.4670 N.ar  181  HIS181     -0.2268
     90  CD2      -18.8830  -70.6180   -8.3920 C.ar  181  HIS181      0.1154
     91  CE1      -19.7310  -72.4150   -9.1940 C.ar  181  HIS181      0.1986
     92  NE2      -18.7110  -71.9230   -8.5330 N.ar  181  HIS181     -0.2212
     93  N        -16.2660  -72.6470  -17.6110 N.3   211  THR211     -0.1203
     94  CA       -16.1990  -73.4880  -16.4340 C.3   211  THR211      0.1994
     95  C        -17.3720  -73.2840  -15.4960 C.2   211  THR211      0.2617
     96  O        -17.8990  -74.2130  -14.9740 O.2   211  THR211     -0.2717
     97  CB       -14.8630  -73.3490  -15.7020 C.3   211  THR211      0.1784
     98  OG1      -14.7270  -72.0130  -15.2760 O.3   211  THR211     -0.2211
     99  CG2      -13.7100  -73.6630  -16.6340 C.3   211  THR211      0.0376
    100  N        -17.7470  -72.0430  -15.2780 N.am  212  MET212     -0.1979
    101  CA       -18.8050  -71.7520  -14.3530 C.3   212  MET212      0.1605
    102  C        -20.0990  -72.3770  -14.9000 C.2   212  MET212      0.2287
    103  O        -20.9000  -72.9020  -14.1700 O.2   212  MET212     -0.2864
    104  CB       -18.8650  -70.2630  -14.0080 C.3   212  MET212      0.0413
    105  CG       -17.6690  -69.7830  -13.2430 C.3   212  MET212      0.0598
    106  SD       -17.4100  -70.5000  -11.6140 S.3   212  MET212     -0.1393
    107  CE       -16.3570  -71.8800  -11.9740 C.3   212  MET212      0.0692
    108  N        -21.4650  -76.1120  -14.2870 N.3   215  ASN215     -0.1240
    109  CA       -22.1350  -76.4400  -13.0390 C.3   215  ASN215      0.1653
    110  C        -23.6440  -76.4040  -13.1890 C.2   215  ASN215      0.2266
    111  O        -24.1630  -75.6960  -14.0110 O.2   215  ASN215     -0.2867
    112  CB       -21.7140  -75.4790  -11.9430 C.3   215  ASN215      0.1155
    113  CG       -20.3040  -75.6940  -11.5260 C.2   215  ASN215      0.2627
    114  OD1      -19.9970  -76.6530  -10.8530 O.2   215  ASN215     -0.2716
    115  ND2      -19.4330  -74.8030  -11.9310 N.am  215  ASN215     -0.0877
    116  N        -26.7260  -76.0290   -8.2270 N.3   219  LEU219     -0.1245
    117  CA       -25.5390  -75.7450   -7.4670 C.3   219  LEU219      0.1561
    118  C        -25.3990  -74.2480   -7.2360 C.2   219  LEU219      0.2260
    119  O        -25.2430  -73.8270   -6.1310 O.2   219  LEU219     -0.2867
    120  CB       -24.2860  -76.3650   -8.1130 C.3   219  LEU219      0.0270
    121  CG       -23.0090  -76.2480   -7.2850 C.3   219  LEU219      0.0019
    122  CD1      -22.0070  -77.3230   -7.5910 C.3   219  LEU219      0.0001
    123  CD2      -22.3880  -74.8780   -7.4150 C.3   219  LEU219      0.0001
@<TRIPOS>BOND
     1    93    94    1
     2    65    64    2
     3    99    97    1
     4    94    97    1
     5    94    95    1
     6    64    66   am
     7    64    63    1
     8    97    98    1
     9    95   100   am
    10    95    96    2
    11   100   101    1
    12    63    62    1
    13   102   101    1
    14   102   103    2
    15    61    60    2
    16    62    59    1
    17   101   104    1
    18    59    60    1
    19    59    58    1
    20   108   109    1
    21   111   110    2
    22   104   105    1
    23    60    67   am
    24   105   106    1
    25   110   109    1
    26   109   112    1
    27    67    68    1
    28    68    69    1
    29    68    71    1
    30   107   106    1
    31   112   113    1
    32   115   113   am
    33    69    70    2
    34    73    71    1
    35    86    85    2
    36   113   114    2
    37    71    72    1
    38    57    56    2
    39    85    84    1
    40    56    55    1
    41    84    83    1
    42    84    87    1
    43    89    91   ar
    44    89    88   ar
    45    91    92   ar
    46    87    88    1
    47    55    54    1
    48    88    90   ar
    49     1     2    1
    50    92    90   ar
    51    54    45   am
    52   116   117    1
    53   120   117    1
    54   120   121    1
    55     2     3    1
    56     2     5    1
    57   122   121    1
    58   117   118    1
    59   123   121    1
    60   118   119    2
    61    45    44    1
    62    45    46    2
    63     3     4    2
    64     5     6    1
    65     7     9   ar
    66     7     6   ar
    67    47    44    1
    68    47    48    1
    69    44    43    1
    70    77    76    2
    71    50    48   ar
    72    50    52   ar
    73     9    11   ar
    74     6     8   ar
    75    48    49   ar
    76    52    53   ar
    77    38    37    2
    78    76    75    1
    79    43    37   am
    80    79    80    1
    81    79    78    1
    82    82    80   am
    83    75    78    1
    84    75    74    1
    85    37    36    1
    86    11    10   ar
    87     8    10   ar
    88    49    51   ar
    89    53    51   ar
    90    80    81    2
    91    17    16    1
    92    36    39    1
    93    36    35    1
    94    31    30    2
    95    39    40    1
    96    16    13    1
    97    35    30   am
    98    30    29    1
    99    27    26   ar
   100    27    25   ar
   101    32    29    1
   102    32    33    1
   103    42    41    1
   104    26    24   ar
   105    29    28    1
   106    25    23   ar
   107    13    12    1
   108    13    14    1
   109    33    34    1
   110    40    41    1
   111    34    28    1
   112    28    20   am
   113    24    23   ar
   114    15    14    2
   115    23    22    1
   116    20    21    2
   117    20    19    1
   118    19    22    1
   119    19    18    1
