@<TRIPOS>MOLECULE
tmp/5wi0A00.pdb
 136 126 0 0 0
SMALL
GASTEIGER

@<TRIPOS>ATOM
      1  N         12.1670    0.5570    3.4120 N.3   171  HIS171     -0.1241
      2  CA        13.4040    1.1750    3.8650 C.3   171  HIS171      0.1621
      3  C         13.3800    1.5280    5.3530 C.2   171  HIS171      0.2264
      4  O         12.4010    2.0740    5.8640 O.2   171  HIS171     -0.2867
      5  CB        13.7260    2.4080    3.0060 C.3   171  HIS171      0.0745
      6  CG        15.1810    2.7580    2.9750 C.ar  171  HIS171      0.0817
      7  ND1       15.9930    2.3720    1.9180 N.ar  171  HIS171     -0.2268
      8  CD2       15.9210    3.4680    3.8610 C.ar  171  HIS171      0.1154
      9  CE1       17.1900    2.8550    2.1940 C.ar  171  HIS171      0.1986
     10  NE2       17.1950    3.5200    3.3540 N.ar  171  HIS171     -0.2212
     11  N         13.9380    3.7700    8.2660 N.3   173  PHE173     -0.1241
     12  CA        14.0350    5.1950    8.6170 C.3   173  PHE173      0.1605
     13  C         14.0910    5.3880   10.1660 C.2   173  PHE173      0.2264
     14  O         13.9860    6.5190   10.6430 O.2   173  PHE173     -0.2867
     15  CB        12.7860    5.9520    8.0550 C.3   173  PHE173      0.0534
     16  CG        12.7590    6.2560    6.5660 C.ar  173  PHE173     -0.0203
     17  CD1       13.8040    5.8550    5.7300 C.ar  173  PHE173     -0.0042
     18  CD2       11.7080    6.9790    6.0070 C.ar  173  PHE173     -0.0042
     19  CE1       13.7730    6.1390    4.3520 C.ar  173  PHE173     -0.0003
     20  CE2       11.6890    7.2750    4.6350 C.ar  173  PHE173     -0.0003
     21  CZ        12.7130    6.8470    3.8200 C.ar  173  PHE173     -0.0000
     22  N         16.3900    5.1470   12.8290 N.3   175  TYR175     -0.1227
     23  CA        17.5070    5.5030   13.7140 C.3   175  TYR175      0.1736
     24  C         17.1490    6.4910   14.8610 C.2   175  TYR175      0.2595
     25  O         17.5010    6.2270   16.0200 O.2   175  TYR175     -0.2718
     26  CB        18.6670    6.0390   12.8660 C.3   175  TYR175      0.0548
     27  CG        20.0650    5.7720   13.3730 C.ar  175  TYR175     -0.0200
     28  CD1       20.3100    5.5460   14.7250 C.ar  175  TYR175     -0.0009
     29  CD2       21.1610    5.8860   12.5260 C.ar  175  TYR175     -0.0009
     30  CE1       21.6090    5.4000   15.2080 C.ar  175  TYR175      0.0417
     31  CE2       22.4570    5.7190   12.9930 C.ar  175  TYR175      0.0417
     32  CZ        22.6800    5.4930   14.3360 C.ar  175  TYR175      0.1957
     33  OH        23.9680    5.3270   14.7890 O.3   175  TYR175     -0.2866
     34  N         16.4730    7.6160   14.5350 N.am  176  ARG176     -0.1980
     35  CA        16.1100    8.6340   15.5170 C.3   176  ARG176      0.1597
     36  C         14.9920    8.1650   16.4460 C.2   176  ARG176      0.2287
     37  O         14.9280    8.6280   17.5820 O.2   176  ARG176     -0.2864
     38  CB        15.7210    9.9710   14.8330 C.3   176  ARG176      0.0334
     39  CG        14.3660    9.9680   14.1740 C.3   176  ARG176      0.0492
     40  CD        14.1360   11.1190   13.2230 C.3   176  ARG176      0.2205
     41  NE        15.1020   11.1260   12.1250 N.pl3 176  ARG176     -0.0865
     42  CZ        15.1210   12.0310   11.1590 C.cat 176  ARG176      0.5346
     43  NH1       14.1680   12.9560   11.0850 N.pl3 176  ARG176      0.1354
     44  NH2       16.0750   12.0060   10.2450 N.pl3 176  ARG176      0.1354
     45  N         18.7310    3.3280    6.2870 N.3   199  ASP199     -0.1239
     46  CA        19.2760    4.6280    6.6580 C.3   199  ASP199      0.1674
     47  C         19.8750    4.5700    8.0400 C.2   199  ASP199      0.2266
     48  O         20.6310    5.4590    8.4330 O.2   199  ASP199     -0.2867
     49  CB        18.2610    5.7890    6.5170 C.3   199  ASP199      0.1410
     50  CG        18.3440    6.4840    5.1840 C.2   199  ASP199      0.3668
     51  OD1       18.5880    5.7950    4.1760 O.co2 199  ASP199     -0.2456
     52  OD2       18.2530    7.7270    5.1590 O.co2 199  ASP199     -0.2456
     53  N         21.6470    2.9300    0.4960 N.3   221  SER221     -0.1202
     54  CA        20.8550    4.1590    0.4730 C.3   221  SER221      0.2020
     55  C         21.1900    5.0230   -0.7490 C.2   221  SER221      0.2618
     56  O         22.1530    4.7540   -1.4700 O.2   221  SER221     -0.2717
     57  CB        20.9900    4.9490    1.7770 C.3   221  SER221      0.2103
     58  OG        20.0090    5.9700    1.8750 O.3   221  SER221     -0.2182
     59  N         20.3570    6.0330   -0.9900 N.am  222  VAL222     -0.1979
     60  CA        20.4860    7.0080   -2.0720 C.3   222  VAL222      0.1595
     61  C         20.4180    8.4330   -1.4570 C.2   222  VAL222      0.2287
     62  O         19.8450    8.5970   -0.3720 O.2   222  VAL222     -0.2864
     63  CB        19.4320    6.8090   -3.2150 C.3   222  VAL222      0.0276
     64  CG1       19.5950    5.4610   -3.9190 C.3   222  VAL222      0.0022
     65  CG2       17.9900    7.0140   -2.7190 C.3   222  VAL222      0.0022
     66  N         19.0380   12.0700   -0.4390 N.3   224  ALA224     -0.1231
     67  CA        17.6740   12.5090   -0.1580 C.3   224  ALA224      0.1694
     68  C         17.6750   13.7810    0.6600 C.2   224  ALA224      0.2592
     69  O         18.6180   14.0310    1.3960 O.2   224  ALA224     -0.2718
     70  CB        16.9230   11.4280    0.5880 C.3   224  ALA224      0.0304
     71  N         16.5990   14.5480    0.5550 N.am  225  ALA225     -0.1966
     72  CA        16.4070   15.7910    1.2850 C.3   225  ALA225      0.1728
     73  C         15.6540   15.5450    2.5910 C.2   225  ALA225      0.2616
     74  O         15.0310   14.4970    2.7830 O.2   225  ALA225     -0.2715
     75  CB        15.6160   16.7770    0.4160 C.3   225  ALA225      0.0334
     76  N         15.7290   16.5230    3.4880 N.am  226  GLU226     -0.1977
     77  CA        14.9570   16.5890    4.7260 C.3   226  GLU226      0.1602
     78  C         14.2980   17.9510    4.7240 C.2   226  GLU226      0.2287
     79  O         14.6120   18.7630    3.8530 O.2   226  GLU226     -0.2864
     80  CB        15.7890   16.2980    5.9790 C.3   226  GLU226      0.0415
     81  CG        16.7230   17.4040    6.4490 C.3   226  GLU226      0.1163
     82  CD        17.5690   17.0110    7.6560 C.2   226  GLU226      0.3649
     83  OE1       18.1980   17.9080    8.2550 O.co2 226  GLU226     -0.2457
     84  OE2       17.6050   15.8090    8.0100 O.co2 226  GLU226     -0.2457
     85  N         15.5930   11.3170   -3.5950 N.3   255  SER255     -0.1217
     86  CA        14.2740   11.4450   -2.9870 C.3   255  SER255      0.1889
     87  C         14.1270   12.8720   -2.4840 C.2   255  SER255      0.2288
     88  O         15.0550   13.3950   -1.9060 O.2   255  SER255     -0.2866
     89  CB        14.1060   10.4430   -1.8510 C.3   255  SER255      0.2089
     90  OG        12.9600   10.7670   -1.0780 O.3   255  SER255     -0.2183
     91  N         11.5690   15.3270   -0.2210 N.3   257  VAL257     -0.1245
     92  CA        10.4180   15.5590    0.6480 C.3   257  VAL257      0.1561
     93  C          9.7300   16.8220    0.1180 C.2   257  VAL257      0.2260
     94  O         10.3620   17.8680   -0.0500 O.2   257  VAL257     -0.2867
     95  CB        10.7680   15.5790    2.1600 C.3   257  VAL257      0.0252
     96  CG1       11.7230   16.7250    2.5270 C.3   257  VAL257      0.0019
     97  CG2        9.5040   15.6030    3.0050 C.3   257  VAL257      0.0019
     98  N         12.3900   10.6590   -6.7510 N.3   289  ILE289     -0.1245
     99  CA        11.4730    9.9810   -5.8480 C.3   289  ILE289      0.1561
    100  C         10.7770   11.0870   -5.0240 C.2   289  ILE289      0.2260
    101  O         11.4300   11.7960   -4.2680 O.2   289  ILE289     -0.2867
    102  CB        12.1900    8.8740   -5.0020 C.3   289  ILE289      0.0252
    103  CG1       13.0410    7.9170   -5.9130 C.3   289  ILE289      0.0019
    104  CG2       11.1640    8.0740   -4.2210 C.3   289  ILE289      0.0019
    105  CD1       14.2340    7.2360   -5.2650 C.3   289  ILE289      0.0001
    106  N          8.5990   12.3620   -2.0460 N.3   291  ARG291     -0.1245
    107  CA         8.1830   11.8880   -0.7400 C.3   291  ARG291      0.1563
    108  C          7.1170   12.7670   -0.1070 C.2   291  ARG291      0.2260
    109  O          7.4630   13.8540    0.3630 O.2   291  ARG291     -0.2867
    110  CB         9.3810   11.7090    0.2350 C.3   291  ARG291      0.0307
    111  CG         8.9370   11.3310    1.6580 C.3   291  ARG291      0.0489
    112  CD         9.9520   10.6530    2.5640 C.3   291  ARG291      0.2205
    113  NE        11.1110   11.4890    2.8390 N.pl3 291  ARG291     -0.0865
    114  CZ        11.3400   12.1800    3.9500 C.cat 291  ARG291      0.5346
    115  NH1       10.4370   12.2140    4.9230 N.pl3 291  ARG291      0.1354
    116  NH2       12.4550   12.8740    4.0800 N.pl3 291  ARG291      0.1354
    117  N          4.9290   13.5160    3.2570 N.3   293  ASP293     -0.1239
    118  CA         5.3500   13.1480    4.6140 C.3   293  ASP293      0.1674
    119  C          4.3640   13.5660    5.7170 C.2   293  ASP293      0.2266
    120  O          4.7440   13.6620    6.8840 O.2   293  ASP293     -0.2867
    121  CB         6.7680   13.7110    4.8730 C.3   293  ASP293      0.1410
    122  CG         7.4130   13.2260    6.1410 C.2   293  ASP293      0.3668
    123  OD1        7.7040   12.0130    6.2280 O.co2 293  ASP293     -0.2456
    124  OD2        7.5920   14.0550    7.0710 O.co2 293  ASP293     -0.2456
    125  N          7.7300    7.6430   -2.5090 N.3   331  ILE331     -0.1245
    126  CA         8.1010    6.9600   -1.2640 C.3   331  ILE331      0.1561
    127  C          7.2260    7.5090   -0.1430 C.2   331  ILE331      0.2260
    128  O          7.1680    8.7280    0.0430 O.2   331  ILE331     -0.2867
    129  CB         9.6300    6.9590   -0.9120 C.3   331  ILE331      0.0252
    130  CG1        9.9260    6.0610    0.3210 C.3   331  ILE331      0.0019
    131  CG2       10.1790    8.3630   -0.6960 C.3   331  ILE331      0.0019
    132  CD1       11.2570    5.3130    0.2480 C.3   331  ILE331      0.0001
    133  N          6.9320    7.4640    3.7200 N.3   333  GLY333     -0.1225
    134  CA         7.6950    7.1370    4.9110 C.3   333  GLY333      0.1811
    135  C          7.2650    7.7930    6.1980 C.2   333  GLY333      0.2280
    136  O          8.1000    7.9610    7.0960 O.2   333  GLY333     -0.2866
@<TRIPOS>BOND
     1    98    99    1
     2   103   105    1
     3   103   102    1
     4    99   100    1
     5    99   102    1
     6   100   101    2
     7   102   104    1
     8    64    63    1
     9    85    86    1
    10    63    65    1
    11    63    60    1
    12    86    87    1
    13    86    89    1
    14   125   126    1
    15    87    88    2
    16    60    61    1
    17    60    59    1
    18   106   107    1
    19    89    90    1
    20    56    55    2
    21    61    62    2
    22   126   129    1
    23   126   127    1
    24    59    55   am
    25   129   131    1
    26   129   130    1
    27    55    54    1
    28   107   108    1
    29   107   110    1
    30    66    67    1
    31    91    92    1
    32    67    70    1
    33    67    68    1
    34   127   128    2
    35   108   109    2
    36    94    93    2
    37    93    92    1
    38   110   111    1
    39   132   130    1
    40    75    72    1
    41    54    53    1
    42    54    57    1
    43    71    68   am
    44    71    72    1
    45    92    95    1
    46    68    69    2
    47    72    73    1
    48   111   112    1
    49    57    58    1
    50     7     9   ar
    51     7     6   ar
    52    95    96    1
    53    95    97    1
    54     9    10   ar
    55   112   113    1
    56    73    74    2
    57    73    76   am
    58   113   114    2
    59     6     5    1
    60     6     8   ar
    61     5     2    1
    62   117   118    1
    63    10     8   ar
    64     1     2    1
    65    76    77    1
    66   133   134    1
    67    21    19   ar
    68    21    20   ar
    69    79    78    2
    70     2     3    1
    71   114   116    1
    72   114   115    1
    73    51    50   ar
    74    19    17   ar
    75   118   121    1
    76   118   119    1
    77    20    18   ar
    78    78    77    1
    79    77    80    1
    80   121   122    1
    81   134   135    1
    82    52    50   ar
    83    50    49    1
    84     3     4    2
    85   119   120    2
    86    17    16   ar
    87    80    81    1
    88    18    16   ar
    89   122   123   ar
    90   122   124   ar
    91   135   136    2
    92    45    46    1
    93    81    82    1
    94    49    46    1
    95    16    15    1
    96    46    47    1
    97    82    84   ar
    98    82    83   ar
    99    47    48    2
   100    15    12    1
   101    11    12    1
   102    12    13    1
   103    13    14    2
   104    44    42    1
   105    43    42    1
   106    42    41    2
   107    41    40    1
   108    29    31   ar
   109    29    27   ar
   110    22    23    1
   111    26    27    1
   112    26    23    1
   113    31    32   ar
   114    40    39    1
   115    27    28   ar
   116    23    24    1
   117    39    38    1
   118    32    33    1
   119    32    30   ar
   120    34    24   am
   121    34    35    1
   122    28    30   ar
   123    38    35    1
   124    24    25    2
   125    35    36    1
   126    36    37    2
