@<TRIPOS>MOLECULE
tmp/5wi1B00.pdb
 108 101 0 0 0
SMALL
GASTEIGER

@<TRIPOS>ATOM
      1  N          7.8340   -0.5870   40.9670 N.3   171  HIS171     -0.1241
      2  CA         9.1170   -1.2470   40.8050 C.3   171  HIS171      0.1621
      3  C          9.3790   -1.5970   39.3410 C.2   171  HIS171      0.2264
      4  O          8.5130   -2.1500   38.6460 O.2   171  HIS171     -0.2867
      5  CB         9.1710   -2.5110   41.6870 C.3   171  HIS171      0.0745
      6  CG        10.5560   -2.9700   42.0120 C.ar  171  HIS171      0.0817
      7  ND1       11.1650   -2.6290   43.2080 N.ar  171  HIS171     -0.2268
      8  CD2       11.3940   -3.7560   41.3000 C.ar  171  HIS171      0.1154
      9  CE1       12.3580   -3.1990   43.1790 C.ar  171  HIS171      0.1986
     10  NE2       12.5330   -3.9110   42.0580 N.ar  171  HIS171     -0.2212
     11  N         10.6190   -3.7800   36.5110 N.3   173  PHE173     -0.1241
     12  CA        10.7870   -5.2100   36.1960 C.3   173  PHE173      0.1605
     13  C         11.2000   -5.3810   34.7110 C.2   173  PHE173      0.2264
     14  O         11.1720   -6.5020   34.1890 O.2   173  PHE173     -0.2867
     15  CB         9.4270   -5.9320   36.3650 C.3   173  PHE173      0.0534
     16  CG         8.8680   -6.2820   37.7360 C.ar  173  PHE173     -0.0203
     17  CD1        9.4440   -5.7710   38.8990 C.ar  173  PHE173     -0.0042
     18  CD2        7.7570   -7.1250   37.8600 C.ar  173  PHE173     -0.0042
     19  CE1        8.9110   -6.0770   40.1560 C.ar  173  PHE173     -0.0003
     20  CE2        7.2410   -7.4500   39.1220 C.ar  173  PHE173     -0.0003
     21  CZ         7.8200   -6.9230   40.2560 C.ar  173  PHE173     -0.0000
     22  N         13.9860   -5.0870   32.7030 N.3   175  TYR175     -0.1227
     23  CA        15.2880   -5.4880   32.1390 C.3   175  TYR175      0.1736
     24  C         15.1940   -6.4890   30.9450 C.2   175  TYR175      0.2595
     25  O         15.7650   -6.2170   29.8850 O.2   175  TYR175     -0.2718
     26  CB        16.2210   -6.0110   33.2340 C.3   175  TYR175      0.0548
     27  CG        17.7140   -5.7980   33.0510 C.ar  175  TYR175     -0.0200
     28  CD1       18.2610   -5.5520   31.7900 C.ar  175  TYR175     -0.0009
     29  CD2       18.5930   -5.9270   34.1290 C.ar  175  TYR175     -0.0009
     30  CE1       19.6340   -5.3820   31.6190 C.ar  175  TYR175      0.0417
     31  CE2       19.9700   -5.7580   33.9680 C.ar  175  TYR175      0.0417
     32  CZ        20.4820   -5.4770   32.7140 C.ar  175  TYR175      0.1957
     33  OH        21.8360   -5.3220   32.5650 O.3   175  TYR175     -0.2866
     34  N         14.4920   -7.6240   31.1100 N.am  176  ARG176     -0.1980
     35  CA        14.3700   -8.6190   30.0330 C.3   176  ARG176      0.1597
     36  C         13.4840   -8.1210   28.8800 C.2   176  ARG176      0.2287
     37  O         13.5950   -8.6430   27.7740 O.2   176  ARG176     -0.2864
     38  CB        13.8280   -9.9710   30.5600 C.3   176  ARG176      0.0334
     39  CG        12.3160   -9.9880   30.7870 C.3   176  ARG176      0.0492
     40  CD        11.8570  -11.1040   31.6960 C.3   176  ARG176      0.2205
     41  NE        12.5020  -11.0490   33.0130 N.pl3 176  ARG176     -0.0865
     42  CZ        12.2850  -11.9420   33.9740 C.cat 176  ARG176      0.5346
     43  NH1       11.4360  -12.9450   33.7780 N.pl3 176  ARG176      0.1354
     44  NH2       12.9200  -11.8420   35.1360 N.pl3 176  ARG176      0.1354
     45  N         14.8220   -3.3850   39.6050 N.3   199  ASP199     -0.1239
     46  CA        15.4940   -4.6680   39.4440 C.3   199  ASP199      0.1674
     47  C         16.4670   -4.5680   38.2630 C.2   199  ASP199      0.2266
     48  O         17.2800   -5.4650   38.0340 O.2   199  ASP199     -0.2867
     49  CB        14.4880   -5.8530   39.2940 C.3   199  ASP199      0.1410
     50  CG        14.3240   -6.6140   40.5920 C.2   199  ASP199      0.3668
     51  OD1       14.3560   -5.9710   41.6570 O.co2 199  ASP199     -0.2456
     52  OD2       14.1930   -7.8790   40.5470 O.co2 199  ASP199     -0.2456
     53  N         16.2400   -2.9600   45.9900 N.3   221  SER221     -0.1202
     54  CA        15.4010   -4.1410   45.8070 C.3   221  SER221      0.2020
     55  C         15.3920   -5.0000   47.0610 C.2   221  SER221      0.2618
     56  O         16.0800   -4.6940   48.0450 O.2   221  SER221     -0.2717
     57  CB        15.8110   -4.9600   44.5820 C.3   221  SER221      0.2103
     58  OG        14.7490   -5.8450   44.2580 O.3   221  SER221     -0.2182
     59  N         14.5630   -6.0590   47.0310 N.am  222  VAL222     -0.1979
     60  CA        14.4140   -7.0130   48.1200 C.3   222  VAL222      0.1595
     61  C         14.4320   -8.4160   47.5030 C.2   222  VAL222      0.2287
     62  O         14.1520   -8.5590   46.2980 O.2   222  VAL222     -0.2864
     63  CB        13.1230   -6.7730   48.9860 C.3   222  VAL222      0.0276
     64  CG1       13.1290   -5.4060   49.6780 C.3   222  VAL222      0.0022
     65  CG2       11.8330   -7.0000   48.1960 C.3   222  VAL222      0.0022
     66  N         13.2660  -11.9100   46.1530 N.3   224  ALA224     -0.1231
     67  CA        12.0070  -12.2770   45.5280 C.3   224  ALA224      0.1694
     68  C         12.1730  -13.5770   44.7620 C.2   224  ALA224      0.2591
     69  O         13.2540  -13.8320   44.2460 O.2   224  ALA224     -0.2718
     70  CB        11.5670  -11.1670   44.5800 C.3   224  ALA224      0.0304
     71  N         11.1170  -14.4000   44.7130 N.am  225  ALA225     -0.1980
     72  CA        11.1000  -15.6570   43.9790 C.3   225  ALA225      0.1597
     73  C         10.6980  -15.4020   42.5060 C.2   225  ALA225      0.2287
     74  O         10.2190  -14.3160   42.1490 O.2   225  ALA225     -0.2864
     75  CB        10.1220  -16.6320   44.6320 C.3   225  ALA225      0.0319
     76  N          9.3700  -11.2130   48.5160 N.3   255  SER255     -0.1217
     77  CA         8.2710  -11.3440   47.5670 C.3   255  SER255      0.1889
     78  C          8.2190  -12.7780   47.0750 C.2   255  SER255      0.2288
     79  O          9.2410  -13.3340   46.6880 O.2   255  SER255     -0.2866
     80  CB         8.4360  -10.3930   46.3920 C.3   255  SER255      0.2089
     81  OG         7.4830  -10.6520   45.3700 O.3   255  SER255     -0.2183
     82  N          5.5010  -10.5490   50.8470 N.3   289  ILE289     -0.1245
     83  CA         4.8450   -9.8370   49.7700 C.3   289  ILE289      0.1561
     84  C          4.3000  -10.9120   48.8230 C.2   289  ILE289      0.2260
     85  O          5.0770  -11.6500   48.2190 O.2   289  ILE289     -0.2867
     86  CB         5.7730   -8.7640   49.1000 C.3   289  ILE289      0.0252
     87  CG1        6.3820   -7.8140   50.1760 C.3   289  ILE289      0.0019
     88  CG2        4.9810   -7.9570   48.0900 C.3   289  ILE289      0.0019
     89  CD1        7.6170   -7.0150   49.7860 C.3   289  ILE289      0.0001
     90  N          2.8110  -12.2410   45.5310 N.3   291  ARG291     -0.1245
     91  CA         2.8070  -11.7270   44.1850 C.3   291  ARG291      0.1563
     92  C          1.9250  -12.5370   43.2230 C.2   291  ARG291      0.2260
     93  O          2.3530  -13.5950   42.7690 O.2   291  ARG291     -0.2867
     94  CB         4.2440  -11.5490   43.6340 C.3   291  ARG291      0.0307
     95  CG         4.2790  -11.1420   42.1330 C.3   291  ARG291      0.0489
     96  CD         5.5250  -10.4210   41.6630 C.3   291  ARG291      0.2205
     97  NE         6.6620  -11.3290   41.5980 N.pl3 291  ARG291     -0.0865
     98  CZ         7.1410  -11.8770   40.4870 C.cat 291  ARG291      0.5346
     99  NH1        6.5910  -11.6040   39.3100 N.pl3 291  ARG291      0.1354
    100  NH2        8.1690  -12.7040   40.5430 N.pl3 291  ARG291      0.1354
    101  N          2.1190   -7.4210   45.8070 N.3   331  ILE331     -0.1245
    102  CA         2.7640   -6.7640   44.6640 C.3   331  ILE331      0.1561
    103  C          2.1130   -7.2970   43.3780 C.2   331  ILE331      0.2260
    104  O          2.1120   -8.5000   43.1420 O.2   331  ILE331     -0.2867
    105  CB         4.3360   -6.7730   44.6540 C.3   331  ILE331      0.0252
    106  CG1        4.9060   -5.9440   43.4620 C.3   331  ILE331      0.0019
    107  CG2        4.9110   -8.1980   44.6620 C.3   331  ILE331      0.0019
    108  CD1        6.3120   -5.4050   43.6610 C.3   331  ILE331      0.0001
@<TRIPOS>BOND
     1    37    36    2
     2    36    35    1
     3    25    24    2
     4    35    38    1
     5    35    34    1
     6    38    39    1
     7    39    40    1
     8    24    34   am
     9    24    23    1
    10    30    28   ar
    11    30    32   ar
    12    40    41    1
    13    28    27   ar
    14    23    22    1
    15    23    26    1
    16    33    32    1
    17    32    31   ar
    18    41    42    2
    19    27    26    1
    20    27    29   ar
    21    43    42    1
    22    31    29   ar
    23    42    44    1
    24    14    13    2
    25    13    12    1
    26    12    15    1
    27    12    11    1
    28    15    16    1
    29    16    18   ar
    30    16    17   ar
    31    18    20   ar
    32    48    47    2
    33    47    46    1
    34     4     3    2
    35    17    19   ar
    36    20    21   ar
    37    49    46    1
    38    49    50    1
    39    99    98    1
    40     3     2    1
    41    46    45    1
    42    19    21   ar
    43    98   100    1
    44    98    97    2
    45    52    50   ar
    46    50    51   ar
    47     2     1    1
    48     2     5    1
    49     8     6   ar
    50     8    10   ar
    51    97    96    1
    52    96    95    1
    53     5     6    1
    54     6     7   ar
    55    10     9   ar
    56    95    94    1
    57    74    73    2
    58    73    72    1
    59    93    92    2
    60   104   103    2
    61     9     7   ar
    62    92    91    1
    63   103   102    1
    64   106   108    1
    65   106   105    1
    66    94    91    1
    67    72    75    1
    68    72    71    1
    69    91    90    1
    70    69    68    2
    71    58    57    1
    72    70    67    1
    73    57    54    1
    74   105   107    1
    75   105   102    1
    76   102   101    1
    77    71    68   am
    78    68    67    1
    79    81    80    1
    80    67    66    1
    81    54    53    1
    82    54    55    1
    83    62    61    2
    84    80    77    1
    85    79    78    2
    86    59    55   am
    87    59    60    1
    88    55    56    2
    89    78    77    1
    90    61    60    1
    91    77    76    1
    92    88    86    1
    93    60    63    1
    94    65    63    1
    95    85    84    2
    96    84    83    1
    97    63    64    1
    98    86    83    1
    99    86    87    1
   100    83    82    1
   101    89    87    1
