@<TRIPOS>MOLECULE
tmp/5wi3B00.pdb
 142 138 0 0 0
SMALL
GASTEIGER

@<TRIPOS>ATOM
      1  N         -7.0400   33.6000    7.8490 N.3    48  ALA48      -0.1231
      2  CA        -7.5460   34.9540    8.0440 C.3    48  ALA48       0.1694
      3  C         -8.6600   35.2500    7.0310 C.2    48  ALA48       0.2592
      4  O         -9.4770   34.3630    6.7820 O.2    48  ALA48      -0.2718
      5  CB        -6.3740   35.9530    7.9820 C.3    48  ALA48       0.0304
      6  N         -8.7070   36.4390    6.4260 N.am   49  SER49      -0.1952
      7  CA        -9.7950   36.7970    5.5280 C.3    49  SER49       0.1924
      8  C         -9.9480   35.9680    4.2300 C.2    49  SER49       0.2314
      9  O        -10.9830   36.0360    3.5840 O.2    49  SER49      -0.2863
     10  CB        -9.8120   38.3090    5.1840 C.3    49  SER49       0.2116
     11  OG        -9.8660   39.1040    6.3720 O.3    49  SER49      -0.2180
     12  N        -13.4180   48.7690   12.9050 N.3    79  LEU79      -0.1231
     13  CA       -11.9470   48.8560   12.8170 C.3    79  LEU79       0.1693
     14  C        -11.4970   49.7690   11.6850 C.2    79  LEU79       0.2592
     15  O        -10.5140   50.4660   11.8000 O.2    79  LEU79      -0.2718
     16  CB       -11.3310   47.4620   12.6120 C.3    79  LEU79       0.0284
     17  CG        -9.8520   47.2360   12.9660 C.3    79  LEU79       0.0019
     18  CD1       -9.5690   47.5570   14.4370 C.3    79  LEU79       0.0001
     19  CD2       -9.4540   45.7940   12.6440 C.3    79  LEU79       0.0001
     20  N        -12.2080   49.7240   10.5720 N.am   80  PHE80      -0.1976
     21  CA       -11.9190   50.5750    9.4360 C.3    80  PHE80       0.1639
     22  C        -13.1610   51.3770    9.1050 C.2    80  PHE80       0.2290
     23  O        -14.2800   50.8680    9.1860 O.2    80  PHE80      -0.2864
     24  CB       -11.4760   49.7060    8.2510 C.3    80  PHE80       0.0560
     25  CG       -10.1970   48.9740    8.5070 C.ar   80  PHE80      -0.0200
     26  CD1       -8.9620   49.6390    8.3610 C.ar   80  PHE80      -0.0042
     27  CD2      -10.2010   47.6830    8.9730 C.ar   80  PHE80      -0.0042
     28  CE1       -7.7670   48.9820    8.6380 C.ar   80  PHE80      -0.0003
     29  CE2       -9.0220   47.0170    9.2550 C.ar   80  PHE80      -0.0003
     30  CZ        -7.7940   47.6620    9.0780 C.ar   80  PHE80      -0.0000
     31  N        -15.6220   50.1350    6.3770 N.3    83  TRP83      -0.1241
     32  CA       -16.6320   49.1370    6.7790 C.3    83  TRP83       0.1605
     33  C        -17.8940   49.7630    7.3480 C.2    83  TRP83       0.2264
     34  O        -18.8820   49.0420    7.5580 O.2    83  TRP83      -0.2867
     35  CB       -16.0800   48.1790    7.8290 C.3    83  TRP83       0.0550
     36  CG       -14.9000   47.3530    7.3890 C.ar   83  TRP83       0.0003
     37  CD1      -14.4160   47.2140    6.1260 C.ar   83  TRP83       0.0946
     38  CD2      -14.1010   46.5220    8.2270 C.ar   83  TRP83       0.0152
     39  NE1      -13.3340   46.3680    6.1390 N.ar   83  TRP83      -0.2442
     40  CE2      -13.1300   45.9260    7.4200 C.ar   83  TRP83       0.0810
     41  CE3      -14.1210   46.2190    9.5900 C.ar   83  TRP83       0.0012
     42  CZ2      -12.1790   45.0280    7.9250 C.ar   83  TRP83       0.0191
     43  CZ3      -13.1480   45.3390   10.0940 C.ar   83  TRP83       0.0001
     44  CH2      -12.2050   44.7600    9.2620 C.ar   83  TRP83       0.0015
     45  N        -14.0980   44.4750    0.3530 N.3    95  LEU95      -0.1231
     46  CA       -13.5500   45.2590    1.4830 C.3    95  LEU95       0.1693
     47  C        -12.9610   44.4410    2.6290 C.2    95  LEU95       0.2592
     48  O        -12.4420   45.0190    3.5850 O.2    95  LEU95      -0.2718
     49  CB       -14.6610   46.1700    2.0450 C.3    95  LEU95       0.0284
     50  CG       -15.2160   47.2150    1.0570 C.3    95  LEU95       0.0019
     51  CD1      -16.3480   48.0270    1.6460 C.3    95  LEU95       0.0001
     52  CD2      -14.1020   48.1600    0.5940 C.3    95  LEU95       0.0001
     53  N        -13.0710   43.1160    2.5530 N.am   96  SER96      -0.1952
     54  CA       -12.7560   42.1860    3.6580 C.3    96  SER96       0.1924
     55  C        -13.3820   42.6390    4.9720 C.2    96  SER96       0.2314
     56  O        -12.7130   42.7180    5.9920 O.2    96  SER96      -0.2863
     57  CB       -11.2490   41.9910    3.8440 C.3    96  SER96       0.2116
     58  OG       -10.7280   41.2630    2.7950 O.3    96  SER96      -0.2180
     59  N        -14.8010   42.1090    7.9680 N.3    98  VAL98      -0.1245
     60  CA       -14.8790   41.0560    8.9910 C.3    98  VAL98       0.1561
     61  C        -16.2390   40.9810    9.7220 C.2    98  VAL98       0.2260
     62  O        -16.7930   39.8760    9.8710 O.2    98  VAL98      -0.2867
     63  CB       -13.7100   41.1960    9.9850 C.3    98  VAL98       0.0252
     64  CG1      -13.8960   40.3200   11.2320 C.3    98  VAL98       0.0019
     65  CG2      -12.3950   40.8740    9.2530 C.3    98  VAL98       0.0019
     66  N         -9.7150   33.4320   12.0420 N.3   136  LEU136     -0.1231
     67  CA        -8.8420   34.6060   12.3410 C.3   136  LEU136      0.1693
     68  C         -7.7560   34.3020   13.3680 C.2   136  LEU136      0.2591
     69  O         -6.6090   34.7230   13.1870 O.2   136  LEU136     -0.2718
     70  CB        -9.6740   35.7880   12.8010 C.3   136  LEU136      0.0284
     71  CG       -10.7920   36.2430   11.8510 C.3   136  LEU136      0.0019
     72  CD1      -11.8420   37.0670   12.5760 C.3   136  LEU136      0.0001
     73  CD2      -10.1890   37.0740   10.7140 C.3   136  LEU136      0.0001
     74  N         -8.1000   33.5660   14.4370 N.am  137  VAL137     -0.1980
     75  CA        -7.1740   33.3750   15.5580 C.3   137  VAL137      0.1595
     76  C         -6.8680   31.9080   15.8330 C.2   137  VAL137      0.2287
     77  O         -6.3580   31.5900   16.8940 O.2   137  VAL137     -0.2864
     78  CB        -7.7090   34.0720   16.8320 C.3   137  VAL137      0.0276
     79  CG1       -7.8570   35.5730   16.5870 C.3   137  VAL137      0.0022
     80  CG2       -9.0390   33.4720   17.2970 C.3   137  VAL137      0.0022
     81  N         -7.4230   38.8460   -0.4840 N.3   187  THR187     -0.1203
     82  CA        -6.3440   39.1060    0.4860 C.3   187  THR187      0.1994
     83  C         -6.7270   38.6430    1.8930 C.2   187  THR187      0.2618
     84  O         -7.9050   38.4310    2.2300 O.2   187  THR187     -0.2717
     85  CB        -5.9850   40.5780    0.5620 C.3   187  THR187      0.1784
     86  OG1       -7.1980   41.3070    0.8820 O.3   187  THR187     -0.2211
     87  CG2       -5.4250   41.0250   -0.7900 C.3   187  THR187      0.0376
     88  N         -5.7090   38.4400    2.7070 N.am  188  GLY188     -0.1942
     89  CA        -5.8980   38.3360    4.1620 C.3   188  GLY188      0.2014
     90  C         -4.6230   38.6740    4.8790 C.2   188  GLY188      0.2639
     91  O         -3.5340   38.4930    4.3460 O.2   188  GLY188     -0.2714
     92  N         -4.7580   39.1170    6.1240 N.am  189  TRP189     -0.1959
     93  CA        -3.5970   39.3890    6.9320 C.3   189  TRP189      0.1771
     94  C         -3.9380   39.2420    8.4050 C.2   189  TRP189      0.2620
     95  O         -5.0570   39.5660    8.8480 O.2   189  TRP189     -0.2715
     96  CB        -2.9260   40.7450    6.5080 C.3   189  TRP189      0.0590
     97  CG        -3.3910   42.0350    7.0640 C.ar  189  TRP189      0.0006
     98  CD1       -4.4900   42.7450    6.6840 C.ar  189  TRP189      0.0946
     99  CD2       -2.7080   42.8480    8.0340 C.ar  189  TRP189      0.0152
    100  NE1       -4.5840   43.9190    7.4040 N.ar  189  TRP189     -0.2442
    101  CE2       -3.5020   44.0090    8.2390 C.ar  189  TRP189      0.0810
    102  CE3       -1.5260   42.6960    8.7730 C.ar  189  TRP189      0.0012
    103  CZ2       -3.1460   45.0160    9.1460 C.ar  189  TRP189      0.0191
    104  CZ3       -1.1780   43.7060    9.6770 C.ar  189  TRP189      0.0001
    105  CH2       -1.9880   44.8460    9.8550 C.ar  189  TRP189      0.0015
    106  N         -3.0160   38.6530    9.1380 N.am  190  ALA190     -0.1963
    107  CA        -3.1370   38.4980   10.6180 C.3   190  ALA190      0.1728
    108  C         -1.8580   39.0120   11.2050 C.2   190  ALA190      0.2616
    109  O         -0.7980   38.5340   10.7930 O.2   190  ALA190     -0.2715
    110  CB        -3.3490   37.0100   10.9750 C.3   190  ALA190      0.0334
    111  N         -1.9350   39.9640   12.1420 N.am  191  MET191     -0.1963
    112  CA        -0.7590   40.5060   12.8240 C.3   191  MET191      0.1736
    113  C         -1.0270   40.6300   14.3170 C.2   191  MET191      0.2616
    114  O         -1.7360   41.5390   14.7600 O.2   191  MET191     -0.2715
    115  CB        -0.3620   41.8670   12.2240 C.3   191  MET191      0.0427
    116  CG         0.9100   42.5220   12.7720 C.3   191  MET191      0.0599
    117  SD         2.4300   42.0370   11.9150 S.3   191  MET191     -0.1393
    118  CE         2.2020   42.8480   10.3350 C.3   191  MET191      0.0692
    119  N         -0.4200   39.7230   15.0850 N.am  192  ASN192     -0.1972
    120  CA        -0.6100   39.6380   16.5430 C.3   192  ASN192      0.1688
    121  C          0.5090   38.7430   17.1240 C.2   192  ASN192      0.2292
    122  O          1.4390   38.3830   16.3970 O.2   192  ASN192     -0.2864
    123  CB        -2.0150   39.0650   16.8350 C.3   192  ASN192      0.1181
    124  CG        -2.2920   37.7640   16.0770 C.2   192  ASN192      0.2629
    125  OD1       -1.5380   36.7910   16.1930 O.2   192  ASN192     -0.2716
    126  ND2       -3.3980   37.7330   15.3220 N.am  192  ASN192     -0.0877
    127  N          0.2270   47.7180    2.3470 N.3   226  ALA226     -0.1245
    128  CA        -0.6210   46.5480    2.0270 C.3   226  ALA226      0.1562
    129  C         -0.4590   46.0880    0.5650 C.2   226  ALA226      0.2260
    130  O         -0.5250   44.8590    0.2580 O.2   226  ALA226     -0.2867
    131  CB        -2.0830   46.8640    2.3210 C.3   226  ALA226      0.0290
    132  N          1.7940   43.0990   -1.4590 N.3   229  ARG229     -0.1245
    133  CA         1.3330   41.7630   -1.8340 C.3   229  ARG229      0.1563
    134  C          0.9980   41.7810   -3.3370 C.2   229  ARG229      0.2260
    135  O          1.4980   40.9540   -4.1030 O.2   229  ARG229     -0.2867
    136  CB         0.1110   41.3500   -1.0190 C.3   229  ARG229      0.0307
    137  CG         0.4570   41.1050    0.4360 C.3   229  ARG229      0.0489
    138  CD        -0.7510   40.7720    1.2560 C.3   229  ARG229      0.2205
    139  NE        -1.6440   41.9260    1.3800 N.pl3 229  ARG229     -0.0865
    140  CZ        -2.7830   41.9310    2.0860 C.cat 229  ARG229      0.5346
    141  NH1       -3.1670   40.8630    2.7640 N.pl3 229  ARG229      0.1354
    142  NH2       -3.5360   43.0180    2.1270 N.pl3 229  ARG229      0.1354
@<TRIPOS>BOND
     1   135   134    2
     2   134   133    1
     3   133   132    1
     4   133   136    1
     5   136   137    1
     6    87    85    1
     7    81    82    1
     8   130   129    2
     9    45    46    1
    10   137   138    1
    11    82    85    1
    12    82    83    1
    13    85    86    1
    14   129   128    1
    15    52    50    1
    16    50    51    1
    17    50    49    1
    18   138   139    1
    19   139   140    2
    20    46    49    1
    21    46    47    1
    22    83    84    2
    23    83    88   am
    24   128   131    1
    25   128   127    1
    26   140   142    1
    27   140   141    1
    28    53    47   am
    29    53    54    1
    30    47    48    2
    31    88    89    1
    32    58    57    1
    33     9     8    2
    34    54    57    1
    35    54    55    1
    36    89    90    1
    37     8     7    1
    38    91    90    2
    39    90    92   am
    40    55    56    2
    41    10     7    1
    42    10    11    1
    43     7     6    1
    44    92    93    1
    45    37    39   ar
    46    37    36   ar
    47    39    40   ar
    48    31    32    1
    49     6     3   am
    50    96    93    1
    51    96    97    1
    52    98    97   ar
    53    98   100   ar
    54    32    33    1
    55    32    35    1
    56     4     3    2
    57    93    94    1
    58     3     2    1
    59    97    99   ar
    60    33    34    2
    61    36    35    1
    62    36    38   ar
    63   100   101   ar
    64    40    42   ar
    65    40    38   ar
    66     1     2    1
    67    42    44   ar
    68    59    60    1
    69     5     2    1
    70    99   101   ar
    71    99   102   ar
    72    38    41   ar
    73   101   103   ar
    74    24    25    1
    75    24    21    1
    76    26    25   ar
    77    26    28   ar
    78    94    95    2
    79    94   106   am
    80    25    27   ar
    81    28    30   ar
    82   102   104   ar
    83    27    29   ar
    84    60    61    1
    85    60    63    1
    86    30    29   ar
    87    22    23    2
    88    22    21    1
    89   106   107    1
    90   103   105   ar
    91    65    63    1
    92    44    43   ar
    93    21    20    1
    94    41    43   ar
    95   104   105   ar
    96    61    62    2
    97    63    64    1
    98   118   117    1
    99    20    14   am
   100   107   110    1
   101   107   108    1
   102    73    71    1
   103   109   108    2
   104   108   111   am
   105    14    15    2
   106    14    13    1
   107    71    72    1
   108    71    70    1
   109   117   116    1
   110    66    67    1
   111   111   112    1
   112   115   116    1
   113   115   112    1
   114    67    70    1
   115    67    68    1
   116    16    13    1
   117    16    17    1
   118    19    17    1
   119    13    12    1
   120   112   113    1
   121    17    18    1
   122    69    68    2
   123    68    74   am
   124   113   114    2
   125   113   119   am
   126    74    75    1
   127   119   120    1
   128   126   124   am
   129    75    76    1
   130    75    78    1
   131    76    77    2
   132   124   125    2
   133   124   123    1
   134   122   121    2
   135   120   123    1
   136   120   121    1
   137    79    78    1
   138    78    80    1
