@<TRIPOS>MOLECULE
tmp/5wi5B00.pdb
 111 106 0 0 0
SMALL
GASTEIGER

@<TRIPOS>ATOM
      1  N         24.0500  -27.6620   29.5550 N.3    92  VAL92      -0.1231
      2  CA        25.4100  -27.1470   29.6750 C.3    92  VAL92       0.1692
      3  C         25.5290  -25.7100   29.1690 C.2    92  VAL92       0.2593
      4  O         26.2700  -24.9090   29.7480 O.2    92  VAL92      -0.2718
      5  CB        26.4180  -28.0300   28.9250 C.3    92  VAL92       0.0266
      6  CG1       27.8360  -27.4870   29.0610 C.3    92  VAL92       0.0020
      7  CG2       26.3470  -29.4670   29.4400 C.3    92  VAL92       0.0020
      8  N         24.8030  -25.3800   28.0910 N.am   93  SER93      -0.1938
      9  CA        24.8200  -24.0280   27.5480 C.3    93  SER93       0.2055
     10  C         24.2260  -22.9870   28.5220 C.2    93  SER93       0.2643
     11  O         24.5440  -21.8310   28.4150 O.2    93  SER93      -0.2714
     12  CB        24.1090  -23.9630   26.2160 C.3    93  SER93       0.2130
     13  OG        22.7280  -24.2180   26.3550 O.3    93  SER93      -0.2179
     14  N         23.4040  -23.4110   29.4710 N.am   94  LYS94      -0.1963
     15  CA        22.8340  -22.4840   30.4690 C.3    94  LYS94       0.1728
     16  C         23.6030  -22.5010   31.7950 C.2    94  LYS94       0.2616
     17  O         23.4570  -21.6090   32.6280 O.2    94  LYS94      -0.2715
     18  CB        21.3760  -22.8220   30.7560 C.3    94  LYS94       0.0311
     19  CG        20.4170  -22.6580   29.5990 C.3    94  LYS94       0.0038
     20  CD        19.1180  -23.4230   29.9290 C.3    94  LYS94       0.0206
     21  CE        18.5640  -23.0470   31.3100 C.3    94  LYS94       0.1093
     22  NZ        17.5170  -23.9840   31.8060 N.3    94  LYS94      -0.1314
     23  N         24.4440  -23.5110   31.9760 N.am   95  MET95      -0.1963
     24  CA        25.2080  -23.6470   33.2110 C.3    95  MET95       0.1736
     25  C         26.3800  -24.5780   32.9910 C.2    95  MET95       0.2616
     26  O         26.2470  -25.7970   33.1240 O.2    95  MET95      -0.2715
     27  CB        24.2830  -24.1610   34.3260 C.3    95  MET95       0.0427
     28  CG        24.9580  -24.2540   35.6760 C.3    95  MET95       0.0599
     29  SD        23.8290  -24.8760   36.9420 S.3    95  MET95      -0.1393
     30  CE        23.9980  -26.6290   36.6890 C.3    95  MET95       0.0692
     31  N         27.5320  -24.0150   32.6900 N.am   96  ARG96      -0.1963
     32  CA        28.7230  -24.8370   32.3850 C.3    96  ARG96       0.1729
     33  C         29.1540  -25.7300   33.5440 C.2    96  ARG96       0.2616
     34  O         29.8690  -26.6890   33.3320 O.2    96  ARG96      -0.2715
     35  CB        29.8840  -23.9830   31.9120 C.3    96  ARG96       0.0348
     36  CG        30.4050  -23.0470   32.9670 C.3    96  ARG96       0.0492
     37  CD        31.2390  -21.9330   32.3600 C.3    96  ARG96       0.2205
     38  NE        32.3470  -22.3470   31.5000 N.pl3  96  ARG96      -0.0865
     39  CZ        32.4290  -22.0700   30.1940 C.cat  96  ARG96       0.5346
     40  NH1       31.4340  -21.4430   29.5600 N.pl3  96  ARG96       0.1354
     41  NH2       33.4740  -22.4320   29.4700 N.pl3  96  ARG96       0.1354
     42  N         28.6910  -25.4420   34.7600 N.am   97  ALA97      -0.1977
     43  CA        28.9780  -26.3090   35.9150 C.3    97  ALA97       0.1597
     44  C         28.3550  -27.7000   35.7510 C.2    97  ALA97       0.2287
     45  O         28.7110  -28.6240   36.4650 O.2    97  ALA97      -0.2864
     46  CB        28.5040  -25.6700   37.1890 C.3    97  ALA97       0.0319
     47  N         31.3690  -20.0730   25.4980 N.3   119  GLY119     -0.1210
     48  CA        31.7760  -18.8250   26.1470 C.3   119  GLY119      0.1956
     49  C         30.9750  -18.4640   27.3780 C.2   119  GLY119      0.2612
     50  O         29.7980  -18.7850   27.5170 O.2   119  GLY119     -0.2717
     51  N         31.6630  -17.7820   28.2780 N.am  120  CYS120     -0.1956
     52  CA        31.0720  -17.2420   29.5020 C.3   120  CYS120      0.1843
     53  C         31.6650  -15.8370   29.6520 C.2   120  CYS120      0.2626
     54  O         32.8550  -15.6580   29.4330 O.2   120  CYS120     -0.2714
     55  CB        31.3990  -18.1430   30.6880 C.3   120  CYS120      0.0997
     56  SG        30.8840  -17.5630   32.3060 S.3   120  CYS120     -0.0797
     57  N         30.8300  -14.8650   29.9920 N.am  121  THR121     -0.1936
     58  CA        31.2310  -13.4440   30.1060 C.3   121  THR121      0.2028
     59  C         32.2710  -13.1200   31.1640 C.2   121  THR121      0.2642
     60  O         33.0290  -12.1850   30.9670 O.2   121  THR121     -0.2714
     61  CB        30.0150  -12.5230   30.3740 C.3   121  THR121      0.1808
     62  OG1       29.3660  -12.9270   31.5770 O.3   121  THR121     -0.2208
     63  CG2       29.0230  -12.5760   29.2290 C.3   121  THR121      0.0379
     64  N         32.3440  -13.8850   32.2610 N.am  122  ILE122     -0.1977
     65  CA        33.3720  -13.5560   33.2920 C.3   122  ILE122      0.1596
     66  C         34.7950  -13.9460   32.9300 C.2   122  ILE122      0.2287
     67  O         35.7280  -13.5690   33.6260 O.2   122  ILE122     -0.2864
     68  CB        33.0140  -14.0450   34.7150 C.3   122  ILE122      0.0276
     69  CG1       33.0660  -15.5720   34.8490 C.3   122  ILE122      0.0022
     70  CG2       31.6440  -13.5190   35.1160 C.3   122  ILE122      0.0022
     71  CD1       32.9470  -16.0410   36.2880 C.3   122  ILE122      0.0001
     72  N         37.0790  -19.9070   30.0960 N.3   125  ARG125     -0.1245
     73  CA        36.9530  -20.9890   31.0750 C.3   125  ARG125      0.1563
     74  C         37.1220  -22.3340   30.3820 C.2   125  ARG125      0.2260
     75  O         36.1720  -23.0910   30.2420 O.2   125  ARG125     -0.2867
     76  CB        35.6220  -20.8720   31.8150 C.3   125  ARG125      0.0307
     77  CG        35.4980  -19.6180   32.6370 C.3   125  ARG125      0.0489
     78  CD        34.1240  -19.4900   33.2820 C.3   125  ARG125      0.2205
     79  NE        33.9490  -20.3560   34.4370 N.pl3 125  ARG125     -0.0865
     80  CZ        32.9000  -20.3210   35.2400 C.cat 125  ARG125      0.5346
     81  NH1       31.8870  -19.4990   35.0010 N.pl3 125  ARG125      0.1354
     82  NH2       32.8360  -21.1220   36.3100 N.pl3 125  ARG125      0.1354
     83  N         26.4090  -10.8060   36.3580 N.3   373  ASP373     -0.1239
     84  CA        26.6490  -12.1700   36.8160 C.3   373  ASP373      0.1674
     85  C         26.1840  -12.2770   38.2690 C.2   373  ASP373      0.2266
     86  O         25.8460  -11.2800   38.8900 O.2   373  ASP373     -0.2867
     87  CB        28.1280  -12.5180   36.7100 C.3   373  ASP373      0.1410
     88  CG        29.0250  -11.5200   37.4210 C.2   373  ASP373      0.3668
     89  OD1       29.3930  -10.5060   36.7710 O.co2 373  ASP373     -0.2456
     90  OD2       29.4030  -11.7580   38.6040 O.co2 373  ASP373     -0.2456
     91  N         20.4990  -13.5010   37.0640 N.3   398  HIS398     -0.1241
     92  CA        21.8230  -13.7940   37.6100 C.3   398  HIS398      0.1621
     93  C         21.7800  -14.0090   39.1210 C.2   398  HIS398      0.2264
     94  O         22.3740  -14.9600   39.6250 O.2   398  HIS398     -0.2867
     95  CB        22.8310  -12.7000   37.2590 C.3   398  HIS398      0.0745
     96  CG        23.0350  -12.5220   35.7870 C.ar  398  HIS398      0.0817
     97  ND1       23.6070  -13.4930   34.9940 N.ar  398  HIS398     -0.2268
     98  CD2       22.7510  -11.4790   34.9660 C.ar  398  HIS398      0.1154
     99  CE1       23.6600  -13.0600   33.7450 C.ar  398  HIS398      0.1986
    100  NE2       23.1400  -11.8440   33.7000 N.ar  398  HIS398     -0.2212
    101  N         20.4730  -17.3210   40.7270 N.3   401  ARG401     -0.1245
    102  CA        21.2880  -18.5140   40.5740 C.3   401  ARG401      0.1563
    103  C         21.9700  -18.8880   41.8830 C.2   401  ARG401      0.2260
    104  O         22.2730  -20.0600   42.0830 O.2   401  ARG401     -0.2867
    105  CB        22.3500  -18.3410   39.4720 C.3   401  ARG401      0.0307
    106  CG        21.7630  -18.2080   38.0870 C.3   401  ARG401      0.0489
    107  CD        22.8330  -18.0100   37.0250 C.3   401  ARG401      0.2205
    108  NE        23.7210  -19.1550   36.9410 N.pl3 401  ARG401     -0.0865
    109  CZ        24.6650  -19.3060   36.0120 C.cat 401  ARG401      0.5346
    110  NH1       24.8580  -18.3820   35.0760 N.pl3 401  ARG401      0.1354
    111  NH2       25.4260  -20.3940   36.0160 N.pl3 401  ARG401      0.1354
@<TRIPOS>BOND
     1    47    48    1
     2    48    49    1
     3    12    13    1
     4    12     9    1
     5    49    50    2
     6    49    51   am
     7     9     8    1
     8     9    10    1
     9     8     3   am
    10    51    52    1
    11    11    10    2
    12    10    14   am
    13     5     6    1
    14     5     7    1
    15     5     2    1
    16     3     2    1
    17     3     4    2
    18    63    61    1
    19    54    53    2
    20    41    39    1
    21    14    15    1
    22    52    53    1
    23    52    55    1
    24     1     2    1
    25    40    39    1
    26    19    20    1
    27    19    18    1
    28    53    57   am
    29    20    21    1
    30    57    58    1
    31    72    73    1
    32    58    61    1
    33    58    59    1
    34    39    38    2
    35    75    74    2
    36    61    62    1
    37    74    73    1
    38    15    18    1
    39    15    16    1
    40    55    56    1
    41    60    59    2
    42    73    76    1
    43    59    64   am
    44    21    22    1
    45    38    37    1
    46    16    23   am
    47    16    17    2
    48    76    77    1
    49    35    32    1
    50    35    36    1
    51    23    24    1
    52    64    65    1
    53    37    36    1
    54    32    31    1
    55    32    33    1
    56    77    78    1
    57    31    25   am
    58    66    65    1
    59    66    67    2
    60    25    26    2
    61    25    24    1
    62    24    27    1
    63    78    79    1
    64    65    68    1
    65    34    33    2
    66    33    42   am
    67   100    99   ar
    68   100    98   ar
    69    99    97   ar
    70    27    28    1
    71    79    80    2
    72    68    69    1
    73    68    70    1
    74    42    43    1
    75    69    71    1
    76    98    96   ar
    77    97    96   ar
    78    81    80    1
    79   110   109    1
    80    80    82    1
    81    28    29    1
    82    44    43    1
    83    44    45    2
    84    96    95    1
    85    43    46    1
    86   109   111    1
    87   109   108    2
    88    83    84    1
    89    30    29    1
    90    87    84    1
    91    87    88    1
    92    89    88   ar
    93    84    85    1
    94   108   107    1
    95   107   106    1
    96    91    92    1
    97    95    92    1
    98    88    90   ar
    99    92    93    1
   100   106   105    1
   101    85    86    2
   102    93    94    2
   103   105   102    1
   104   102   101    1
   105   102   103    1
   106   103   104    2
