@<TRIPOS>MOLECULE
tmp/5wi6A00.pdb
 171 170 0 0 0
SMALL
GASTEIGER

@<TRIPOS>ATOM
      1  N         15.8510   24.9870  -30.0700 N.3    28  PHE28      -0.1227
      2  CA        15.8840   23.8750  -29.1460 C.3    28  PHE28       0.1736
      3  C         14.7690   23.9780  -28.0870 C.2    28  PHE28       0.2595
      4  O         14.3590   22.9650  -27.5440 O.2    28  PHE28      -0.2718
      5  CB        17.2760   23.7310  -28.5210 C.3    28  PHE28       0.0547
      6  CG        17.6710   24.7900  -27.5230 C.ar   28  PHE28      -0.0202
      7  CD1       18.2320   25.9840  -27.9430 C.ar   28  PHE28      -0.0042
      8  CD2       17.5080   24.5810  -26.1540 C.ar   28  PHE28      -0.0042
      9  CE1       18.6020   26.9620  -27.0200 C.ar   28  PHE28      -0.0003
     10  CE2       17.8790   25.5680  -25.2330 C.ar   28  PHE28      -0.0003
     11  CZ        18.4170   26.7560  -25.6750 C.ar   28  PHE28      -0.0000
     12  N         14.2790   25.1830  -27.8010 N.am   29  CYS29      -0.1970
     13  CA        13.2710   25.4380  -26.7760 C.3    29  CYS29       0.1712
     14  C         12.4010   26.6040  -27.1520 C.2    29  CYS29       0.2296
     15  O         12.8020   27.4590  -27.9400 O.2    29  CYS29      -0.2864
     16  CB        13.9290   25.6810  -25.4090 C.3    29  CYS29       0.0983
     17  SG        14.2200   24.1710  -24.4430 S.3    29  CYS29      -0.0798
     18  N         15.1700   23.1700  -17.6430 N.3    44  HIS44      -0.1226
     19  CA        15.8250   21.9970  -18.2460 C.3    44  HIS44       0.1752
     20  C         16.3820   22.2880  -19.6360 C.2    44  HIS44       0.2596
     21  O         17.1630   21.4990  -20.1710 O.2    44  HIS44      -0.2718
     22  CB        14.9190   20.7430  -18.2180 C.3    44  HIS44       0.0759
     23  CG        13.9150   20.6710  -19.3240 C.ar   44  HIS44       0.0818
     24  ND1       12.6190   21.1040  -19.1400 N.ar   44  HIS44      -0.2268
     25  CD2       14.0540   20.2130  -20.5880 C.ar   44  HIS44       0.1154
     26  CE1       12.0240   20.9390  -20.3040 C.ar   44  HIS44       0.1986
     27  NE2       12.8530   20.3990  -21.2100 N.ar   44  HIS44      -0.2212
     28  N         15.9970   23.4350  -20.1990 N.am   45  CYS45      -0.1970
     29  CA        16.4290   23.9630  -21.4990 C.3    45  CYS45       0.1712
     30  C         17.8450   24.4710  -21.3980 C.2    45  CYS45       0.2296
     31  O         18.6350   24.2840  -22.3150 O.2    45  CYS45      -0.2864
     32  CB        15.5060   25.1000  -21.9120 C.3    45  CYS45       0.0983
     33  SG        13.8750   24.5700  -22.4550 S.3    45  CYS45      -0.0798
     34  N         13.8170   18.0430  -14.2420 N.3    86  ALA86      -0.1231
     35  CA        12.4590   18.4890  -14.5910 C.3    86  ALA86       0.1694
     36  C         11.3320   17.8510  -13.7580 C.2    86  ALA86       0.2591
     37  O         10.4540   18.5680  -13.2590 O.2    86  ALA86      -0.2718
     38  CB        12.2110   18.2780  -16.0770 C.3    86  ALA86       0.0304
     39  N         11.3770   16.5150  -13.5900 N.am   87  GLN87      -0.1979
     40  CA        10.3700   15.7360  -12.8630 C.3    87  GLN87       0.1601
     41  C         10.3110   16.0390  -11.3940 C.2    87  GLN87       0.2287
     42  O          9.2820   15.7830  -10.7670 O.2    87  GLN87      -0.2864
     43  CB        10.6010   14.2200  -13.0310 C.3    87  GLN87       0.0394
     44  CG        10.4100   13.7040  -14.4490 C.3    87  GLN87       0.0908
     45  CD        11.6930   13.5990  -15.2520 C.2    87  GLN87       0.2608
     46  OE1       12.6070   14.4400  -15.1780 O.2    87  GLN87      -0.2717
     47  NE2       11.7890   12.5390  -16.0370 N.am   87  GLN87      -0.0878
     48  N         -1.2470   17.3250  -27.3130 N.3   188  ASP188     -0.1225
     49  CA        -0.1130   17.4550  -26.3890 C.3   188  ASP188      0.1805
     50  C          1.0230   18.3250  -26.9490 C.2   188  ASP188      0.2598
     51  O          1.0710   18.6250  -28.1330 O.2   188  ASP188     -0.2718
     52  CB         0.4380   16.0600  -25.9640 C.3   188  ASP188      0.1424
     53  CG         0.9090   15.9310  -24.4960 C.2   188  ASP188      0.3668
     54  OD1        0.7930   16.9260  -23.7310 O.co2 188  ASP188     -0.2456
     55  OD2        1.3570   14.8260  -24.1060 O.co2 188  ASP188     -0.2456
     56  N          1.9350   18.7240  -26.0770 N.am  189  SER189     -0.1938
     57  CA         3.1730   19.4010  -26.4290 C.3   189  SER189      0.2055
     58  C          4.2130   18.2590  -26.5840 C.2   189  SER189      0.2643
     59  O          3.9300   17.1080  -26.2280 O.2   189  SER189     -0.2714
     60  CB         3.5790   20.4040  -25.3470 C.3   189  SER189      0.2130
     61  OG         3.5040   19.8770  -24.0310 O.3   189  SER189     -0.2179
     62  N          5.3740   18.5470  -27.1600 N.am  190  CYS190     -0.1953
     63  CA         6.3890   17.5190  -27.3850 C.3   190  CYS190      0.1843
     64  C          7.8030   18.0890  -27.1390 C.2   190  CYS190      0.2625
     65  O          7.9180   19.1770  -26.5700 O.2   190  CYS190     -0.2714
     66  CB         6.2270   16.9520  -28.7970 C.3   190  CYS190      0.0997
     67  SG         6.6920   15.2020  -28.9800 S.3   190  CYS190     -0.0797
     68  N          8.8690   17.3540  -27.5310 N.am  191  GLN191     -0.1963
     69  CA        10.2590   17.8070  -27.4100 C.3   191  GLN191      0.1733
     70  C         10.4470   19.0270  -28.3170 C.2   191  GLN191      0.2616
     71  O          9.9350   19.0420  -29.4350 O.2   191  GLN191     -0.2715
     72  CB        11.2300   16.6720  -27.8020 C.3   191  GLN191      0.0408
     73  CG        11.7700   15.8460  -26.6200 C.3   191  GLN191      0.0908
     74  CD        10.7290   14.9970  -25.9240 C.2   191  GLN191      0.2608
     75  OE1       10.2870   15.3010  -24.8140 O.2   191  GLN191     -0.2717
     76  NE2       10.3350   13.8920  -26.5390 N.am  191  GLN191     -0.0878
     77  N         11.1040   20.0560  -27.8040 N.am  192  GLY192     -0.1955
     78  CA        11.3120   21.2950  -28.5430 C.3   192  GLY192      0.1869
     79  C         10.2360   22.3260  -28.2620 C.2   192  GLY192      0.2309
     80  O         10.3200   23.4590  -28.7490 O.2   192  GLY192     -0.2863
     81  N          9.3200   22.7110  -24.9440 N.3   194  SER194     -0.1217
     82  CA         9.6950   23.0930  -23.5710 C.3   194  SER194      0.1889
     83  C          9.9700   24.5560  -23.4180 C.2   194  SER194      0.2288
     84  O         10.5920   25.1450  -24.2880 O.2   194  SER194     -0.2866
     85  CB        10.9330   22.3460  -23.1360 C.3   194  SER194      0.2089
     86  OG        10.6330   20.9680  -23.1170 O.3   194  SER194     -0.2183
     87  N          5.7760   24.5360  -20.5240 N.3   212  VAL212     -0.1231
     88  CA         5.9900   23.1280  -20.9610 C.3   212  VAL212      0.1692
     89  C          7.2140   22.5740  -20.2400 C.2   212  VAL212      0.2593
     90  O          8.2890   23.1510  -20.3550 O.2   212  VAL212     -0.2718
     91  CB         6.1280   22.9580  -22.4930 C.3   212  VAL212      0.0266
     92  CG1        6.3220   21.4860  -22.8670 C.3   212  VAL212      0.0020
     93  CG2        4.9400   23.5590  -23.2340 C.3   212  VAL212      0.0020
     94  N          7.0360   21.4840  -19.4750 N.am  213  SER213     -0.1938
     95  CA         8.0920   20.9260  -18.6420 C.3   213  SER213      0.2055
     96  C          8.4650   19.4720  -18.9880 C.2   213  SER213      0.2643
     97  O          9.5670   19.2270  -19.4650 O.2   213  SER213     -0.2714
     98  CB         7.7200   21.0860  -17.1690 C.3   213  SER213      0.2130
     99  OG         8.6790   20.5610  -16.2700 O.3   213  SER213     -0.2179
    100  N          7.5690   18.5140  -18.7550 N.am  214  TRP214     -0.1959
    101  CA         7.8730   17.1100  -18.9790 C.3   214  TRP214      0.1771
    102  C          6.6360   16.2390  -19.1830 C.2   214  TRP214      0.2620
    103  O          5.5140   16.7370  -19.1120 O.2   214  TRP214     -0.2715
    104  CB         8.7640   16.5820  -17.8390 C.3   214  TRP214      0.0590
    105  CG         8.0890   16.4940  -16.4990 C.ar  214  TRP214      0.0006
    106  CD1        7.9380   17.4960  -15.5870 C.ar  214  TRP214      0.0946
    107  CD2        7.5210   15.3200  -15.9030 C.ar  214  TRP214      0.0152
    108  NE1        7.2960   17.0280  -14.4670 N.ar  214  TRP214     -0.2442
    109  CE2        7.0110   15.6980  -14.6390 C.ar  214  TRP214      0.0810
    110  CE3        7.3950   13.9740  -16.3150 C.ar  214  TRP214      0.0012
    111  CZ2        6.3810   14.7840  -13.7840 C.ar  214  TRP214      0.0191
    112  CZ3        6.7910   13.0690  -15.4590 C.ar  214  TRP214      0.0001
    113  CH2        6.2920   13.4740  -14.2110 C.ar  214  TRP214      0.0015
    114  N          6.8750   14.9570  -19.4500 N.am  215  GLY215     -0.1940
    115  CA         5.8860   13.9100  -19.6610 C.3   215  GLY215      0.2014
    116  C          6.5610   12.6110  -20.0620 C.2   215  GLY215      0.2639
    117  O          7.7530   12.6120  -20.3630 O.2   215  GLY215     -0.2714
    118  N          5.8300   11.4820  -20.0320 N.am  216  GLU216     -0.1963
    119  CA         6.3470   10.1830  -20.5020 C.3   216  GLU216      0.1733
    120  C          5.8590   10.1120  -21.9530 C.2   216  GLU216      0.2617
    121  O          4.6490   10.0050  -22.1910 O.2   216  GLU216     -0.2715
    122  CB         5.8170    8.9890  -19.6730 C.3   216  GLU216      0.0429
    123  CG         6.1860    9.0050  -18.1970 C.3   216  GLU216      0.1163
    124  CD         7.6390    8.7310  -17.8420 C.2   216  GLU216      0.3649
    125  OE1        8.0320    7.5410  -17.8190 O.co2 216  GLU216     -0.2457
    126  OE2        8.3660    9.7010  -17.5250 O.co2 216  GLU216     -0.2457
    127  N          6.7740   10.3150  -22.8990 N.am  217  GLY217     -0.1940
    128  CA         6.4360   10.3500  -24.3180 C.3   217  GLY217      0.2014
    129  C          5.5370   11.5200  -24.6840 C.2   217  GLY217      0.2639
    130  O          5.3500   12.4370  -23.8750 O.2   217  GLY217     -0.2714
    131  N          4.9800   11.5040  -25.9040 N.am  218  CYS218     -0.1967
    132  CA         4.0800   12.5500  -26.3960 C.3   218  CYS218      0.1712
    133  C          2.7520   11.9190  -26.7230 C.2   218  CYS218      0.2296
    134  O          2.7000   10.9480  -27.4870 O.2   218  CYS218     -0.2864
    135  CB         4.6640   13.2860  -27.6060 C.3   218  CYS218      0.0983
    136  SG         6.1750   14.2340  -27.2480 S.3   218  CYS218     -0.0798
    137  N         -0.7340    9.5190  -19.5530 N.3   223  ARG223     -0.1245
    138  CA         0.4810   10.2950  -19.3890 C.3   223  ARG223      0.1563
    139  C          0.2510   11.7110  -19.9690 C.2   223  ARG223      0.2260
    140  O          0.8580   12.0600  -20.9910 O.2   223  ARG223     -0.2867
    141  CB         1.6940    9.5960  -20.0740 C.3   223  ARG223      0.0307
    142  CG         2.0440    8.1970  -19.5530 C.3   223  ARG223      0.0489
    143  CD         2.4060    8.1720  -18.0860 C.3   223  ARG223      0.2205
    144  NE         2.8440    6.8460  -17.6630 N.pl3 223  ARG223     -0.0865
    145  CZ         2.1100    5.9930  -16.9500 C.cat 223  ARG223      0.5346
    146  NH1        0.8760    6.3110  -16.5890 N.pl3 223  ARG223      0.1354
    147  NH2        2.6070    4.8130  -16.5950 N.pl3 223  ARG223      0.1354
    148  N          0.6140   15.8500  -20.3700 N.3   225  GLY225     -0.1210
    149  CA         1.7550   16.7320  -20.2470 C.3   225  GLY225      0.1956
    150  C          1.7600   17.4570  -18.9220 C.2   225  GLY225      0.2612
    151  O          0.7070   17.8880  -18.4400 O.2   225  GLY225     -0.2717
    152  N          2.9560   17.5720  -18.3170 N.am  226  ILE226     -0.1965
    153  CA         3.1770   18.2850  -17.0630 C.3   226  ILE226      0.1727
    154  C          3.8050   19.6420  -17.3740 C.2   226  ILE226      0.2616
    155  O          4.7890   19.7470  -18.1190 O.2   226  ILE226     -0.2715
    156  CB         4.0480   17.4920  -16.0730 C.3   226  ILE226      0.0290
    157  CG1        3.6020   16.0040  -15.9130 C.3   226  ILE226      0.0022
    158  CG2        4.1290   18.2100  -14.7640 C.3   226  ILE226      0.0023
    159  CD1        2.2540   15.7590  -15.5000 C.3   226  ILE226      0.0001
    160  N          3.2180   20.6780  -16.8010 N.am  227  TYR227     -0.1974
    161  CA         3.6580   22.0580  -16.9500 C.3   227  TYR227      0.1639
    162  C          4.0320   22.5900  -15.5930 C.2   227  TYR227      0.2290
    163  O          3.4690   22.1500  -14.5890 O.2   227  TYR227     -0.2864
    164  CB         2.5120   22.9080  -17.5400 C.3   227  TYR227      0.0560
    165  CG         2.0570   22.4430  -18.9090 C.ar  227  TYR227     -0.0198
    166  CD1        1.2890   21.2870  -19.0550 C.ar  227  TYR227     -0.0009
    167  CD2        2.4290   23.1330  -20.0630 C.ar  227  TYR227     -0.0009
    168  CE1        0.9490   20.8000  -20.3120 C.ar  227  TYR227      0.0417
    169  CE2        2.0630   22.6760  -21.3270 C.ar  227  TYR227      0.0417
    170  CZ         1.3230   21.5050  -21.4480 C.ar  227  TYR227      0.1957
    171  OH         0.9400   21.0450  -22.6860 O.3   227  TYR227     -0.2866
@<TRIPOS>BOND
     1     1     2    1
     2    71    70    2
     3     2     5    1
     4     2     3    1
     5    67    66    1
     6    67   136    1
     7    66    63    1
     8    80    79    2
     9    78    79    1
    10    78    77    1
    11     5     6    1
    12    70    77   am
    13    70    69    1
    14    51    50    2
    15     3    12   am
    16     3     4    2
    17     7     6   ar
    18     7     9   ar
    19    15    14    2
    20    72    69    1
    21    72    73    1
    22    12    13    1
    23   135   136    1
    24   135   132    1
    25    68    69    1
    26    68    64   am
    27     6     8   ar
    28   134   133    2
    29    63    62    1
    30    63    64    1
    31    48    49    1
    32    62    58   am
    33    14    13    1
    34    64    65    2
    35     9    11   ar
    36    50    49    1
    37    50    56   am
    38    13    16    1
    39   133   132    1
    40    73    74    1
    41    58    57    1
    42    58    59    2
    43    76    74   am
    44    57    56    1
    45    57    60    1
    46   132   131    1
    47    49    52    1
    48     8    10   ar
    49    52    53    1
    50    74    75    2
    51   131   129   am
    52    11    10   ar
    53    16    17    1
    54    60    61    1
    55    81    82    1
    56   129   128    1
    57   129   130    2
    58    53    55   ar
    59    53    54   ar
    60    17    33    1
    61   128   127    1
    62    84    83    2
    63    82    83    1
    64    82    85    1
    65    93    91    1
    66    85    86    1
    67   127   120   am
    68    92    91    1
    69   171   170    1
    70    91    88    1
    71    33    32    1
    72    31    30    2
    73   121   120    2
    74   120   119    1
    75    32    29    1
    76    29    30    1
    77    29    28    1
    78   170   169   ar
    79   170   168   ar
    80   169   167   ar
    81    27    25   ar
    82    27    26   ar
    83   140   139    2
    84    88    87    1
    85    88    89    1
    86    25    23   ar
    87   119   118    1
    88   119   122    1
    89   148   149    1
    90   117   116    2
    91    90    89    2
    92   168   166   ar
    93    26    24   ar
    94   149   150    1
    95    89    94   am
    96    28    20   am
    97    21    20    2
    98   141   142    1
    99   141   138    1
   100   167   165   ar
   101   116   118   am
   102   116   115    1
   103   139   138    1
   104   122   123    1
   105   115   114    1
   106    20    19    1
   107   137   138    1
   108   142   143    1
   109    94    95    1
   110    97    96    2
   111   114   102   am
   112    23    24   ar
   113    23    22    1
   114   102   103    2
   115   102   101    1
   116   166   165   ar
   117    96   100   am
   118    96    95    1
   119   101   100    1
   120   101   104    1
   121   150   151    2
   122   150   152   am
   123   165   164    1
   124    95    98    1
   125   152   153    1
   126    19    22    1
   127    19    18    1
   128   123   124    1
   129   155   154    2
   130   143   144    1
   131   124   125   ar
   132   124   126   ar
   133   104   105    1
   134   144   145    2
   135   164   161    1
   136   154   153    1
   137   154   160   am
   138    98    99    1
   139   153   156    1
   140   145   147    1
   141   145   146    1
   142   161   160    1
   143   161   162    1
   144   105   107   ar
   145   105   106   ar
   146   110   107   ar
   147   110   112   ar
   148    38    35    1
   149   156   157    1
   150   156   158    1
   151    47    45   am
   152   157   159    1
   153   107   109   ar
   154   162   163    2
   155   106   108   ar
   156   112   113   ar
   157    45    46    2
   158    45    44    1
   159   109   108   ar
   160   109   111   ar
   161    35    34    1
   162    35    36    1
   163    44    43    1
   164   113   111   ar
   165    36    39   am
   166    36    37    2
   167    39    40    1
   168    43    40    1
   169    40    41    1
   170    41    42    2
