@<TRIPOS>MOLECULE
tmp/5wi7B00.pdb
 153 150 0 0 0
SMALL
GASTEIGER

@<TRIPOS>ATOM
      1  N        -24.2860   69.4480   19.5510 N.3    43  ALA43      -0.1231
      2  CA       -25.6640   69.8770   19.6650 C.3    43  ALA43       0.1694
      3  C        -26.4770   69.1730   18.5800 C.2    43  ALA43       0.2592
      4  O        -26.2500   67.9800   18.3380 O.2    43  ALA43      -0.2718
      5  CB       -25.7620   71.3890   19.6080 C.3    43  ALA43       0.0304
      6  N        -27.4110   69.8750   17.9280 N.am   44  SER44      -0.1952
      7  CA       -28.3090   69.2420   16.9460 C.3    44  SER44       0.1924
      8  C        -27.6100   68.5280   15.7890 C.2    44  SER44       0.2314
      9  O        -28.2170   67.6730   15.1580 O.2    44  SER44      -0.2863
     10  CB       -29.3170   70.2490   16.3780 C.3    44  SER44       0.2116
     11  OG       -30.1860   70.7450   17.3820 O.3    44  SER44      -0.2180
     12  N        -40.3800   73.2190   23.4770 N.3    69  LEU69      -0.1231
     13  CA       -39.4990   74.3820   23.4980 C.3    69  LEU69       0.1693
     14  C        -39.8360   75.3760   22.3790 C.2    69  LEU69       0.2592
     15  O        -39.7440   76.5950   22.5710 O.2    69  LEU69      -0.2718
     16  CB       -38.0420   73.9150   23.4010 C.3    69  LEU69       0.0284
     17  CG       -36.9220   74.8130   23.9210 C.3    69  LEU69       0.0019
     18  CD1      -37.1350   75.1600   25.3900 C.3    69  LEU69       0.0001
     19  CD2      -35.5850   74.1110   23.7140 C.3    69  LEU69       0.0001
     20  N        -40.2350   74.8470   21.2220 N.am   70  PHE70      -0.1976
     21  CA       -40.6510   75.6610   20.0740 C.3    70  PHE70       0.1639
     22  C        -41.9910   75.1790   19.5080 C.2    70  PHE70       0.2290
     23  O        -42.2690   73.9760   19.5100 O.2    70  PHE70      -0.2864
     24  CB       -39.5840   75.6430   18.9830 C.3    70  PHE70       0.0560
     25  CG       -38.2660   76.1790   19.4430 C.ar   70  PHE70      -0.0200
     26  CD1      -38.0590   77.5430   19.5410 C.ar   70  PHE70      -0.0042
     27  CD2      -37.2430   75.3210   19.8130 C.ar   70  PHE70      -0.0042
     28  CE1      -36.8470   78.0460   19.9860 C.ar   70  PHE70      -0.0003
     29  CE2      -36.0330   75.8150   20.2620 C.ar   70  PHE70      -0.0003
     30  CZ       -35.8350   77.1810   20.3510 C.ar   70  PHE70      -0.0000
     31  N        -43.0640   75.1690   16.4150 N.3    72  ALA72      -0.1231
     32  CA       -42.8720   74.3530   15.2230 C.3    72  ALA72       0.1694
     33  C        -42.6970   72.8540   15.5140 C.2    72  ALA72       0.2592
     34  O        -42.9510   72.0410   14.6430 O.2    72  ALA72      -0.2718
     35  CB       -41.6910   74.8710   14.4170 C.3    72  ALA72       0.0304
     36  N        -42.3050   72.4930   16.7360 N.am   73  TRP73      -0.1976
     37  CA       -42.1100   71.0790   17.1020 C.3    73  TRP73       0.1640
     38  C        -43.3730   70.3710   17.5930 C.2    73  TRP73       0.2290
     39  O        -43.3510   69.1610   17.7880 O.2    73  TRP73      -0.2864
     40  CB       -41.0560   70.9400   18.2050 C.3    73  TRP73       0.0576
     41  CG       -39.6760   71.4140   17.8500 C.ar   73  TRP73       0.0006
     42  CD1      -39.2250   71.8220   16.6340 C.ar   73  TRP73       0.0946
     43  CD2      -38.5600   71.4890   18.7420 C.ar   73  TRP73       0.0152
     44  NE1      -37.8870   72.1600   16.7150 N.ar   73  TRP73      -0.2442
     45  CE2      -37.4610   71.9730   18.0020 C.ar   73  TRP73       0.0810
     46  CE3      -38.3880   71.2100   20.1040 C.ar   73  TRP73       0.0012
     47  CZ2      -36.1980   72.1710   18.5720 C.ar   73  TRP73       0.0191
     48  CZ3      -37.1370   71.4080   20.6680 C.ar   73  TRP73       0.0001
     49  CH2      -36.0570   71.8830   19.9000 C.ar   73  TRP73       0.0015
     50  N        -36.2880   70.2730   11.2720 N.3    85  LEU85      -0.1231
     51  CA       -36.6700   71.1580   12.3680 C.3    85  LEU85       0.1693
     52  C        -35.7500   71.0740   13.5860 C.2    85  LEU85       0.2592
     53  O        -35.8760   71.8780   14.4950 O.2    85  LEU85      -0.2718
     54  CB       -38.0920   70.8520   12.8210 C.3    85  LEU85       0.0284
     55  CG       -39.1870   71.0810   11.7790 C.3    85  LEU85       0.0019
     56  CD1      -40.5240   70.6430   12.3400 C.3    85  LEU85       0.0001
     57  CD2      -39.2520   72.5420   11.3570 C.3    85  LEU85       0.0001
     58  N        -34.8340   70.1080   13.5960 N.am   86  SER86      -0.1952
     59  CA       -33.9830   69.8270   14.7660 C.3    86  SER86       0.1924
     60  C        -34.8250   69.5870   16.0190 C.2    86  SER86       0.2314
     61  O        -34.5060   70.0740   17.0990 O.2    86  SER86      -0.2863
     62  CB       -32.9440   70.9310   14.9810 C.3    86  SER86       0.2116
     63  OG       -31.9380   70.9180   13.9590 O.3    86  SER86      -0.2180
     64  N        -35.6450   68.0590   18.9530 N.3    88  VAL88      -0.1245
     65  CA       -34.8790   67.2330   19.8680 C.3    88  VAL88       0.1561
     66  C        -35.7140   66.1340   20.5850 C.2    88  VAL88       0.2260
     67  O        -35.1810   65.0700   20.8590 O.2    88  VAL88      -0.2867
     68  CB       -33.9910   68.1140   20.8040 C.3    88  VAL88       0.0252
     69  CG1      -34.7810   68.7010   21.9450 C.3    88  VAL88       0.0019
     70  CG2      -32.8210   67.3320   21.3650 C.3    88  VAL88       0.0019
     71  N        -25.8550   67.0710   23.7380 N.3   126  LEU126     -0.1245
     72  CA       -26.3160   68.4340   24.0490 C.3   126  LEU126      0.1561
     73  C        -25.4850   69.1460   25.1250 C.2   126  LEU126      0.2260
     74  O        -25.1750   70.3310   24.9900 O.2   126  LEU126     -0.2867
     75  CB       -27.7720   68.3900   24.5130 C.3   126  LEU126      0.0270
     76  CG       -28.7320   67.7780   23.4910 C.3   126  LEU126      0.0019
     77  CD1      -30.0920   67.5270   24.1310 C.3   126  LEU126      0.0001
     78  CD2      -28.8490   68.7020   22.2900 C.3   126  LEU126      0.0001
     79  N        -28.0500   72.4730   10.8050 N.3   177  THR177     -0.1203
     80  CA       -27.6760   73.4870   11.7490 C.3   177  THR177      0.1994
     81  C        -27.7070   72.9610   13.1720 C.2   177  THR177      0.2618
     82  O        -28.3120   71.9290   13.4770 O.2   177  THR177     -0.2717
     83  CB       -28.6130   74.7100   11.6800 C.3   177  THR177      0.1784
     84  OG1      -29.9760   74.2920   11.8620 O.3   177  THR177     -0.2211
     85  CG2      -28.4730   75.4360   10.3590 C.3   177  THR177      0.0376
     86  N        -27.0490   73.7080   14.0410 N.am  178  GLY178     -0.1942
     87  CA       -27.0820   73.4650   15.4660 C.3   178  GLY178      0.2014
     88  C        -26.8520   74.7460   16.2290 C.2   178  GLY178      0.2639
     89  O        -26.1470   75.6410   15.7630 O.2   178  GLY178     -0.2714
     90  N        -27.4190   74.8270   17.4320 N.am  179  TRP179     -0.1959
     91  CA       -27.1850   75.9530   18.2980 C.3   179  TRP179      0.1771
     92  C        -27.2730   75.4780   19.7370 C.2   179  TRP179      0.2620
     93  O        -28.3500   75.0880   20.1940 O.2   179  TRP179     -0.2715
     94  CB       -28.2250   77.0410   18.0370 C.3   179  TRP179      0.0590
     95  CG       -27.9580   78.3550   18.6870 C.ar  179  TRP179      0.0006
     96  CD1      -27.1220   78.6250   19.7620 C.ar  179  TRP179      0.0946
     97  CD2      -28.5860   79.5910   18.3540 C.ar  179  TRP179      0.0152
     98  NE1      -27.1790   79.9650   20.0760 N.ar  179  TRP179     -0.2442
     99  CE2      -28.0750   80.5760   19.2350 C.ar  179  TRP179      0.0810
    100  CE3      -29.5300   79.9670   17.3840 C.ar  179  TRP179      0.0012
    101  CZ2      -28.4720   81.9110   19.1710 C.ar  179  TRP179      0.0191
    102  CZ3      -29.9310   81.3130   17.3300 C.ar  179  TRP179      0.0001
    103  CH2      -29.4010   82.2580   18.2110 C.ar  179  TRP179      0.0015
    104  N        -26.1330   75.4660   20.4210 N.am  180  ALA180     -0.1963
    105  CA       -26.0900   75.2010   21.8680 C.3   180  ALA180      0.1728
    106  C        -26.3050   76.5350   22.5660 C.2   180  ALA180      0.2616
    107  O        -25.3750   77.3430   22.6840 O.2   180  ALA180     -0.2715
    108  CB       -24.7570   74.5740   22.2850 C.3   180  ALA180      0.0334
    109  N        -27.5380   76.7460   23.0280 N.am  181  MET181     -0.1977
    110  CA       -27.9850   78.0350   23.5420 C.3   181  MET181      0.1605
    111  C        -27.7290   78.2290   25.0240 C.2   181  MET181      0.2287
    112  O        -27.6640   79.3630   25.4990 O.2   181  MET181     -0.2864
    113  CB       -29.4940   78.1840   23.3390 C.3   181  MET181      0.0413
    114  CG       -29.9370   78.2630   21.8970 C.3   181  MET181      0.0598
    115  SD       -31.6910   78.6530   21.7780 S.3   181  MET181     -0.1393
    116  CE       -31.7960   79.1180   20.0500 C.3   181  MET181      0.0692
    117  N        -29.0560   87.3880   18.0500 N.3   214  MET214     -0.1231
    118  CA       -28.9500   87.0530   16.6230 C.3   214  MET214      0.1687
    119  C        -30.1420   86.2610   16.1490 C.2   214  MET214      0.2434
    120  O        -30.6360   85.4260   16.8800 O.2   214  MET214     -0.2733
    121  CB       -27.7360   86.1680   16.3350 C.3   214  MET214      0.0400
    122  CG       -26.3760   86.7900   16.5570 C.3   214  MET214      0.0596
    123  SD       -25.0950   85.5550   16.3810 S.3   214  MET214     -0.1393
    124  CE       -23.6290   86.5460   16.5620 C.3   214  MET214      0.0692
    125  N        -30.5810   86.4910   14.8980 N.am  215  PRO215     -0.2718
    126  CA       -31.4720   85.5470   14.2430 C.3   215  PRO215      0.1535
    127  C        -30.7120   84.2470   13.9220 C.2   215  PRO215      0.2598
    128  O        -29.5260   84.2810   13.6010 O.2   215  PRO215     -0.2715
    129  CB       -31.8840   86.2910   12.9640 C.3   215  PRO215      0.0310
    130  CG       -30.6980   87.1370   12.6440 C.3   215  PRO215      0.0237
    131  CD       -30.1480   87.5610   13.9830 C.3   215  PRO215      0.0939
    132  N        -31.3780   83.1020   14.0450 N.am  216  ALA216     -0.1964
    133  CA       -30.7720   81.8240   13.7090 C.3   216  ALA216      0.1728
    134  C        -30.2550   81.8160   12.2590 C.2   216  ALA216      0.2616
    135  O        -29.2610   81.1500   11.9480 O.2   216  ALA216     -0.2715
    136  CB       -31.7920   80.7050   13.9140 C.3   216  ALA216      0.0334
    137  N        -30.9580   82.5400   11.3780 N.am  217  SER217     -0.1950
    138  CA       -30.5890   82.6040    9.9620 C.3   217  SER217      0.1924
    139  C        -29.2530   83.2920    9.6560 C.2   217  SER217      0.2314
    140  O        -28.7760   83.2590    8.5110 O.2   217  SER217     -0.2863
    141  CB       -31.6850   83.3020    9.1740 C.3   217  SER217      0.2116
    142  OG       -31.9380   84.5890    9.7290 O.3   217  SER217     -0.2180
    143  N        -26.4340   82.2410   10.4240 N.3   219  ARG219     -0.1245
    144  CA       -25.4880   81.1950   10.0400 C.3   219  ARG219      0.1563
    145  C        -25.5930   80.9090    8.5460 C.2   219  ARG219      0.2260
    146  O        -24.5820   80.8720    7.8360 O.2   219  ARG219     -0.2867
    147  CB       -25.7320   79.9190   10.8340 C.3   219  ARG219      0.0307
    148  CG       -25.4170   80.0790   12.3210 C.3   219  ARG219      0.0489
    149  CD       -26.0540   78.9800   13.1310 C.3   219  ARG219      0.2205
    150  NE       -27.5190   78.9730   12.9510 N.pl3 219  ARG219     -0.0865
    151  CZ       -28.3320   78.0430   13.4510 C.cat 219  ARG219      0.5346
    152  NH1      -27.8390   77.0410   14.1550 N.pl3 219  ARG219      0.1354
    153  NH2      -29.6340   78.0950   13.2190 N.pl3 219  ARG219      0.1354
@<TRIPOS>BOND
     1   146   145    2
     2   140   139    2
     3   145   144    1
     4   141   142    1
     5   141   138    1
     6   139   138    1
     7   138   137    1
     8   144   143    1
     9   144   147    1
    10    85    83    1
    11    79    80    1
    12   147   148    1
    13    50    51    1
    14    57    55    1
    15   137   134   am
    16    83    80    1
    17    83    84    1
    18    80    81    1
    19    55    56    1
    20    55    54    1
    21   135   134    2
    22   134   133    1
    23   148   149    1
    24    51    54    1
    25    51    52    1
    26   130   129    1
    27   130   131    1
    28   150   149    1
    29   150   151    2
    30   129   126    1
    31    81    82    2
    32    81    86   am
    33   153   151    1
    34   151   152    1
    35    52    58   am
    36    52    53    2
    37    58    59    1
    38   128   127    2
    39   133   136    1
    40   133   132    1
    41   127   132   am
    42   127   126    1
    43    63    62    1
    44   131   125    1
    45    86    87    1
    46   126   125    1
    47    35    32    1
    48    34    33    2
    49    59    62    1
    50    59    60    1
    51   125   119   am
    52     9     8    2
    53    32    33    1
    54    32    31    1
    55    87    88    1
    56    33    36   am
    57    89    88    2
    58     8     7    1
    59    60    61    2
    60   119   118    1
    61   119   120    2
    62    88    90   am
    63   121   122    1
    64   121   118    1
    65    10     7    1
    66    10    11    1
    67   123   122    1
    68   123   124    1
    69   118   117    1
    70    42    44   ar
    71    42    41   ar
    72    44    45   ar
    73    36    37    1
    74     7     6    1
    75    37    38    1
    76    37    40    1
    77   102   100   ar
    78   102   103   ar
    79   100    97   ar
    80    90    91    1
    81    38    39    2
    82    41    40    1
    83    41    43   ar
    84     6     3   am
    85    45    47   ar
    86    45    43   ar
    87    94    91    1
    88    94    95    1
    89   103   101   ar
    90    91    92    1
    91     4     3    2
    92    97    95   ar
    93    97    99   ar
    94    47    49   ar
    95     3     2    1
    96    95    96   ar
    97    43    46   ar
    98    64    65    1
    99    24    25    1
   100    24    21    1
   101   101    99   ar
   102    99    98   ar
   103    25    26   ar
   104    25    27   ar
   105    22    23    2
   106    22    21    1
   107    26    28   ar
   108     1     2    1
   109     5     2    1
   110    92    93    2
   111    92   104   am
   112    96    98   ar
   113    27    29   ar
   114    65    66    1
   115    65    68    1
   116    49    48   ar
   117    28    30   ar
   118   116   115    1
   119    21    20    1
   120    46    48   ar
   121    29    30   ar
   122   104   105    1
   123    66    67    2
   124    68    70    1
   125    68    69    1
   126    20    14   am
   127   115   114    1
   128   105   108    1
   129   105   106    1
   130   114   113    1
   131    78    76    1
   132    14    15    2
   133    14    13    1
   134   106   107    2
   135   106   109   am
   136   109   110    1
   137   113   110    1
   138    16    13    1
   139    16    17    1
   140    12    13    1
   141    76    77    1
   142    76    75    1
   143   110   111    1
   144    19    17    1
   145    71    72    1
   146    17    18    1
   147    72    75    1
   148    72    73    1
   149    74    73    2
   150   111   112    2
