@<TRIPOS>MOLECULE
tmp/5wi7A00.pdb
 117 113 0 0 0
SMALL
GASTEIGER

@<TRIPOS>ATOM
      1  N         -7.1740   38.0010   -8.0280 N.3    48  ALA48      -0.1231
      2  CA        -7.6000   36.6170   -8.2060 C.3    48  ALA48       0.1694
      3  C         -8.6880   36.3240   -7.1690 C.2    48  ALA48       0.2592
      4  O         -9.5240   37.1910   -6.9350 O.2    48  ALA48      -0.2718
      5  CB        -6.4090   35.6700   -8.1190 C.3    48  ALA48       0.0304
      6  N         -8.6510   35.1540   -6.5300 N.am   49  SER49      -0.1952
      7  CA        -9.7220   34.7340   -5.6080 C.3    49  SER49       0.1924
      8  C         -9.9620   35.6690   -4.4250 C.2    49  SER49       0.2314
      9  O        -11.0640   35.6610   -3.8840 O.2    49  SER49      -0.2863
     10  CB        -9.4750   33.3170   -5.0690 C.3    49  SER49       0.2116
     11  OG        -9.5200   32.3590   -6.1180 O.3    49  SER49      -0.2180
     12  N        -13.2460   22.8590  -12.8190 N.3    79  LEU79      -0.1231
     13  CA       -11.7880   22.8990  -12.7460 C.3    79  LEU79       0.1693
     14  C        -11.2410   22.0070  -11.6190 C.2    79  LEU79       0.2592
     15  O        -10.1810   21.3980  -11.7550 O.2    79  LEU79      -0.2718
     16  CB       -11.3380   24.3480  -12.5720 C.3    79  LEU79       0.0284
     17  CG        -9.9260   24.7620  -12.9810 C.3    79  LEU79       0.0019
     18  CD1       -9.6700   24.4460  -14.4510 C.3    79  LEU79       0.0001
     19  CD2       -9.7440   26.2540  -12.7080 C.3    79  LEU79       0.0001
     20  N        -11.9720   21.9470  -10.5120 N.am   80  PHE80      -0.1976
     21  CA       -11.6160   21.1030   -9.3750 C.3    80  PHE80       0.1639
     22  C        -12.8200   20.2830   -8.9350 C.2    80  PHE80       0.2290
     23  O        -13.9580   20.7630   -8.9450 O.2    80  PHE80      -0.2864
     24  CB       -11.0940   21.9540   -8.2120 C.3    80  PHE80       0.0560
     25  CG        -9.8690   22.7370   -8.5560 C.ar   80  PHE80      -0.0200
     26  CD1       -8.6280   22.1190   -8.5840 C.ar   80  PHE80      -0.0042
     27  CD2       -9.9570   24.0740   -8.8970 C.ar   80  PHE80      -0.0042
     28  CE1       -7.4940   22.8260   -8.9330 C.ar   80  PHE80      -0.0003
     29  CE2       -8.8250   24.7920   -9.2370 C.ar   80  PHE80      -0.0003
     30  CZ        -7.5920   24.1650   -9.2650 C.ar   80  PHE80      -0.0000
     31  N        -15.3530   21.4540   -6.2320 N.3    83  TRP83      -0.1241
     32  CA       -16.3700   22.4420   -6.6180 C.3    83  TRP83       0.1605
     33  C        -17.6540   21.8390   -7.1810 C.2    83  TRP83       0.2264
     34  O        -18.6260   22.5650   -7.3910 O.2    83  TRP83      -0.2867
     35  CB       -15.8150   23.4350   -7.6510 C.3    83  TRP83       0.0550
     36  CG       -14.6530   24.2800   -7.2050 C.ar   83  TRP83       0.0003
     37  CD1      -14.1200   24.3770   -5.9390 C.ar   83  TRP83       0.0946
     38  CD2      -13.8970   25.1680   -8.0290 C.ar   83  TRP83       0.0152
     39  NE1      -13.0660   25.2650   -5.9420 N.ar   83  TRP83      -0.2442
     40  CE2      -12.9160   25.7710   -7.2090 C.ar   83  TRP83       0.0810
     41  CE3      -13.9550   25.5190   -9.3860 C.ar   83  TRP83       0.0012
     42  CZ2      -12.0050   26.7060   -7.6990 C.ar   83  TRP83       0.0191
     43  CZ3      -13.0400   26.4400   -9.8700 C.ar   83  TRP83       0.0001
     44  CH2      -12.0760   27.0200   -9.0230 C.ar   83  TRP83       0.0015
     45  N        -13.9440   27.4900   -0.4650 N.3    95  LEU95      -0.1231
     46  CA       -13.3790   26.7140   -1.5750 C.3    95  LEU95       0.1693
     47  C        -12.8540   27.5600   -2.7330 C.2    95  LEU95       0.2592
     48  O        -12.2420   27.0190   -3.6360 O.2    95  LEU95      -0.2718
     49  CB       -14.4270   25.7430   -2.1190 C.3    95  LEU95       0.0284
     50  CG       -14.9190   24.6870   -1.1370 C.3    95  LEU95       0.0019
     51  CD1      -16.0340   23.8740   -1.7730 C.3    95  LEU95       0.0001
     52  CD2      -13.7970   23.7640   -0.6840 C.3    95  LEU95       0.0001
     53  N        -13.0910   28.8740   -2.7040 N.am   96  SER96      -0.1952
     54  CA       -12.7820   29.7730   -3.8260 C.3    96  SER96       0.1924
     55  C        -13.4110   29.2580   -5.1350 C.2    96  SER96       0.2314
     56  O        -12.7720   29.2680   -6.1830 O.2    96  SER96      -0.2863
     57  CB       -11.2570   29.9820   -3.9680 C.3    96  SER96       0.2116
     58  OG       -10.7290   30.7330   -2.8770 O.3    96  SER96      -0.2180
     59  N        -14.9760   29.5160   -8.1890 N.3    98  VAL98      -0.1245
     60  CA       -15.1690   30.6300   -9.1140 C.3    98  VAL98       0.1561
     61  C        -16.4970   30.6370   -9.8650 C.2    98  VAL98       0.2260
     62  O        -17.0100   31.7210  -10.1280 O.2    98  VAL98      -0.2867
     63  CB       -14.0070   30.8030  -10.1450 C.3    98  VAL98       0.0252
     64  CG1      -12.6740   30.9520   -9.4410 C.3    98  VAL98       0.0019
     65  CG2      -13.9080   29.6700  -11.1310 C.3    98  VAL98       0.0019
     66  N         -9.7430   38.2310  -12.3660 N.3   136  LEU136     -0.1245
     67  CA        -8.8890   37.0540  -12.6470 C.3   136  LEU136      0.1561
     68  C         -7.7700   37.3430  -13.6410 C.2   136  LEU136      0.2260
     69  O         -6.6370   36.9020  -13.4470 O.2   136  LEU136     -0.2867
     70  CB        -9.7460   35.9130  -13.1790 C.3   136  LEU136      0.0270
     71  CG       -10.8600   35.4570  -12.2500 C.3   136  LEU136      0.0019
     72  CD1      -11.8330   34.5380  -12.9610 C.3   136  LEU136      0.0001
     73  CD2      -10.2410   34.7830  -11.0320 C.3   136  LEU136      0.0001
     74  N         -7.0980   32.8730    0.6060 N.3   187  THR187     -0.1203
     75  CA        -5.9890   32.6520   -0.3330 C.3   187  THR187      0.1994
     76  C         -6.3940   32.9580   -1.7690 C.2   187  THR187      0.2618
     77  O         -7.5910   33.0690   -2.1080 O.2   187  THR187     -0.2717
     78  CB        -5.4740   31.2110   -0.3020 C.3   187  THR187      0.1784
     79  OG1       -6.5460   30.3090   -0.6010 O.3   187  THR187     -0.2211
     80  CG2       -4.8730   30.8850    1.0480 C.3   187  THR187      0.0376
     81  N         -5.3690   33.1300   -2.5990 N.am  188  GLY188     -0.1942
     82  CA        -5.5500   33.3170   -4.0290 C.3   188  GLY188      0.2014
     83  C         -4.3030   32.8990   -4.7780 C.2   188  GLY188      0.2638
     84  O         -3.1950   32.9070   -4.2430 O.2   188  GLY188     -0.2714
     85  N         -4.5080   32.4570   -6.0080 N.am  189  TRP189     -0.1973
     86  CA        -3.4090   32.0280   -6.8570 C.3   189  TRP189      0.1640
     87  C         -3.8300   32.2840   -8.2900 C.2   189  TRP189      0.2290
     88  O         -4.7400   31.6380   -8.7930 O.2   189  TRP189     -0.2864
     89  CB        -3.1200   30.5470   -6.6290 C.3   189  TRP189      0.0576
     90  CG        -1.8500   30.0180   -7.2300 C.ar  189  TRP189      0.0006
     91  CD1       -1.1070   30.5620   -8.2520 C.ar  189  TRP189      0.0946
     92  CD2       -1.2010   28.7960   -6.8790 C.ar  189  TRP189      0.0152
     93  NE1       -0.0370   29.7520   -8.5410 N.ar  189  TRP189     -0.2442
     94  CE2       -0.0700   28.6620   -7.7130 C.ar  189  TRP189      0.0810
     95  CE3       -1.4660   27.7960   -5.9400 C.ar  189  TRP189      0.0012
     96  CZ2        0.7980   27.5700   -7.6270 C.ar  189  TRP189      0.0191
     97  CZ3       -0.5920   26.7110   -5.8530 C.ar  189  TRP189      0.0001
     98  CH2        0.5180   26.6090   -6.6960 C.ar  189  TRP189      0.0015
     99  N         -2.7480   31.3650  -11.5540 N.3   191  MET191     -0.1245
    100  CA        -1.9090   30.2760  -12.0550 C.3   191  MET191      0.1570
    101  C         -1.5160   30.4240  -13.5190 C.2   191  MET191      0.2261
    102  O         -0.5180   29.8420  -13.9610 O.2   191  MET191     -0.2867
    103  CB        -2.6550   28.9460  -11.9240 C.3   191  MET191      0.0387
    104  CG        -2.9230   28.5060  -10.4930 C.3   191  MET191      0.0595
    105  SD        -3.5900   26.8280  -10.4320 S.3   191  MET191     -0.1393
    106  CE        -3.3420   26.4450   -8.6970 C.3   191  MET191      0.0692
    107  N          2.0010   28.9220    1.4920 N.3   229  ARG229     -0.1245
    108  CA         1.5890   30.2630    1.8730 C.3   229  ARG229      0.1563
    109  C          1.2200   30.2810    3.3740 C.2   229  ARG229      0.2260
    110  O          1.6750   31.1480    4.1160 O.2   229  ARG229     -0.2867
    111  CB         0.4090   30.7550    1.0000 C.3   229  ARG229      0.0307
    112  CG         0.7780   30.9800   -0.4770 C.3   229  ARG229      0.0489
    113  CD        -0.4250   31.1260   -1.4040 C.3   229  ARG229      0.2205
    114  NE        -1.2130   29.9090   -1.3840 N.pl3 229  ARG229     -0.0865
    115  CZ        -2.3770   29.7450   -1.9940 C.cat 229  ARG229      0.5346
    116  NH1       -2.9300   30.7180   -2.6810 N.pl3 229  ARG229      0.1354
    117  NH2       -3.0060   28.5860   -1.8880 N.pl3 229  ARG229      0.1354
@<TRIPOS>BOND
     1    18    17    1
     2   102   101    2
     3    68    69    2
     4    68    67    1
     5   101   100    1
     6    70    67    1
     7    70    71    1
     8    17    19    1
     9    17    16    1
    10    72    71    1
    11    12    13    1
    12    13    16    1
    13    13    14    1
    14    67    66    1
    15    71    73    1
    16   100   103    1
    17   100    99    1
    18   103   104    1
    19    15    14    2
    20    14    20   am
    21    65    63    1
    22    20    21    1
    23   104   105    1
    24   105   106    1
    25    63    64    1
    26    63    60    1
    27    62    61    2
    28    43    41   ar
    29    43    44   ar
    30    61    60    1
    31    41    38   ar
    32    21    22    1
    33    21    24    1
    34    30    29   ar
    35    30    28   ar
    36    29    27   ar
    37    60    59    1
    38    44    42   ar
    39    23    22    2
    40    28    26   ar
    41    27    25   ar
    42    88    87    2
    43    26    25   ar
    44    25    24    1
    45    93    91   ar
    46    93    94   ar
    47    87    86    1
    48    91    90   ar
    49     2     5    1
    50     2     1    1
    51     2     3    1
    52    38    40   ar
    53    38    36   ar
    54    94    96   ar
    55    94    92   ar
    56    42    40   ar
    57    35    36    1
    58    35    32    1
    59    96    98   ar
    60    34    33    2
    61    90    92   ar
    62    90    89    1
    63    40    39   ar
    64    36    37   ar
    65    33    32    1
    66     3     4    2
    67     3     6   am
    68    92    95   ar
    69    86    89    1
    70    86    85    1
    71    98    97   ar
    72    32    31    1
    73     6     7    1
    74    56    55    2
    75    11    10    1
    76    85    83   am
    77    39    37   ar
    78    95    97   ar
    79     7    10    1
    80     7     8    1
    81    55    54    1
    82    83    84    2
    83    83    82    1
    84     8     9    2
    85    82    81    1
    86    57    54    1
    87    57    58    1
    88    54    53    1
    89    48    47    2
    90    47    53   am
    91    47    46    1
    92   116   115    1
    93    81    76   am
    94    49    46    1
    95    49    50    1
    96    77    76    2
    97   115   117    1
    98   115   114    2
    99    51    50    1
   100    76    75    1
   101    46    45    1
   102   113   114    1
   103   113   112    1
   104    50    52    1
   105    79    78    1
   106   112   111    1
   107    75    78    1
   108    75    74    1
   109    78    80    1
   110   111   108    1
   111   107   108    1
   112   108   109    1
   113   109   110    2
