@<TRIPOS>MOLECULE
tmp/5wi9A01.pdb
 108 106 0 0 0
SMALL
GASTEIGER

@<TRIPOS>ATOM
      1  N        187.6520  -61.2460  136.8250 N.3   221  TRP221     -0.1227
      2  CA       188.5730  -61.8860  135.9000 C.3   221  TRP221      0.1737
      3  C        188.0930  -61.6090  134.4790 C.2   221  TRP221      0.2595
      4  O        186.8950  -61.4490  134.2430 O.2   221  TRP221     -0.2718
      5  CB       188.7550  -63.3840  136.2110 C.3   221  TRP221      0.0564
      6  CG       189.8310  -63.9570  135.3800 C.ar  221  TRP221      0.0003
      7  CD1      189.7130  -64.9200  134.4390 C.ar  221  TRP221      0.0946
      8  CD2      191.1880  -63.5270  135.3480 C.ar  221  TRP221      0.0152
      9  NE1      190.9240  -65.1480  133.8340 N.ar  221  TRP221     -0.2442
     10  CE2      191.8490  -64.3020  134.3760 C.ar  221  TRP221      0.0810
     11  CE3      191.9160  -62.5680  136.0570 C.ar  221  TRP221      0.0012
     12  CZ2      193.1950  -64.1640  134.1060 C.ar  221  TRP221      0.0191
     13  CZ3      193.2590  -62.4220  135.7770 C.ar  221  TRP221      0.0001
     14  CH2      193.8850  -63.2160  134.8110 C.ar  221  TRP221      0.0015
     15  N        189.0320  -61.4790  133.5510 N.am  222  ILE222     -0.1966
     16  CA       188.7140  -61.1810  132.1780 C.3   222  ILE222      0.1727
     17  C        189.5210  -62.0810  131.2330 C.2   222  ILE222      0.2616
     18  O        190.6930  -62.3540  131.4660 O.2   222  ILE222     -0.2715
     19  CB       188.9340  -59.6760  131.9270 C.3   222  ILE222      0.0290
     20  CG1      188.2000  -59.2150  130.6730 C.3   222  ILE222      0.0022
     21  CG2      190.4210  -59.3290  131.8870 C.3   222  ILE222      0.0023
     22  CD1      187.2330  -58.0850  130.9580 C.3   222  ILE222      0.0001
     23  N        188.8710  -62.5500  130.1720 N.am  223  GLU223     -0.1964
     24  CA       189.5050  -63.3920  129.1620 C.3   223  GLU223      0.1718
     25  C        189.4470  -62.6650  127.8250 C.2   223  GLU223      0.2458
     26  O        188.5420  -61.8690  127.5790 O.2   223  GLU223     -0.2730
     27  CB       188.8060  -64.7520  129.0430 C.3   223  GLU223      0.0428
     28  CG       189.0930  -65.7330  130.1760 C.3   223  GLU223      0.1163
     29  CD       190.4850  -66.3560  130.1070 C.2   223  GLU223      0.3649
     30  OE1      190.8540  -66.8930  129.0380 O.co2 223  GLU223     -0.2457
     31  OE2      191.2160  -66.3150  131.1270 O.co2 223  GLU223     -0.2457
     32  N        190.4110  -62.9390  126.9440 N.am  224  PRO224     -0.2727
     33  CA       190.4300  -62.2880  125.6260 C.3   224  PRO224      0.1402
     34  C        189.2610  -62.6800  124.7270 C.2   224  PRO224      0.2269
     35  O        188.7640  -63.8040  124.8290 O.2   224  PRO224     -0.2865
     36  CB       191.7350  -62.7930  125.0030 C.3   224  PRO224      0.0296
     37  CG       192.5030  -63.4370  126.0960 C.3   224  PRO224      0.0237
     38  CD       191.5270  -63.8840  127.1190 C.3   224  PRO224      0.0939
     39  N        194.7260  -59.6600  124.7630 N.3   233  ILE233     -0.1245
     40  CA       195.3700  -60.0100  126.0140 C.3   233  ILE233      0.1561
     41  C        195.8880  -58.7680  126.7150 C.2   233  ILE233      0.2260
     42  O        195.7800  -58.6530  127.9320 O.2   233  ILE233     -0.2867
     43  CB       196.5180  -61.0150  125.7800 C.3   233  ILE233      0.0252
     44  CG1      195.9560  -62.4400  125.7330 C.3   233  ILE233      0.0019
     45  CG2      197.5930  -60.9160  126.8530 C.3   233  ILE233      0.0019
     46  CD1      196.6960  -63.3640  124.7960 C.3   233  ILE233      0.0001
     47  N        193.1110  -57.0420  128.2940 N.3   236  CYS236     -0.1221
     48  CA       192.7800  -57.7680  129.5180 C.3   236  CYS236      0.1808
     49  C        193.6630  -57.3420  130.6920 C.2   236  CYS236      0.2601
     50  O        193.1700  -57.0670  131.7720 O.2   236  CYS236     -0.2717
     51  CB       192.9420  -59.2740  129.3130 C.3   236  CYS236      0.0970
     52  SG       191.6740  -60.0770  128.3190 S.3   236  CYS236     -0.0800
     53  N        194.9720  -57.2940  130.4560 N.am  237  GLN237     -0.1979
     54  CA       195.9390  -56.8850  131.4750 C.3   237  GLN237      0.1601
     55  C        195.6470  -55.4900  131.9960 C.2   237  GLN237      0.2287
     56  O        195.8130  -55.2420  133.1710 O.2   237  GLN237     -0.2864
     57  CB       197.3620  -56.9270  130.9020 C.3   237  GLN237      0.0394
     58  CG       198.4600  -56.3410  131.7800 C.3   237  GLN237      0.0908
     59  CD       199.0190  -57.3070  132.8200 C.2   237  GLN237      0.2608
     60  OE1      198.7420  -58.5130  132.8120 O.2   237  GLN237     -0.2717
     61  NE2      199.8500  -56.7790  133.7040 N.am  237  GLN237     -0.0878
     62  N        192.7370  -55.6770  134.4210 N.3   240  MET240     -0.1245
     63  CA       193.1790  -56.2020  135.6920 C.3   240  MET240      0.1570
     64  C        193.9520  -55.1770  136.4790 C.2   240  MET240      0.2261
     65  O        193.7760  -55.0750  137.6860 O.2   240  MET240     -0.2867
     66  CB       194.0470  -57.4480  135.4950 C.3   240  MET240      0.0387
     67  CG       193.2950  -58.6800  135.0260 C.3   240  MET240      0.0595
     68  SD       191.7650  -58.9560  135.9410 S.3   240  MET240     -0.1393
     69  CE       192.4320  -59.3550  137.5560 C.3   240  MET240      0.0692
     70  N        192.5530  -68.6920  137.3210 N.3   315  GLU315     -0.1245
     71  CA       193.4050  -67.8220  136.5100 C.3   315  GLU315      0.1567
     72  C        193.7290  -66.5380  137.2600 C.2   315  GLU315      0.2260
     73  O        194.8290  -66.0130  137.1390 O.2   315  GLU315     -0.2867
     74  CB       192.7320  -67.4700  135.1880 C.3   315  GLU315      0.0388
     75  CG       192.2800  -68.6550  134.3570 C.3   315  GLU315      0.1160
     76  CD       193.4310  -69.5050  133.8820 C.2   315  GLU315      0.3649
     77  OE1      194.3300  -68.9510  133.1960 O.co2 315  GLU315     -0.2457
     78  OE2      193.4250  -70.7280  134.1830 O.co2 315  GLU315     -0.2457
     79  N        196.5520  -67.0690  139.6110 N.3   318  ASN318     -0.1225
     80  CA       197.8160  -67.1500  138.8850 C.3   318  ASN318      0.1785
     81  C        198.3250  -65.7850  138.5040 C.2   318  ASN318      0.2597
     82  O        199.5280  -65.5690  138.4130 O.2   318  ASN318     -0.2718
     83  CB       197.6660  -67.9880  137.6230 C.3   318  ASN318      0.1169
     84  CG       197.9480  -69.4440  137.8690 C.2   318  ASN318      0.2627
     85  OD1      199.1040  -69.8690  137.8550 O.2   318  ASN318     -0.2716
     86  ND2      196.8960  -70.2210  138.1120 N.am  318  ASN318     -0.0877
     87  N        197.3970  -64.8780  138.2510 N.am  319  TRP319     -0.1976
     88  CA       197.7340  -63.5040  137.9550 C.3   319  TRP319      0.1640
     89  C        198.3820  -62.8580  139.1710 C.2   319  TRP319      0.2290
     90  O        199.3430  -62.1120  139.0270 O.2   319  TRP319     -0.2864
     91  CB       196.4850  -62.7310  137.5380 C.3   319  TRP319      0.0576
     92  CG       196.7780  -61.4640  136.8480 C.ar  319  TRP319      0.0006
     93  CD1      197.0750  -61.3010  135.5290 C.ar  319  TRP319      0.0946
     94  CD2      196.7960  -60.1710  137.4280 C.ar  319  TRP319      0.0152
     95  NE1      197.2710  -59.9800  135.2490 N.ar  319  TRP319     -0.2442
     96  CE2      197.1110  -59.2590  136.4000 C.ar  319  TRP319      0.0810
     97  CE3      196.5700  -59.6880  138.7160 C.ar  319  TRP319      0.0012
     98  CZ2      197.2250  -57.8910  136.6200 C.ar  319  TRP319      0.0191
     99  CZ3      196.6750  -58.3200  138.9370 C.ar  319  TRP319      0.0001
    100  CH2      197.0050  -57.4380  137.8890 C.ar  319  TRP319      0.0015
    101  N        201.9490  -64.3530  139.5960 N.3   322  LEU322     -0.1245
    102  CA       202.9470  -63.8260  138.6650 C.3   322  LEU322      0.1561
    103  C        203.2850  -62.3760  138.9010 C.2   322  LEU322      0.2260
    104  O        204.4570  -62.0090  138.9020 O.2   322  LEU322     -0.2867
    105  CB       202.4840  -64.0060  137.2200 C.3   322  LEU322      0.0270
    106  CG       202.3480  -65.4560  136.7590 C.3   322  LEU322      0.0019
    107  CD1      202.1600  -65.4710  135.2540 C.3   322  LEU322      0.0001
    108  CD2      203.5450  -66.3130  137.1610 C.3   322  LEU322      0.0001
@<TRIPOS>BOND
     1    34    35    2
     2    34    33    1
     3    39    40    1
     4    46    44    1
     5    36    33    1
     6    36    37    1
     7    33    32    1
     8    44    43    1
     9    43    40    1
    10    43    45    1
    11    40    41    1
    12    37    38    1
    13    41    42    2
    14    32    38    1
    15    32    25   am
    16    26    25    2
    17    25    24    1
    18    47    48    1
    19    52    51    1
    20    30    29   ar
    21    27    24    1
    22    27    28    1
    23    24    23    1
    24    51    48    1
    25    48    49    1
    26    29    28    1
    27    29    31   ar
    28    23    17   am
    29    53    49   am
    30    53    54    1
    31    20    22    1
    32    20    19    1
    33    49    50    2
    34    57    54    1
    35    57    58    1
    36    17    18    2
    37    17    16    1
    38    54    55    1
    39    58    59    1
    40    21    19    1
    41    19    16    1
    42    55    56    2
    43    16    15    1
    44    60    59    2
    45    59    61   am
    46    77    76   ar
    47    15     3   am
    48     9    10   ar
    49     9     7   ar
    50    76    78   ar
    51    76    75    1
    52    12    10   ar
    53    12    14   ar
    54     4     3    2
    55    75    74    1
    56    10     8   ar
    57    62    63    1
    58     7     6   ar
    59     3     2    1
    60    14    13   ar
    61    67    66    1
    62    67    68    1
    63    74    71    1
    64    95    93   ar
    65    95    96   ar
    66   107   106    1
    67     8     6   ar
    68     8    11   ar
    69     6     5    1
    70    66    63    1
    71    93    92   ar
    72    63    64    1
    73    13    11   ar
    74     2     5    1
    75     2     1    1
    76    68    69    1
    77    96    98   ar
    78    96    94   ar
    79    64    65    2
    80    71    72    1
    81    71    70    1
    82    98   100   ar
    83   106   108    1
    84   106   105    1
    85    92    94   ar
    86    92    91    1
    87    73    72    2
    88   105   102    1
    89    94    97   ar
    90    91    88    1
    91    83    84    1
    92    83    80    1
    93    85    84    2
    94    84    86   am
    95   100    99   ar
    96    88    87    1
    97    88    89    1
    98    87    81   am
    99    82    81    2
   100    81    80    1
   101   102   103    1
   102   102   101    1
   103    97    99   ar
   104    80    79    1
   105   103   104    2
   106    90    89    2
