@<TRIPOS>MOLECULE
tmp/5wibA00.pdb
 122 117 0 0 0
SMALL
GASTEIGER

@<TRIPOS>ATOM
      1  N          7.4750   34.9920   36.2010 N.3    48  ALA48      -0.1231
      2  CA         7.9650   36.3550   36.1160 C.3    48  ALA48       0.1694
      3  C          9.0030   36.5340   37.2160 C.2    48  ALA48       0.2592
      4  O          9.8360   35.6490   37.4170 O.2    48  ALA48      -0.2718
      5  CB         6.8180   37.3410   36.2350 C.3    48  ALA48       0.0304
      6  N          8.9490   37.6480   37.9370 N.am   49  SER49      -0.1952
      7  CA        10.0290   38.0010   38.8730 C.3    49  SER49       0.1924
      8  C         10.1790   36.9800   39.9890 C.2    49  SER49       0.2314
      9  O         11.1900   36.9650   40.6560 O.2    49  SER49      -0.2863
     10  CB         9.7940   39.3780   39.5110 C.3    49  SER49       0.2116
     11  OG        10.0080   40.4290   38.6070 O.3    49  SER49      -0.2180
     12  N         14.0310   50.1150   32.3490 N.3    79  LEU79      -0.1231
     13  CA        12.5750   50.1820   32.3860 C.3    79  LEU79       0.1693
     14  C         12.1090   50.9820   33.5920 C.2    79  LEU79       0.2592
     15  O         11.0780   51.6390   33.5380 O.2    79  LEU79      -0.2718
     16  CB        11.9790   48.7730   32.4270 C.3    79  LEU79       0.0284
     17  CG        10.4510   48.6870   32.4460 C.3    79  LEU79       0.0019
     18  CD1        9.8370   49.5390   31.3400 C.3    79  LEU79       0.0001
     19  CD2        9.9960   47.2390   32.3290 C.3    79  LEU79       0.0001
     20  N         12.9290   51.0100   34.6360 N.am   80  PHE80      -0.1976
     21  CA        12.6670   51.8400   35.8150 C.3    80  PHE80       0.1639
     22  C         13.9090   52.6280   36.1850 C.2    80  PHE80       0.2290
     23  O         15.0070   52.0690   36.2650 O.2    80  PHE80      -0.2864
     24  CB        12.2620   50.9680   37.0150 C.3    80  PHE80       0.0560
     25  CG        10.9700   50.2460   36.8240 C.ar   80  PHE80      -0.0200
     26  CD1       10.9400   49.0130   36.2080 C.ar   80  PHE80      -0.0042
     27  CD2        9.7650   50.8710   37.1210 C.ar   80  PHE80      -0.0042
     28  CE1        9.7340   48.3710   35.9580 C.ar   80  PHE80      -0.0003
     29  CE2        8.5570   50.2410   36.8670 C.ar   80  PHE80      -0.0003
     30  CZ         8.5410   48.9970   36.2730 C.ar   80  PHE80      -0.0000
     31  N         16.2500   51.2580   38.9030 N.3    83  TRP83      -0.1241
     32  CA        17.2130   50.2410   38.4860 C.3    83  TRP83       0.1605
     33  C         18.4990   50.8420   37.9110 C.2    83  TRP83       0.2264
     34  O         19.4350   50.1010   37.5910 O.2    83  TRP83      -0.2867
     35  CB        16.6090   49.3300   37.4190 C.3    83  TRP83       0.0550
     36  CG        15.3990   48.5840   37.8140 C.ar   83  TRP83       0.0003
     37  CD1       14.8370   48.5050   39.0530 C.ar   83  TRP83       0.0946
     38  CD2       14.6280   47.7260   36.9680 C.ar   83  TRP83       0.0152
     39  NE1       13.7930   47.6050   39.0380 N.ar   83  TRP83      -0.2442
     40  CE2       13.6810   47.0750   37.7800 C.ar   83  TRP83       0.0810
     41  CE3       14.6900   47.3970   35.6140 C.ar   83  TRP83       0.0012
     42  CZ2       12.7230   46.2150   37.2540 C.ar   83  TRP83       0.0191
     43  CZ3       13.7610   46.5210   35.1020 C.ar   83  TRP83       0.0001
     44  CH2       12.8180   45.9070   35.9260 C.ar   83  TRP83       0.0015
     45  N         14.5800   45.0400   44.3340 N.3    95  LEU95      -0.1231
     46  CA        14.0330   45.9150   43.3090 C.3    95  LEU95       0.1693
     47  C         13.4450   45.1320   42.1180 C.2    95  LEU95       0.2592
     48  O         12.9260   45.7190   41.1810 O.2    95  LEU95      -0.2718
     49  CB        15.1290   46.8710   42.8320 C.3    95  LEU95       0.0284
     50  CG        15.5870   47.9510   43.8050 C.3    95  LEU95       0.0019
     51  CD1       16.8250   48.6970   43.3020 C.3    95  LEU95       0.0001
     52  CD2       14.4440   48.9100   44.0660 C.3    95  LEU95       0.0001
     53  N         13.6210   43.8160   42.1270 N.am   96  SER96      -0.1952
     54  CA        13.4160   42.9670   40.9460 C.3    96  SER96       0.1924
     55  C         13.9760   43.5920   39.6720 C.2    96  SER96       0.2314
     56  O         13.3590   43.5250   38.6150 O.2    96  SER96      -0.2863
     57  CB        11.9310   42.6360   40.7850 C.3    96  SER96       0.2116
     58  OG        11.4820   42.0020   41.9700 O.3    96  SER96      -0.2180
     59  N         15.3980   43.3250   36.5570 N.3    98  VAL98      -0.1245
     60  CA        15.5500   42.3200   35.5180 C.3    98  VAL98       0.1561
     61  C         16.9240   42.2670   34.8360 C.2    98  VAL98       0.2260
     62  O         17.4810   41.1910   34.6870 O.2    98  VAL98      -0.2867
     63  CB        14.4160   42.4610   34.4700 C.3    98  VAL98       0.0252
     64  CG1       14.6400   41.5380   33.2910 C.3    98  VAL98       0.0019
     65  CG2       13.0910   42.1570   35.1340 C.3    98  VAL98       0.0019
     66  N         10.1090   35.1250   31.9460 N.3   136  LEU136     -0.1245
     67  CA         9.3790   36.3650   31.7280 C.3   136  LEU136      0.1561
     68  C          8.2220   36.1460   30.7900 C.2   136  LEU136      0.2260
     69  O          7.1540   36.7470   30.9580 O.2   136  LEU136     -0.2867
     70  CB        10.3110   37.4470   31.1740 C.3   136  LEU136      0.0270
     71  CG        11.3750   37.8970   32.1890 C.3   136  LEU136      0.0019
     72  CD1       12.4120   38.7960   31.5310 C.3   136  LEU136      0.0001
     73  CD2       10.7260   38.5970   33.3740 C.3   136  LEU136      0.0001
     74  N          7.1510   39.7530   44.7940 N.3   187  THR187     -0.1203
     75  CA         6.0880   39.9860   43.8160 C.3   187  THR187      0.1994
     76  C          6.5340   39.6160   42.4160 C.2   187  THR187      0.2618
     77  O          7.7160   39.5720   42.1350 O.2   187  THR187     -0.2717
     78  CB         5.5990   41.4420   43.8140 C.3   187  THR187      0.1784
     79  OG1        6.6440   42.3140   43.3680 O.3   187  THR187     -0.2211
     80  CG2        5.1270   41.8750   45.1880 C.3   187  THR187      0.0376
     81  N          5.5720   39.3180   41.5390 N.am  188  GLY188     -0.1942
     82  CA         5.8490   39.2350   40.1060 C.3   188  GLY188      0.2014
     83  C          4.6060   39.6160   39.3230 C.2   188  GLY188      0.2638
     84  O          3.4800   39.5710   39.8430 O.2   188  GLY188     -0.2714
     85  N          4.8010   40.0220   38.0730 N.am  189  TRP189     -0.1973
     86  CA         3.6990   40.4670   37.2400 C.3   189  TRP189      0.1640
     87  C          4.1230   40.2370   35.8060 C.2   189  TRP189      0.2290
     88  O          5.1970   40.6840   35.4260 O.2   189  TRP189     -0.2864
     89  CB         3.4200   41.9500   37.4860 C.3   189  TRP189      0.0576
     90  CG         2.1940   42.5180   36.7750 C.ar  189  TRP189      0.0006
     91  CD1        1.6310   42.0750   35.6130 C.ar  189  TRP189      0.0946
     92  CD2        1.4960   43.7160   37.1200 C.ar  189  TRP189      0.0152
     93  NE1        0.5600   42.8610   35.2720 N.ar  189  TRP189     -0.2442
     94  CE2        0.4490   43.8770   36.1840 C.ar  189  TRP189      0.0810
     95  CE3        1.6110   44.6390   38.1670 C.ar  189  TRP189      0.0012
     96  CZ2       -0.3650   45.0090   36.1680 C.ar  189  TRP189      0.0191
     97  CZ3        0.7590   45.7500   38.1760 C.ar  189  TRP189      0.0001
     98  CH2       -0.2150   45.9180   37.1840 C.ar  189  TRP189      0.0015
     99  N          3.3850   41.0370   32.6600 N.3   191  MET191     -0.1245
    100  CA         2.6120   42.1680   32.1570 C.3   191  MET191      0.1570
    101  C          2.2540   41.9210   30.6990 C.2   191  MET191      0.2261
    102  O          1.2780   42.4720   30.1870 O.2   191  MET191     -0.2867
    103  CB         3.4340   43.4560   32.2720 C.3   191  MET191      0.0387
    104  CG         3.0800   44.3100   33.4790 C.3   191  MET191      0.0595
    105  SD         4.3810   45.4740   33.9420 S.3   191  MET191     -0.1393
    106  CE         3.5610   46.3860   35.2550 C.3   191  MET191      0.0692
    107  N         -0.2880   48.4370   41.6540 N.3   226  ALA226     -0.1245
    108  CA         0.6240   47.3030   41.9080 C.3   226  ALA226      0.1562
    109  C          0.4850   46.7730   43.3470 C.2   226  ALA226      0.2260
    110  O          0.4860   45.5370   43.5930 O.2   226  ALA226     -0.2867
    111  CB         2.0600   47.7340   41.6530 C.3   226  ALA226      0.0290
    112  N         -1.7950   43.6510   45.3760 N.3   229  ARG229     -0.1245
    113  CA        -1.3850   42.2950   45.7460 C.3   229  ARG229      0.1563
    114  C         -1.0000   42.2230   47.2520 C.2   229  ARG229      0.2260
    115  O         -1.5060   41.3740   48.0170 O.2   229  ARG229     -0.2867
    116  CB        -0.1810   41.8490   44.8910 C.3   229  ARG229      0.0307
    117  CG        -0.5030   41.5220   43.4410 C.3   229  ARG229      0.0489
    118  CD         0.7620   41.4220   42.5770 C.3   229  ARG229      0.2205
    119  NE         1.4230   42.7090   42.5360 N.pl3 229  ARG229     -0.0865
    120  CZ         2.5320   42.9810   41.8710 C.cat 229  ARG229      0.5346
    121  NH1        3.2330   42.0190   41.3140 N.pl3 229  ARG229      0.1354
    122  NH2        3.0480   44.1920   41.9620 N.pl3 229  ARG229      0.1354
@<TRIPOS>BOND
     1   102   101    2
     2   101   100    1
     3    68    69    2
     4    68    67    1
     5    70    67    1
     6    70    71    1
     7    18    17    1
     8    72    71    1
     9    67    66    1
    10   100   103    1
    11   100    99    1
    12    71    73    1
    13   103   104    1
    14    19    17    1
    15    12    13    1
    16    13    16    1
    17    13    14    1
    18    16    17    1
    19    64    63    1
    20   104   105    1
    21    15    14    2
    22    14    20   am
    23   105   106    1
    24    63    65    1
    25    63    60    1
    26    20    21    1
    27    62    61    2
    28    61    60    1
    29    43    41   ar
    30    43    44   ar
    31    93    91   ar
    32    93    94   ar
    33    88    87    2
    34    60    59    1
    35    91    90   ar
    36    41    38   ar
    37    87    86    1
    38    21    22    1
    39    21    24    1
    40    44    42   ar
    41    28    26   ar
    42    28    30   ar
    43     2     1    1
    44     2     5    1
    45     2     3    1
    46    96    94   ar
    47    96    98   ar
    48    94    92   ar
    49    22    23    2
    50    26    25   ar
    51    30    29   ar
    52    90    92   ar
    53    90    89    1
    54    25    24    1
    55    25    27   ar
    56    29    27   ar
    57    38    40   ar
    58    38    36   ar
    59    92    95   ar
    60    98    97   ar
    61     3     4    2
    62     3     6   am
    63    86    89    1
    64    86    85    1
    65    42    40   ar
    66    35    36    1
    67    35    32    1
    68    34    33    2
    69    40    39   ar
    70    36    37   ar
    71    33    32    1
    72     6     7    1
    73    85    83   am
    74    95    97   ar
    75    32    31    1
    76    11    10    1
    77    56    55    2
    78     7    10    1
    79     7     8    1
    80    39    37   ar
    81    83    84    2
    82    83    82    1
    83    55    54    1
    84     8     9    2
    85    82    81    1
    86    57    54    1
    87    57    58    1
    88    54    53    1
    89    48    47    2
    90   121   120    1
    91    81    76   am
    92   111   108    1
    93   107   108    1
    94   120   122    1
    95   120   119    2
    96   108   109    1
    97    47    53   am
    98    47    46    1
    99    77    76    2
   100    76    75    1
   101   119   118    1
   102   118   117    1
   103    49    46    1
   104    49    50    1
   105    51    50    1
   106    46    45    1
   107   109   110    2
   108    79    78    1
   109   117   116    1
   110    50    52    1
   111    78    75    1
   112    78    80    1
   113    75    74    1
   114   116   113    1
   115   112   113    1
   116   113   114    1
   117   114   115    2
