@<TRIPOS>MOLECULE
tmp/5wicB01.pdb
 115 114 0 0 0
SMALL
GASTEIGER

@<TRIPOS>ATOM
      1  N        -14.2570  -17.7310  -19.0370 N.3    21  HIS21      -0.1226
      2  CA       -12.8870  -17.3340  -19.1950 C.3    21  HIS21       0.1752
      3  C        -12.0130  -17.7880  -18.0710 C.2    21  HIS21       0.2596
      4  O        -10.8330  -18.0030  -18.2610 O.2    21  HIS21      -0.2718
      5  CB       -12.7820  -15.8420  -19.3420 C.3    21  HIS21       0.0759
      6  CG       -13.0490  -15.3390  -20.7220 C.ar   21  HIS21       0.0818
      7  ND1      -12.4870  -15.8600  -21.7870 N.ar   21  HIS21      -0.2268
      8  CD2      -13.8310  -14.3060  -21.1680 C.ar   21  HIS21       0.1154
      9  CE1      -12.8890  -15.2010  -22.8610 C.ar   21  HIS21       0.1986
     10  NE2      -13.7090  -14.2540  -22.4750 N.ar   21  HIS21      -0.2212
     11  N        -12.5600  -17.8600  -16.8790 N.am   22  ARG22      -0.1966
     12  CA       -11.7790  -18.1090  -15.6710 C.3    22  ARG22       0.1729
     13  C        -11.7570  -19.5800  -15.2680 C.2    22  ARG22       0.2616
     14  O        -10.7780  -20.0520  -14.6960 O.2    22  ARG22      -0.2715
     15  CB       -12.3220  -17.2690  -14.5110 C.3    22  ARG22       0.0348
     16  CG       -11.6430  -17.5400  -13.1800 C.3    22  ARG22       0.0492
     17  CD       -11.6690  -16.3210  -12.2600 C.3    22  ARG22       0.2205
     18  NE       -11.0030  -16.5870  -10.9880 N.pl3  22  ARG22      -0.0865
     19  CZ       -10.7250  -15.6650  -10.0720 C.cat  22  ARG22       0.5346
     20  NH1      -11.0390  -14.3920  -10.2740 N.pl3  22  ARG22       0.1354
     21  NH2      -10.1170  -16.0150   -8.9480 N.pl3  22  ARG22       0.1354
     22  N        -12.8320  -20.3050  -15.5550 N.am   23  GLU23      -0.1963
     23  CA       -12.9310  -21.6940  -15.1210 C.3    23  GLU23       0.1733
     24  C        -12.6080  -22.6830  -16.2410 C.2    23  GLU23       0.2617
     25  O        -12.3200  -23.8460  -15.9730 O.2    23  GLU23      -0.2715
     26  CB       -14.3220  -21.9670  -14.5580 C.3    23  GLU23       0.0429
     27  CG       -14.6450  -21.1310  -13.3310 C.3    23  GLU23       0.1163
     28  CD       -13.7240  -21.4230  -12.1660 C.2    23  GLU23       0.3649
     29  OE1      -13.2160  -22.5590  -12.0790 O.co2  23  GLU23      -0.2457
     30  OE2      -13.5020  -20.5150  -11.3380 O.co2  23  GLU23      -0.2457
     31  N        -12.6490  -22.2230  -17.4870 N.am   24  SER24      -0.1936
     32  CA       -12.2160  -23.0470  -18.6120 C.3    24  SER24       0.2055
     33  C        -10.6950  -23.1380  -18.6250 C.2    24  SER24       0.2643
     34  O        -10.0190  -22.2930  -18.0460 O.2    24  SER24      -0.2714
     35  CB       -12.7130  -22.4720  -19.9440 C.3    24  SER24       0.2130
     36  OG       -14.1170  -22.2820  -19.9420 O.3    24  SER24      -0.2179
     37  N        -10.1570  -24.1630  -19.2800 N.am   25  TYR25      -0.1973
     38  CA        -8.7260  -24.2070  -19.5610 C.3    25  TYR25       0.1639
     39  C         -8.4290  -24.8220  -20.9220 C.2    25  TYR25       0.2290
     40  O         -8.5770  -26.0250  -21.1260 O.2    25  TYR25      -0.2864
     41  CB        -7.9590  -24.9850  -18.4900 C.3    25  TYR25       0.0560
     42  CG        -6.4800  -25.0180  -18.7920 C.ar   25  TYR25      -0.0198
     43  CD1       -5.6730  -23.9250  -18.5110 C.ar   25  TYR25      -0.0009
     44  CD2       -5.8950  -26.1230  -19.3950 C.ar   25  TYR25      -0.0009
     45  CE1       -4.3270  -23.9370  -18.8010 C.ar   25  TYR25       0.0417
     46  CE2       -4.5470  -26.1430  -19.6900 C.ar   25  TYR25       0.0417
     47  CZ        -3.7680  -25.0450  -19.3900 C.ar   25  TYR25       0.1957
     48  OH        -2.4240  -25.0540  -19.6780 O.3    25  TYR25      -0.2866
     49  N         -5.6210  -19.5890  -23.6470 N.3    30  VAL30      -0.1245
     50  CA        -5.3880  -19.2300  -22.2530 C.3    30  VAL30       0.1561
     51  C         -4.9200  -17.7800  -22.1200 C.2    30  VAL30       0.2260
     52  O         -5.2180  -17.1150  -21.1310 O.2    30  VAL30      -0.2867
     53  CB        -4.3540  -20.1730  -21.5980 C.3    30  VAL30       0.0252
     54  CG1       -2.9750  -19.9950  -22.2270 C.3    30  VAL30       0.0019
     55  CG2       -4.3020  -19.9500  -20.0920 C.3    30  VAL30       0.0019
     56  N         -8.0070  -15.6400  -22.4650 N.3    33  ASP33      -0.1225
     57  CA        -8.7470  -15.8970  -21.2380 C.3    33  ASP33       0.1805
     58  C         -8.1240  -15.1200  -20.0900 C.2    33  ASP33       0.2597
     59  O         -8.7900  -14.3220  -19.4370 O.2    33  ASP33      -0.2718
     60  CB        -8.7610  -17.3890  -20.9100 C.3    33  ASP33       0.1424
     61  CG        -9.5810  -18.1980  -21.8920 C.2    33  ASP33       0.3668
     62  OD1      -10.5550  -17.6540  -22.4500 O.co2  33  ASP33      -0.2456
     63  OD2       -9.2500  -19.3820  -22.1070 O.co2  33  ASP33      -0.2456
     64  N         -6.8360  -15.3640  -19.8610 N.am   34  TYR34      -0.1976
     65  CA        -6.0710  -14.6790  -18.8270 C.3    34  TYR34       0.1639
     66  C         -6.2120  -13.1650  -18.9310 C.2    34  TYR34       0.2290
     67  O         -6.4230  -12.4770  -17.9320 O.2    34  TYR34      -0.2864
     68  CB        -4.5960  -15.0740  -18.9280 C.3    34  TYR34       0.0560
     69  CG        -3.6950  -14.4020  -17.9180 C.ar   34  TYR34      -0.0198
     70  CD1       -3.5080  -14.9440  -16.6560 C.ar   34  TYR34      -0.0009
     71  CD2       -3.0230  -13.2330  -18.2320 C.ar   34  TYR34      -0.0009
     72  CE1       -2.6850  -14.3370  -15.7330 C.ar   34  TYR34       0.0417
     73  CE2       -2.1980  -12.6190  -17.3140 C.ar   34  TYR34       0.0417
     74  CZ        -2.0320  -13.1750  -16.0670 C.ar   34  TYR34       0.1957
     75  OH        -1.2090  -12.5660  -15.1480 O.3    34  TYR34      -0.2866
     76  N         -6.0760  -13.9170   -8.8060 N.3    49  TYR49      -0.1241
     77  CA        -6.3050  -14.8740   -9.8810 C.3    49  TYR49       0.1605
     78  C         -5.0400  -15.1230  -10.6880 C.2    49  TYR49       0.2264
     79  O         -4.8000  -16.2310  -11.1570 O.2    49  TYR49      -0.2867
     80  CB        -7.4170  -14.3710  -10.8020 C.3    49  TYR49       0.0534
     81  CG        -7.3340  -14.8960  -12.2170 C.ar   49  TYR49      -0.0201
     82  CD1       -7.8950  -16.1160  -12.5600 C.ar   49  TYR49      -0.0009
     83  CD2       -6.6990  -14.1660  -13.2110 C.ar   49  TYR49      -0.0009
     84  CE1       -7.8210  -16.5950  -13.8460 C.ar   49  TYR49       0.0417
     85  CE2       -6.6190  -14.6380  -14.5000 C.ar   49  TYR49       0.0417
     86  CZ        -7.1830  -15.8510  -14.8110 C.ar   49  TYR49       0.1957
     87  OH        -7.1090  -16.3260  -16.0940 O.3    49  TYR49      -0.2866
     88  N         -1.8200  -17.7330   -9.7540 N.3    52  LYS52      -0.1231
     89  CA        -1.7190  -19.1270  -10.1520 C.3    52  LYS52       0.1693
     90  C         -0.8500  -19.2970  -11.3900 C.2    52  LYS52       0.2592
     91  O         -0.3560  -20.3880  -11.6590 O.2    52  LYS52      -0.2718
     92  CB        -3.1090  -19.7040  -10.4260 C.3    52  LYS52       0.0285
     93  CG        -4.1740  -19.2950   -9.4260 C.3    52  LYS52       0.0035
     94  CD        -5.4760  -20.0420   -9.6750 C.3    52  LYS52       0.0206
     95  CE        -5.9830  -19.8340  -11.0960 C.3    52  LYS52       0.1093
     96  NZ        -7.3540  -20.3770  -11.2810 N.3    52  LYS52      -0.1314
     97  N         -0.6770  -18.2160  -12.1440 N.am   53  PHE53      -0.1976
     98  CA         0.0410  -18.2680  -13.4100 C.3    53  PHE53       0.1639
     99  C          1.4840  -17.7890  -13.2880 C.2    53  PHE53       0.2290
    100  O          2.2030  -17.7250  -14.2840 O.2    53  PHE53      -0.2864
    101  CB        -0.6930  -17.4330  -14.4570 C.3    53  PHE53       0.0560
    102  CG        -2.0810  -17.9200  -14.7510 C.ar   53  PHE53      -0.0200
    103  CD1       -2.3110  -18.7990  -15.7950 C.ar   53  PHE53      -0.0042
    104  CD2       -3.1530  -17.5090  -13.9780 C.ar   53  PHE53      -0.0042
    105  CE1       -3.5790  -19.2540  -16.0650 C.ar   53  PHE53      -0.0003
    106  CE2       -4.4240  -17.9590  -14.2420 C.ar   53  PHE53      -0.0003
    107  CZ        -4.6410  -18.8330  -15.2890 C.ar   53  PHE53      -0.0000
    108  N          0.3460  -22.3210  -13.8680 N.3    59  LEU59      -0.1245
    109  CA        -0.6310  -23.2670  -14.4090 C.3    59  LEU59       0.1561
    110  C         -0.3650  -23.6350  -15.8670 C.2    59  LEU59       0.2260
    111  O         -0.2180  -24.8100  -16.1980 O.2    59  LEU59      -0.2867
    112  CB        -2.0450  -22.6900  -14.2770 C.3    59  LEU59       0.0270
    113  CG        -3.2100  -23.5870  -14.7010 C.3    59  LEU59       0.0019
    114  CD1       -3.3340  -24.7840  -13.7810 C.3    59  LEU59       0.0001
    115  CD2       -4.5080  -22.8020  -14.7200 C.3    59  LEU59       0.0001
@<TRIPOS>BOND
     1    49    50    1
     2     9    10   ar
     3     9     7   ar
     4    10     8   ar
     5    56    57    1
     6    62    61   ar
     7    50    51    1
     8    50    53    1
     9    54    53    1
    10    51    52    2
    11    63    61   ar
    12    61    60    1
    13     7     6   ar
    14    53    55    1
    15    57    60    1
    16    57    58    1
    17     8     6   ar
    18    40    39    2
    19    39    38    1
    20     6     5    1
    21    58    64   am
    22    58    59    2
    23    35    36    1
    24    35    32    1
    25    64    65    1
    26    46    44   ar
    27    46    47   ar
    28    48    47    1
    29    38    37    1
    30    38    41    1
    31    44    42   ar
    32    47    45   ar
    33     5     2    1
    34    37    33   am
    35     2     1    1
    36     2     3    1
    37    66    65    1
    38    66    67    2
    39    68    65    1
    40    68    69    1
    41    45    43   ar
    42    42    43   ar
    43    42    41    1
    44    33    32    1
    45    33    34    2
    46    32    31    1
    47     4     3    2
    48    71    69   ar
    49    71    73   ar
    50     3    11   am
    51    69    70   ar
    52    31    24   am
    53    73    74   ar
    54    11    12    1
    55    70    72   ar
    56    24    25    2
    57    24    23    1
    58   111   110    2
    59    87    86    1
    60    74    72   ar
    61    74    75    1
    62   105   103   ar
    63   105   107   ar
    64   110   109    1
    65   103   102   ar
    66    12    13    1
    67    12    15    1
    68    22    13   am
    69    22    23    1
    70   107   106   ar
    71    13    14    2
    72    23    26    1
    73    86    85   ar
    74    86    84   ar
    75   102   101    1
    76   102   104   ar
    77   115   113    1
    78   113   112    1
    79   113   114    1
    80    26    27    1
    81    15    16    1
    82    85    83   ar
    83   101    98    1
    84   109   112    1
    85   109   108    1
    86   100    99    2
    87   106   104   ar
    88    84    82   ar
    89    98    99    1
    90    98    97    1
    91    27    28    1
    92    83    81   ar
    93    16    17    1
    94    82    81   ar
    95    17    18    1
    96    81    80    1
    97    28    29   ar
    98    28    30   ar
    99    97    90   am
   100    91    90    2
   101    90    89    1
   102    96    95    1
   103    79    78    2
   104    95    94    1
   105    18    19    2
   106    80    77    1
   107    78    77    1
   108    92    89    1
   109    92    93    1
   110    20    19    1
   111    89    88    1
   112    19    21    1
   113    77    76    1
   114    94    93    1
