@<TRIPOS>MOLECULE
tmp/5widA00.pdb
 138 140 0 0 0
SMALL
GASTEIGER

@<TRIPOS>ATOM
      1  N         36.9440   24.4720   -9.6400 N.3     9  SER9       -0.1202
      2  CA        36.5700   25.2240  -10.8300 C.3     9  SER9        0.2020
      3  C         37.5890   24.9660  -11.9260 C.2     9  SER9        0.2619
      4  O         38.7910   25.0040  -11.6540 O.2     9  SER9       -0.2717
      5  CB        36.4900   26.7270  -10.5050 C.3     9  SER9        0.2103
      6  OG        35.9910   27.4640  -11.6090 O.3     9  SER9       -0.2182
      7  N         37.1120   24.7210  -13.1530 N.am   10  THR10      -0.1938
      8  CA        38.0020   24.4390  -14.2810 C.3    10  THR10       0.2028
      9  C         38.2760   25.6540  -15.1580 C.2    10  THR10       0.2642
     10  O         39.3270   25.7150  -15.8090 O.2    10  THR10      -0.2714
     11  CB        37.4310   23.3150  -15.1700 C.3    10  THR10       0.1808
     12  OG1       36.2460   23.7600  -15.8440 O.3    10  THR10      -0.2208
     13  CG2       37.1020   22.0670  -14.3320 C.3    10  THR10       0.0379
     14  N         37.3660   26.6220  -15.1990 N.am   11  SER11      -0.1949
     15  CA        37.5450   27.8040  -16.0240 C.3    11  SER11       0.1924
     16  C         37.2420   29.0910  -15.2750 C.2    11  SER11       0.2314
     17  O         37.2870   30.1630  -15.8850 O.2    11  SER11      -0.2863
     18  CB        36.6630   27.7260  -17.2880 C.3    11  SER11       0.2116
     19  OG        35.2960   28.0850  -17.0310 O.3    11  SER11      -0.2180
     20  N         34.2760   29.7780  -13.3500 N.3    13  ASN13      -0.1225
     21  CA        32.8890   30.1820  -13.1200 C.3    13  ASN13       0.1785
     22  C         32.4360   29.8450  -11.7010 C.2    13  ASN13       0.2597
     23  O         31.8760   30.6970  -11.0000 O.2    13  ASN13      -0.2718
     24  CB        31.9770   29.5340  -14.1650 C.3    13  ASN13       0.1169
     25  CG        32.2200   30.0910  -15.5680 C.2    13  ASN13       0.2627
     26  OD1       32.6750   31.2420  -15.7340 O.2    13  ASN13      -0.2716
     27  ND2       31.9320   29.2780  -16.5850 N.am   13  ASN13      -0.0877
     28  N         32.6710   28.6070  -11.2560 N.am   14  THR14      -0.1953
     29  CA        32.3530   28.2540   -9.8720 C.3    14  THR14       0.1897
     30  C         33.2170   29.0320   -8.8910 C.2    14  THR14       0.2313
     31  O         32.7590   29.3780   -7.7940 O.2    14  THR14      -0.2863
     32  CB        32.5080   26.7400   -9.6770 C.3    14  THR14       0.1794
     33  OG1       31.6800   26.0790  -10.6500 O.3    14  THR14      -0.2208
     34  CG2       32.1040   26.2810   -8.2600 C.3    14  THR14       0.0378
     35  N         31.7600   22.6060  -10.5980 N.3    56  SER56      -0.1202
     36  CA        31.0680   22.5580  -11.8700 C.3    56  SER56       0.2020
     37  C         30.6360   21.1210  -12.1620 C.2    56  SER56       0.2619
     38  O         30.9800   20.1800  -11.4370 O.2    56  SER56      -0.2717
     39  CB        31.9510   23.1180  -12.9910 C.3    56  SER56       0.2103
     40  OG        33.2530   22.5430  -12.9380 O.3    56  SER56      -0.2182
     41  N         29.8270   20.9630  -13.2090 N.am   57  THR57      -0.1938
     42  CA        29.3200   19.6640  -13.6340 C.3    57  THR57       0.2028
     43  C         30.0800   19.2520  -14.8880 C.2    57  THR57       0.2642
     44  O         30.0710   19.9790  -15.8850 O.2    57  THR57      -0.2714
     45  CB        27.8160   19.7170  -13.9260 C.3    57  THR57       0.1808
     46  OG1       27.0830   20.1110  -12.7550 O.3    57  THR57      -0.2208
     47  CG2       27.3100   18.3530  -14.4210 C.3    57  THR57       0.0379
     48  N         30.7570   18.1090  -14.8310 N.am   58  PHE58      -0.1959
     49  CA        31.3860   17.5050  -16.0030 C.3    58  PHE58       0.1771
     50  C         30.8110   16.1110  -16.1710 C.2    58  PHE58       0.2620
     51  O         30.8890   15.2990  -15.2440 O.2    58  PHE58      -0.2715
     52  CB        32.9090   17.4140  -15.8500 C.3    58  PHE58       0.0574
     53  CG        33.6560   18.6090  -16.3690 C.ar   58  PHE58      -0.0200
     54  CD1       33.3270   19.8960  -15.9610 C.ar   58  PHE58      -0.0042
     55  CD2       34.7090   18.4400  -17.2510 C.ar   58  PHE58      -0.0042
     56  CE1       34.0420   20.9960  -16.4390 C.ar   58  PHE58      -0.0003
     57  CE2       35.4260   19.5270  -17.7300 C.ar   58  PHE58      -0.0003
     58  CZ        35.1000   20.8050  -17.3250 C.ar   58  PHE58      -0.0000
     59  N         30.2540   15.8330  -17.3480 N.am   59  TYR59      -0.1960
     60  CA        29.6510   14.5350  -17.6520 C.3    59  TYR59       0.1771
     61  C         28.7820   14.0550  -16.4880 C.2    59  TYR59       0.2619
     62  O         28.9490   12.9550  -15.9550 O.2    59  TYR59      -0.2715
     63  CB        30.7290   13.5120  -18.0300 C.3    59  TYR59       0.0574
     64  CG        31.4940   13.9830  -19.2320 C.ar   59  TYR59      -0.0198
     65  CD1       30.8780   14.0340  -20.4790 C.ar   59  TYR59      -0.0009
     66  CD2       32.8020   14.4460  -19.1220 C.ar   59  TYR59      -0.0009
     67  CE1       31.5500   14.5060  -21.5910 C.ar   59  TYR59       0.0417
     68  CE2       33.4890   14.9150  -20.2460 C.ar   59  TYR59       0.0417
     69  CZ        32.8510   14.9460  -21.4690 C.ar   59  TYR59       0.1957
     70  OH        33.4940   15.4190  -22.5960 O.3    59  TYR59      -0.2866
     71  N         27.8290   14.9210  -16.1150 N.am   60  TYR60      -0.1974
     72  CA        26.6880   14.6350  -15.2410 C.3    60  TYR60       0.1639
     73  C         27.0760   14.4190  -13.7850 C.2    60  TYR60       0.2290
     74  O         26.2460   13.9420  -13.0030 O.2    60  TYR60      -0.2864
     75  CB        25.8800   13.4350  -15.7680 C.3    60  TYR60       0.0560
     76  CG        25.8150   13.4970  -17.2710 C.ar   60  TYR60      -0.0198
     77  CD1       25.1330   14.5290  -17.8970 C.ar   60  TYR60      -0.0009
     78  CD2       26.5080   12.5870  -18.0600 C.ar   60  TYR60      -0.0009
     79  CE1       25.1090   14.6360  -19.2640 C.ar   60  TYR60       0.0417
     80  CE2       26.4970   12.6880  -19.4320 C.ar   60  TYR60       0.0417
     81  CZ        25.7900   13.7140  -20.0260 C.ar   60  TYR60       0.1957
     82  OH        25.7580   13.8320  -21.3880 O.3    60  TYR60      -0.2866
     83  N         28.5960   26.0590  -11.1430 N.3    89  SER89      -0.1202
     84  CA        28.2520   26.4960  -12.4910 C.3    89  SER89       0.2020
     85  C         28.1180   25.2750  -13.3920 C.2    89  SER89       0.2619
     86  O         28.7400   24.2400  -13.1490 O.2    89  SER89      -0.2717
     87  CB        29.3230   27.4490  -13.0330 C.3    89  SER89       0.2103
     88  OG        29.0650   27.8540  -14.3660 O.3    89  SER89      -0.2182
     89  N         27.2920   25.3870  -14.4270 N.am   90  TYR90      -0.1961
     90  CA        27.0370   24.2360  -15.2850 C.3    90  TYR90       0.1771
     91  C         26.6520   24.7060  -16.6770 C.2    90  TYR90       0.2620
     92  O         26.3930   25.8860  -16.9020 O.2    90  TYR90      -0.2715
     93  CB        25.9470   23.3340  -14.6900 C.3    90  TYR90       0.0574
     94  CG        24.5350   23.8920  -14.7770 C.ar   90  TYR90      -0.0198
     95  CD1       24.1310   24.9660  -13.9800 C.ar   90  TYR90      -0.0009
     96  CD2       23.6050   23.3350  -15.6520 C.ar   90  TYR90      -0.0009
     97  CE1       22.8340   25.4640  -14.0570 C.ar   90  TYR90       0.0417
     98  CE2       22.2980   23.8130  -15.7190 C.ar   90  TYR90       0.0417
     99  CZ        21.9250   24.8800  -14.9320 C.ar   90  TYR90       0.1957
    100  OH        20.6350   25.3670  -15.0140 O.3    90  TYR90      -0.2866
    101  N         26.5940   23.7520  -17.6150 N.am   91  GLY91      -0.1940
    102  CA        26.2890   24.0750  -18.9940 C.3    91  GLY91       0.2014
    103  C         24.9240   23.6540  -19.5000 C.2    91  GLY91       0.2639
    104  O         24.3950   24.2980  -20.4120 O.2    91  GLY91      -0.2714
    105  N         24.3510   22.5660  -18.9790 N.am   92  TRP92      -0.1959
    106  CA        22.9990   22.2150  -19.4120 C.3    92  TRP92       0.1771
    107  C         22.2700   21.2740  -18.4630 C.2    92  TRP92       0.2620
    108  O         21.0610   21.4270  -18.2680 O.2    92  TRP92      -0.2715
    109  CB        23.0040   21.6160  -20.8300 C.3    92  TRP92       0.0590
    110  CG        23.6120   20.2550  -21.0040 C.ar   92  TRP92       0.0006
    111  CD1       22.9460   19.0570  -21.0670 C.ar   92  TRP92       0.0946
    112  CD2       24.9970   19.9540  -21.2020 C.ar   92  TRP92       0.0152
    113  NE1       23.8390   18.0290  -21.2700 N.ar   92  TRP92      -0.2442
    114  CE2       25.1020   18.5510  -21.3610 C.ar   92  TRP92       0.0810
    115  CE3       26.1600   20.7290  -21.2610 C.ar   92  TRP92       0.0012
    116  CZ2       26.3230   17.9140  -21.5640 C.ar   92  TRP92       0.0191
    117  CZ3       27.3760   20.0920  -21.4670 C.ar   92  TRP92       0.0001
    118  CH2       27.4470   18.6960  -21.6130 C.ar   92  TRP92       0.0015
    119  N         22.9660   20.2940  -17.8860 N.am   93  SER93      -0.1936
    120  CA        22.3020   19.2990  -17.0510 C.3    93  SER93       0.2055
    121  C         22.3940   19.6170  -15.5610 C.2    93  SER93       0.2643
    122  O         21.4130   19.4350  -14.8300 O.2    93  SER93      -0.2714
    123  CB        22.8670   17.8970  -17.3410 C.3    93  SER93       0.2130
    124  OG        24.2250   17.7520  -16.9500 O.3    93  SER93      -0.2179
    125  N         23.5450   20.0780  -15.0870 N.am   94  GLY94      -0.1954
    126  CA        23.6190   20.7150  -13.7740 C.3    94  GLY94       0.1869
    127  C         23.4470   19.8330  -12.5560 C.2    94  GLY94       0.2309
    128  O         22.9260   20.3010  -11.5330 O.2    94  GLY94      -0.2863
    129  N         26.7150   28.7140  -17.1060 N.3   120  HIS120     -0.1241
    130  CA        27.8480   29.3490  -17.8130 C.3   120  HIS120      0.1621
    131  C         28.4880   30.4110  -16.9100 C.2   120  HIS120      0.2264
    132  O         28.6210   30.2110  -15.6920 O.2   120  HIS120     -0.2867
    133  CB        27.3760   29.8800  -19.1540 C.3   120  HIS120      0.0745
    134  CG        26.6220   28.8830  -19.9710 C.ar  120  HIS120      0.0817
    135  ND1       27.1490   27.6580  -20.3190 N.ar  120  HIS120     -0.2268
    136  CD2       25.3810   28.9290  -20.5110 C.ar  120  HIS120      0.1154
    137  CE1       26.2660   26.9940  -21.0450 C.ar  120  HIS120      0.1986
    138  NE2       25.1830   27.7400  -21.1710 N.ar  120  HIS120     -0.2212
@<TRIPOS>BOND
     1    70    69    1
     2   118   116   ar
     3   118   117   ar
     4    67    69   ar
     5    67    65   ar
     6   116   114   ar
     7    69    68   ar
     8   117   115   ar
     9    82    81    1
    10   114   113   ar
    11   114   112   ar
    12   113   111   ar
    13   115   112   ar
    14   112   110   ar
    15   138   137   ar
    16   138   136   ar
    17   111   110   ar
    18   137   135   ar
    19   110   109    1
    20   109   106    1
    21   136   134   ar
    22    65    64   ar
    23   104   103    2
    24   135   134   ar
    25    68    66   ar
    26    81    80   ar
    27    81    79   ar
    28   134   133    1
    29   103   102    1
    30   103   105   am
    31    80    78   ar
    32   106   105    1
    33   106   107    1
    34    79    77   ar
    35    64    66   ar
    36    64    63    1
    37   133   130    1
    38   102   101    1
    39   107   108    2
    40   107   119   am
    41    78    76   ar
    42    63    60    1
    43    77    76   ar
    44   119   120    1
    45   130   129    1
    46   130   131    1
    47    57    58   ar
    48    57    55   ar
    49    60    59    1
    50    60    61    1
    51   101    91   am
    52    59    50   am
    53   123   120    1
    54   123   124    1
    55    58    56   ar
    56    18    19    1
    57    18    15    1
    58    76    75    1
    59    55    53   ar
    60   120   121    1
    61   131   132    2
    62    92    91    2
    63    91    90    1
    64    27    25   am
    65    61    71   am
    66    61    62    2
    67    56    54   ar
    68    53    54   ar
    69    53    52    1
    70    50    49    1
    71    50    51    2
    72    71    72    1
    73    15    16    1
    74    15    14    1
    75    49    52    1
    76    49    48    1
    77    17    16    2
    78    44    43    2
    79    12    11    1
    80    10     9    2
    81    75    72    1
    82    26    25    2
    83    98    96   ar
    84    98    99   ar
    85    96    94   ar
    86    25    24    1
    87   121   125   am
    88   121   122    2
    89    90    93    1
    90    90    89    1
    91    72    73    1
    92    14     9   am
    93    11    13    1
    94    11     8    1
    95     9     8    1
    96   125   126    1
    97   100    99    1
    98    99    97   ar
    99    43    48   am
   100    43    42    1
   101    94    93    1
   102    94    95   ar
   103    89    85   am
   104    47    45    1
   105    88    87    1
   106     8     7    1
   107    24    21    1
   108    97    95   ar
   109    45    42    1
   110    45    46    1
   111    73    74    2
   112   126   127    1
   113    42    41    1
   114    85    86    2
   115    85    84    1
   116    20    21    1
   117    41    37   am
   118     7     3   am
   119    21    22    1
   120    87    84    1
   121    39    40    1
   122    39    36    1
   123   127   128    2
   124    84    83    1
   125    37    36    1
   126    37    38    2
   127     3     4    2
   128     3     2    1
   129    36    35    1
   130    22    28   am
   131    22    23    2
   132     6     5    1
   133    28    29    1
   134     2     5    1
   135     2     1    1
   136    33    32    1
   137    29    32    1
   138    29    30    1
   139    32    34    1
   140    30    31    2
