@<TRIPOS>MOLECULE
tmp/5wieD00.pdb
 89 87 0 0 0
SMALL
GASTEIGER

@<TRIPOS>ATOM
      1  N         15.0190   63.9700  308.0400 N.3   239  ILE239     -0.1245
      2  CA        15.6190   63.5070  309.2700 C.3   239  ILE239      0.1561
      3  C         16.8830   64.3220  309.4870 C.2   239  ILE239      0.2260
      4  O         17.1120   64.8300  310.5800 O.2   239  ILE239     -0.2867
      5  CB        15.9710   62.0140  309.1800 C.3   239  ILE239      0.0252
      6  CG1       14.7300   61.2000  308.7950 C.3   239  ILE239      0.0019
      7  CG2       16.5290   61.5350  310.4960 C.3   239  ILE239      0.0019
      8  CD1       13.6060   61.2150  309.8040 C.3   239  ILE239      0.0001
      9  N         16.2150   68.1700  310.2030 N.3   242  LEU242     -0.1231
     10  CA        15.7030   68.2580  311.5600 C.3   242  LEU242      0.1693
     11  C         16.8640   68.2900  312.5460 C.2   242  LEU242      0.2592
     12  O         17.0220   69.2370  313.3080 O.2   242  LEU242     -0.2718
     13  CB        14.8210   67.0480  311.8450 C.3   242  LEU242      0.0284
     14  CG        13.3930   67.3090  312.3210 C.3   242  LEU242      0.0019
     15  CD1       12.6950   68.3440  311.4510 C.3   242  LEU242      0.0001
     16  CD2       12.6360   65.9930  312.3110 C.3   242  LEU242      0.0001
     17  N         17.6730   67.2390  312.5220 N.am  243  PHE243     -0.1976
     18  CA        18.8290   67.1220  313.3960 C.3   243  PHE243      0.1639
     19  C         19.6950   68.3770  313.3990 C.2   243  PHE243      0.2290
     20  O         20.2410   68.7410  314.4330 O.2   243  PHE243     -0.2864
     21  CB        19.6360   65.8810  312.9850 C.3   243  PHE243      0.0560
     22  CG        21.0580   65.8590  313.4820 C.ar  243  PHE243     -0.0200
     23  CD1       22.0560   66.5900  312.8250 C.ar  243  PHE243     -0.0042
     24  CD2       21.4150   65.0570  314.5620 C.ar  243  PHE243     -0.0042
     25  CE1       23.3820   66.5190  313.2280 C.ar  243  PHE243     -0.0003
     26  CE2       22.7380   64.9770  314.9750 C.ar  243  PHE243     -0.0003
     27  CZ        23.7270   65.7100  314.3020 C.ar  243  PHE243     -0.0000
     28  N         17.4310   70.7270  315.4290 N.3   246  VAL246     -0.1245
     29  CA        17.3790   70.4010  316.8370 C.3   246  VAL246      0.1561
     30  C         18.6720   70.7830  317.5400 C.2   246  VAL246      0.2260
     31  O         18.6540   71.4340  318.5810 O.2   246  VAL246     -0.2867
     32  CB        17.1270   68.9150  317.0530 C.3   246  VAL246      0.0252
     33  CG1       17.2450   68.5770  318.5390 C.3   246  VAL246      0.0019
     34  CG2       15.7450   68.5490  316.5300 C.3   246  VAL246      0.0019
     35  N         21.4690   68.3160  325.3150 N.3   269  PRO269     -0.2102
     36  CA        20.7940   67.0670  324.9550 C.3   269  PRO269      0.1504
     37  C         19.4200   67.0150  325.6040 C.2   269  PRO269      0.2575
     38  O         18.4650   66.5240  325.0180 O.2   269  PRO269     -0.2718
     39  CB        21.7200   65.9910  325.5110 C.3   269  PRO269      0.0282
     40  CG        23.0540   66.6370  325.4560 C.3   269  PRO269      0.0208
     41  CD        22.7820   68.0440  325.9230 C.3   269  PRO269      0.0893
     42  N         19.3270   67.5340  326.8210 N.am  270  ASP270     -0.1974
     43  CA        18.0610   67.5350  327.5340 C.3   270  ASP270      0.1708
     44  C         17.0380   68.3730  326.8090 C.2   270  ASP270      0.2293
     45  O         15.8530   68.0680  326.8350 O.2   270  ASP270     -0.2864
     46  CB        18.2440   68.0670  328.9590 C.3   270  ASP270      0.1436
     47  CG        18.6280   66.9690  329.9550 C.2   270  ASP270      0.3671
     48  OD1       17.8580   65.9780  330.0690 O.co2 270  ASP270     -0.2456
     49  OD2       19.6850   67.1010  330.6250 O.co2 270  ASP270     -0.2456
     50  N         16.8690   68.7200  323.6020 N.3   272  PHE272     -0.1227
     51  CA        16.5250   68.1450  322.3100 C.3   272  PHE272      0.1736
     52  C         15.0160   67.9030  322.3010 C.2   272  PHE272      0.2595
     53  O         14.3160   68.3780  321.4080 O.2   272  PHE272     -0.2718
     54  CB        17.2810   66.8240  322.0840 C.3   272  PHE272      0.0547
     55  CG        18.7670   66.9990  321.7950 C.ar  272  PHE272     -0.0202
     56  CD1       19.2630   68.2090  321.2920 C.ar  272  PHE272     -0.0042
     57  CD2       19.6680   65.9470  322.0260 C.ar  272  PHE272     -0.0042
     58  CE1       20.6230   68.3700  321.0410 C.ar  272  PHE272     -0.0003
     59  CE2       21.0280   66.1030  321.7760 C.ar  272  PHE272     -0.0003
     60  CZ        21.5050   67.3140  321.2790 C.ar  272  PHE272     -0.0000
     61  N         14.5160   67.1870  323.3070 N.am  273  TRP273     -0.1976
     62  CA        13.0870   66.8900  323.4030 C.3   273  TRP273      0.1640
     63  C         12.1820   68.1010  323.1480 C.2   273  TRP273      0.2290
     64  O         11.1310   67.9890  322.5110 O.2   273  TRP273     -0.2864
     65  CB        12.7610   66.2980  324.7750 C.3   273  TRP273      0.0576
     66  CG        11.2960   65.9910  324.9730 C.ar  273  TRP273      0.0006
     67  CD1       10.4810   66.4950  325.9460 C.ar  273  TRP273      0.0946
     68  CD2       10.4990   65.0490  324.2330 C.ar  273  TRP273      0.0152
     69  NE1        9.2380   65.9240  325.8630 N.ar  273  TRP273     -0.2442
     70  CE2        9.2190   65.0390  324.8170 C.ar  273  TRP273      0.0810
     71  CE3       10.7430   64.2250  323.1260 C.ar  273  TRP273      0.0012
     72  CZ2        8.1870   64.2150  324.3450 C.ar  273  TRP273      0.0191
     73  CZ3        9.7140   63.4070  322.6550 C.ar  273  TRP273      0.0001
     74  CH2        8.4530   63.4150  323.2600 C.ar  273  TRP273      0.0015
     75  N         12.2800   68.9690  319.1280 N.3   276  VAL276     -0.1245
     76  CA        11.3920   68.1910  318.2920 C.3   276  VAL276      0.1561
     77  C          9.9360   68.5780  318.5510 C.2   276  VAL276      0.2260
     78  O          9.1890   68.9020  317.6220 O.2   276  VAL276     -0.2867
     79  CB        11.5790   66.7010  318.5600 C.3   276  VAL276      0.0252
     80  CG1       10.6980   65.8870  317.6150 C.3   276  VAL276      0.0019
     81  CG2       13.0430   66.3420  318.3940 C.3   276  VAL276      0.0019
     82  N          8.1450   71.4650  328.6900 N.3   287  MET287     -0.1245
     83  CA         9.3550   72.2310  328.8290 C.3   287  MET287      0.1570
     84  C          9.0530   73.4250  328.0040 C.2   287  MET287      0.2261
     85  O          8.6260   73.2660  326.8950 O.2   287  MET287     -0.2867
     86  CB        10.5220   71.5230  328.1900 C.3   287  MET287      0.0387
     87  CG        10.9850   70.2970  328.9190 C.3   287  MET287      0.0595
     88  SD        12.1880   69.4110  327.9430 S.3   287  MET287     -0.1393
     89  CE        13.4250   70.6490  327.7540 C.3   287  MET287      0.0692
@<TRIPOS>BOND
     1     1     2    1
     2     6     5    1
     3     6     8    1
     4     5     2    1
     5     5     7    1
     6     2     3    1
     7     3     4    2
     8     9    10    1
     9    15    14    1
    10    10    13    1
    11    10    11    1
    12    13    14    1
    13    16    14    1
    14    17    11   am
    15    17    18    1
    16    11    12    2
    17    23    25   ar
    18    23    22   ar
    19    21    18    1
    20    21    22    1
    21    25    27   ar
    22    18    19    1
    23    19    20    2
    24    22    24   ar
    25    27    26   ar
    26    24    26   ar
    27    28    29    1
    28    34    32    1
    29    29    32    1
    30    29    30    1
    31    32    33    1
    32    30    31    2
    33    80    79    1
    34    78    77    2
    35    76    77    1
    36    76    79    1
    37    76    75    1
    38    81    79    1
    39    58    60   ar
    40    58    56   ar
    41    60    59   ar
    42    56    55   ar
    43    53    52    2
    44    59    57   ar
    45    55    57   ar
    46    55    54    1
    47    54    51    1
    48    52    51    1
    49    52    61   am
    50    51    50    1
    51    64    63    2
    52    73    71   ar
    53    73    74   ar
    54    71    68   ar
    55    63    62    1
    56    74    72   ar
    57    61    62    1
    58    62    65    1
    59    68    70   ar
    60    68    66   ar
    61    72    70   ar
    62    65    66    1
    63    70    69   ar
    64    36    35    1
    65    36    39    1
    66    36    37    1
    67    66    67   ar
    68    38    37    2
    69    35    41    1
    70    40    39    1
    71    40    41    1
    72    37    42   am
    73    69    67   ar
    74    44    45    2
    75    44    43    1
    76    42    43    1
    77    85    84    2
    78    43    46    1
    79    89    88    1
    80    88    87    1
    81    84    83    1
    82    86    83    1
    83    86    87    1
    84    82    83    1
    85    46    47    1
    86    47    48   ar
    87    47    49   ar
