@<TRIPOS>MOLECULE
tmp/5wieB00.pdb
 89 87 0 0 0
SMALL
GASTEIGER

@<TRIPOS>ATOM
      1  N         -0.3190   54.8200  162.6310 N.3   301  ILE301     -0.1245
      2  CA        -0.4470   54.1250  163.8830 C.3   301  ILE301      0.1561
      3  C          0.8350   53.3770  164.1370 C.2   301  ILE301      0.2260
      4  O          1.4190   53.5070  165.2060 O.2   301  ILE301     -0.2867
      5  CB        -1.6190   53.1440  163.8480 C.3   301  ILE301      0.0252
      6  CG1       -2.9220   53.9230  163.7590 C.3   301  ILE301      0.0019
      7  CG2       -1.6300   52.2980  165.0910 C.3   301  ILE301      0.0019
      8  CD1       -3.1050   54.9190  164.9130 C.3   301  ILE301      0.0001
      9  N          3.8630   55.6210  164.8740 N.3   304  LEU304     -0.1231
     10  CA         3.6290   56.1220  166.2270 C.3   304  LEU304      0.1693
     11  C          3.9710   55.1140  167.3070 C.2   304  LEU304      0.2592
     12  O          4.5050   55.4560  168.3560 O.2   304  LEU304     -0.2718
     13  CB         2.1710   56.4950  166.3740 C.3   304  LEU304      0.0284
     14  CG         1.9000   57.9050  166.8380 C.3   304  LEU304      0.0019
     15  CD1        2.7620   58.8750  166.0780 C.3   304  LEU304      0.0001
     16  CD2        0.4450   58.1830  166.6010 C.3   304  LEU304      0.0001
     17  N          3.6080   53.8690  167.0530 N.am  305  PHE305     -0.1976
     18  CA         3.8840   52.7660  167.9640 C.3   305  PHE305      0.1639
     19  C          5.4040   52.6400  168.1450 C.2   305  PHE305      0.2290
     20  O          5.9110   52.6350  169.2740 O.2   305  PHE305     -0.2864
     21  CB         3.2990   51.4850  167.3600 C.3   305  PHE305      0.0560
     22  CG         3.6650   50.2150  168.0940 C.ar  305  PHE305     -0.0200
     23  CD1        2.9920   49.8360  169.2570 C.ar  305  PHE305     -0.0042
     24  CD2        4.6390   49.3490  167.5630 C.ar  305  PHE305     -0.0042
     25  CE1        3.2750   48.6140  169.8750 C.ar  305  PHE305     -0.0003
     26  CE2        4.9330   48.1240  168.1720 C.ar  305  PHE305     -0.0003
     27  CZ         4.2460   47.7560  169.3270 C.ar  305  PHE305     -0.0000
     28  N          6.6760   55.4710  170.1790 N.3   308  VAL308     -0.1245
     29  CA         6.3190   55.5170  171.5870 C.3   308  VAL308      0.1561
     30  C          7.2220   54.5370  172.3100 C.2   308  VAL308      0.2260
     31  O          7.9120   54.9020  173.2600 O.2   308  VAL308     -0.2867
     32  CB         4.8410   55.1380  171.8150 C.3   308  VAL308      0.0252
     33  CG1        4.6320   54.7040  173.2570 C.3   308  VAL308      0.0019
     34  CG2        3.9530   56.3390  171.5110 C.3   308  VAL308      0.0019
     35  N          6.3400   50.6270  180.1000 N.3   331  PRO331     -0.2102
     36  CA         4.9820   50.6570  179.5580 C.3   331  PRO331      0.1504
     37  C          4.1840   51.8180  180.1580 C.2   331  PRO331      0.2575
     38  O          3.1910   52.2640  179.5910 O.2   331  PRO331     -0.2718
     39  CB         4.4310   49.2890  179.9530 C.3   331  PRO331      0.0282
     40  CG         5.6580   48.4240  179.9140 C.3   331  PRO331      0.0208
     41  CD         6.6620   49.2910  180.6290 C.3   331  PRO331      0.0893
     42  N          4.6300   52.3150  181.3040 N.am  332  ASP332     -0.1974
     43  CA         3.9360   53.4200  181.9540 C.3   332  ASP332      0.1708
     44  C          4.1390   54.7040  181.1820 C.2   332  ASP332      0.2293
     45  O          3.2080   55.4820  180.9570 O.2   332  ASP332     -0.2864
     46  CB         4.4390   53.6000  183.3860 C.3   332  ASP332      0.1436
     47  CG         3.5290   52.9470  184.3970 C.2   332  ASP332      0.3671
     48  OD1        2.3120   53.2120  184.3350 O.co2 332  ASP332     -0.2456
     49  OD2        4.0150   52.1740  185.2550 O.co2 332  ASP332     -0.2456
     50  N          4.4290   54.9990  178.3000 N.3   334  PHE334     -0.1227
     51  CA         3.8320   54.9590  176.9740 C.3   334  PHE334      0.1736
     52  C          2.9490   56.1770  176.8870 C.2   334  PHE334      0.2595
     53  O          2.9170   56.8530  175.8660 O.2   334  PHE334     -0.2718
     54  CB         3.0170   53.6840  176.7640 C.3   334  PHE334      0.0547
     55  CG         3.8530   52.4920  176.4070 C.ar  334  PHE334     -0.0202
     56  CD1        5.1990   52.6450  176.0670 C.ar  334  PHE334     -0.0042
     57  CD2        3.3050   51.2230  176.4040 C.ar  334  PHE334     -0.0042
     58  CE1        5.9860   51.5450  175.7330 C.ar  334  PHE334     -0.0003
     59  CE2        4.0790   50.1240  176.0740 C.ar  334  PHE334     -0.0003
     60  CZ         5.4290   50.2840  175.7360 C.ar  334  PHE334     -0.0000
     61  N          2.2570   56.4650  177.9880 N.am  335  TRP335     -0.1976
     62  CA         1.3640   57.6170  178.0750 C.3   335  TRP335      0.1640
     63  C          2.1450   58.8920  177.7520 C.2   335  TRP335      0.2290
     64  O          1.7830   59.6220  176.8280 O.2   335  TRP335     -0.2864
     65  CB         0.7500   57.6850  179.4800 C.3   335  TRP335      0.0576
     66  CG        -0.1800   58.8560  179.7420 C.ar  335  TRP335      0.0006
     67  CD1       -0.0820   59.7520  180.7660 C.ar  335  TRP335      0.0946
     68  CD2       -1.3240   59.2570  178.9710 C.ar  335  TRP335      0.0152
     69  NE1       -1.0800   60.6850  180.6820 N.ar  335  TRP335     -0.2442
     70  CE2       -1.8590   60.4070  179.5930 C.ar  335  TRP335      0.0810
     71  CE3       -1.9490   58.7610  177.8170 C.ar  335  TRP335      0.0012
     72  CZ2       -2.9890   61.0730  179.1000 C.ar  335  TRP335      0.0191
     73  CZ3       -3.0780   59.4260  177.3250 C.ar  335  TRP335      0.0001
     74  CH2       -3.5820   60.5710  177.9710 C.ar  335  TRP335      0.0015
     75  N          3.1000   59.3640  173.8920 N.3   338  VAL338     -0.1245
     76  CA         1.9870   59.7600  173.0410 C.3   338  VAL338      0.1561
     77  C          1.6390   61.2390  173.2190 C.2   338  VAL338      0.2260
     78  O          1.6360   62.0140  172.2560 O.2   338  VAL338     -0.2867
     79  CB         0.7310   58.9220  173.3460 C.3   338  VAL338      0.0252
     80  CG1       -0.3680   59.2530  172.3500 C.3   338  VAL338      0.0019
     81  CG2        1.0650   57.4580  173.2900 C.3   338  VAL338      0.0019
     82  N          3.0320   64.0260  183.5260 N.3   349  MET349     -0.1245
     83  CA         4.2730   63.2450  183.5680 C.3   349  MET349      0.1570
     84  C          5.3050   64.0870  182.8420 C.2   349  MET349      0.2261
     85  O          4.9800   64.7520  181.8510 O.2   349  MET349     -0.2867
     86  CB         4.1270   61.9130  182.8380 C.3   349  MET349      0.0387
     87  CG         3.5380   60.7890  183.6560 C.3   349  MET349      0.0595
     88  SD         3.2930   59.3540  182.6010 S.3   349  MET349     -0.1393
     89  CE         4.8010   58.4920  182.8420 C.3   349  MET349      0.0692
@<TRIPOS>BOND
     1     1     2    1
     2     6     5    1
     3     6     8    1
     4     5     2    1
     5     5     7    1
     6     2     3    1
     7     3     4    2
     8     9    10    1
     9    15    14    1
    10    10    13    1
    11    10    11    1
    12    13    14    1
    13    16    14    1
    14    17    11   am
    15    17    18    1
    16    11    12    2
    17    21    18    1
    18    21    22    1
    19    24    22   ar
    20    24    26   ar
    21    18    19    1
    22    22    23   ar
    23    19    20    2
    24    26    27   ar
    25    23    25   ar
    26    27    25   ar
    27    28    29    1
    28    34    32    1
    29    29    32    1
    30    29    30    1
    31    32    33    1
    32    78    77    2
    33    30    31    2
    34    80    79    1
    35    76    77    1
    36    76    79    1
    37    76    75    1
    38    81    79    1
    39    58    60   ar
    40    58    56   ar
    41    60    59   ar
    42    53    52    2
    43    56    55   ar
    44    59    57   ar
    45    57    55   ar
    46    55    54    1
    47    54    51    1
    48    64    63    2
    49    52    51    1
    50    52    61   am
    51    51    50    1
    52    73    71   ar
    53    73    74   ar
    54    63    62    1
    55    71    68   ar
    56    74    72   ar
    57    61    62    1
    58    62    65    1
    59    68    70   ar
    60    68    66   ar
    61    72    70   ar
    62    65    66    1
    63    36    39    1
    64    36    35    1
    65    36    37    1
    66    38    37    2
    67    70    69   ar
    68    66    67   ar
    69    40    39    1
    70    40    41    1
    71    35    41    1
    72    37    42   am
    73    69    67   ar
    74    45    44    2
    75    44    43    1
    76    42    43    1
    77    85    84    2
    78    43    46    1
    79    88    89    1
    80    88    87    1
    81    86    83    1
    82    86    87    1
    83    84    83    1
    84    46    47    1
    85    82    83    1
    86    48    47   ar
    87    47    49   ar
