@<TRIPOS>MOLECULE
tmp/5wieB02.pdb
 109 104 0 0 0
SMALL
GASTEIGER

@<TRIPOS>ATOM
      1  N        -34.5510   49.8870  185.0310 N.3   187  GLN187     -0.1231
      2  CA       -35.3760   49.0500  184.1630 C.3   187  GLN187      0.1698
      3  C        -36.5440   48.4880  184.9610 C.2   187  GLN187      0.2593
      4  O        -36.3610   47.6040  185.7910 O.2   187  GLN187     -0.2718
      5  CB       -34.5950   47.8610  183.6280 C.3   187  GLN187      0.0381
      6  CG       -33.5970   48.1570  182.5600 C.3   187  GLN187      0.0905
      7  CD       -32.9910   46.8940  181.9870 C.2   187  GLN187      0.2608
      8  OE1      -32.5120   46.0280  182.7280 O.2   187  GLN187     -0.2717
      9  NE2      -33.0020   46.7810  180.6580 N.am  187  GLN187     -0.0878
     10  N        -37.7160   49.0750  184.7550 N.am  188  SER188     -0.1938
     11  CA       -38.9260   48.6580  185.4260 C.3   188  SER188      0.2055
     12  C        -40.0660   48.6790  184.4600 C.2   188  SER188      0.2643
     13  O        -40.0960   49.5020  183.5850 O.2   188  SER188     -0.2714
     14  CB       -39.2690   49.6570  186.5030 C.3   188  SER188      0.2130
     15  OG       -39.5980   50.8980  185.9130 O.3   188  SER188     -0.2179
     16  N        -41.0310   47.8020  184.6650 N.am  189  THR189     -0.1950
     17  CA       -42.3030   47.8660  183.9800 C.3   189  THR189      0.1897
     18  C        -42.9930   49.1360  184.4150 C.2   189  THR189      0.2313
     19  O        -43.7430   49.7440  183.6850 O.2   189  THR189     -0.2863
     20  CB       -43.1750   46.6620  184.3140 C.3   189  THR189      0.1794
     21  OG1      -43.7450   46.8340  185.6100 O.3   189  THR189     -0.2208
     22  CG2      -42.3330   45.4230  184.3220 C.3   189  THR189      0.0378
     23  N        -42.0120   51.8740  184.7660 N.3   191  PHE191     -0.1241
     24  CA       -41.6440   53.0490  184.0090 C.3   191  PHE191      0.1605
     25  C        -41.6710   54.3010  184.8550 C.2   191  PHE191      0.2264
     26  O        -42.2920   55.2820  184.5040 O.2   191  PHE191     -0.2867
     27  CB       -42.5580   53.1920  182.8100 C.3   191  PHE191      0.0534
     28  CG       -42.1020   52.4070  181.6340 C.ar  191  PHE191     -0.0203
     29  CD1      -41.1680   52.9190  180.7820 C.ar  191  PHE191     -0.0042
     30  CD2      -42.5850   51.1460  181.4070 C.ar  191  PHE191     -0.0042
     31  CE1      -40.7250   52.1930  179.7130 C.ar  191  PHE191     -0.0003
     32  CE2      -42.1520   50.4050  180.3350 C.ar  191  PHE191     -0.0003
     33  CZ       -41.2170   50.9310  179.4890 C.ar  191  PHE191     -0.0000
     34  N        -35.3500   55.8320  181.6840 N.3   196  PHE196     -0.1241
     35  CA       -35.7350   54.5870  181.0600 C.3   196  PHE196      0.1605
     36  C        -36.8620   54.8450  180.0810 C.2   196  PHE196      0.2264
     37  O        -36.9950   54.1650  179.0720 O.2   196  PHE196     -0.2867
     38  CB       -36.1740   53.5850  182.1120 C.3   196  PHE196      0.0534
     39  CG       -36.5170   52.2530  181.5400 C.ar  196  PHE196     -0.0203
     40  CD1      -35.7010   51.6640  180.5920 C.ar  196  PHE196     -0.0042
     41  CD2      -37.6420   51.5730  181.9750 C.ar  196  PHE196     -0.0042
     42  CE1      -35.9910   50.4110  180.0760 C.ar  196  PHE196     -0.0003
     43  CE2      -37.9500   50.3150  181.4710 C.ar  196  PHE196     -0.0003
     44  CZ       -37.1220   49.7290  180.5190 C.ar  196  PHE196     -0.0000
     45  N        -36.4120   54.0250  176.1740 N.3   200  THR200     -0.1218
     46  CA       -37.2850   53.0560  175.5630 C.3   200  THR200      0.1862
     47  C        -37.9790   53.7090  174.3840 C.2   200  THR200      0.2287
     48  O        -37.9930   53.1870  173.2920 O.2   200  THR200     -0.2866
     49  CB       -38.1830   52.3810  176.6130 C.3   200  THR200      0.1770
     50  OG1      -37.3490   51.7080  177.5520 O.3   200  THR200     -0.2211
     51  CG2      -39.0620   51.3540  176.0170 C.3   200  THR200      0.0375
     52  N        -37.6080   52.4210  170.7160 N.3   204  ILE204     -0.1245
     53  CA       -38.8060   51.9110  170.0520 C.3   204  ILE204      0.1561
     54  C        -38.7220   52.3910  168.6000 C.2   204  ILE204      0.2260
     55  O        -38.9280   51.6280  167.6600 O.2   204  ILE204     -0.2867
     56  CB       -40.1160   52.4710  170.6830 C.3   204  ILE204      0.0252
     57  CG1      -40.3640   51.8720  172.0660 C.3   204  ILE204      0.0019
     58  CG2      -41.2820   52.1800  169.7720 C.3   204  ILE204      0.0019
     59  CD1      -40.3450   50.3630  172.0970 C.3   204  ILE204      0.0001
     60  N        -29.5970   48.0440  174.3550 N.3   239  TYR239     -0.1227
     61  CA       -30.8440   48.0020  175.0990 C.3   239  TYR239      0.1736
     62  C        -31.3510   46.5860  175.3470 C.2   239  TYR239      0.2595
     63  O        -31.5110   46.1690  176.4890 O.2   239  TYR239     -0.2718
     64  CB       -31.8920   48.7720  174.3350 C.3   239  TYR239      0.0548
     65  CG       -33.1990   48.9380  175.0550 C.ar  239  TYR239     -0.0200
     66  CD1      -33.3810   49.9640  175.9750 C.ar  239  TYR239     -0.0009
     67  CD2      -34.2810   48.0970  174.7730 C.ar  239  TYR239     -0.0009
     68  CE1      -34.6090   50.1710  176.5960 C.ar  239  TYR239      0.0417
     69  CE2      -35.5140   48.2880  175.3860 C.ar  239  TYR239      0.0417
     70  CZ       -35.6730   49.3290  176.2930 C.ar  239  TYR239      0.1957
     71  OH       -36.8900   49.5540  176.8800 O.3   239  TYR239     -0.2866
     72  N        -31.5940   45.8550  174.2680 N.am  240  TYR240     -0.1976
     73  CA       -32.0890   44.5000  174.3780 C.3   240  TYR240      0.1639
     74  C        -31.1290   43.5780  175.1050 C.2   240  TYR240      0.2290
     75  O        -31.5590   42.7160  175.8660 O.2   240  TYR240     -0.2864
     76  CB       -32.4290   43.9470  172.9880 C.3   240  TYR240      0.0560
     77  CG       -33.5620   44.6860  172.3330 C.ar  240  TYR240     -0.0198
     78  CD1      -34.8350   44.6710  172.8900 C.ar  240  TYR240     -0.0009
     79  CD2      -33.3450   45.4740  171.2000 C.ar  240  TYR240     -0.0009
     80  CE1      -35.8580   45.4330  172.3470 C.ar  240  TYR240      0.0417
     81  CE2      -34.3550   46.2350  170.6480 C.ar  240  TYR240      0.0417
     82  CZ       -35.6050   46.2100  171.2340 C.ar  240  TYR240      0.1957
     83  OH       -36.5730   47.0090  170.7260 O.3   240  TYR240     -0.2866
     84  N        -31.3830   44.1880  178.8690 N.3   243  ILE243     -0.1245
     85  CA       -32.5640   43.5550  179.4210 C.3   243  ILE243      0.1561
     86  C        -32.2650   42.0740  179.6530 C.2   243  ILE243      0.2260
     87  O        -32.3970   41.5630  180.7590 O.2   243  ILE243     -0.2867
     88  CB       -33.7560   43.6770  178.4590 C.3   243  ILE243      0.0252
     89  CG1      -34.1270   45.1380  178.2740 C.3   243  ILE243      0.0019
     90  CG2      -34.9490   42.9460  179.0230 C.3   243  ILE243      0.0019
     91  CD1      -35.1550   45.3510  177.1660 C.3   243  ILE243      0.0001
     92  N        -32.2060   40.3560  183.4590 N.3   247  GLU247     -0.1245
     93  CA       -33.2150   39.3730  183.7790 C.3   247  GLU247      0.1567
     94  C        -32.6330   37.9690  183.9150 C.2   247  GLU247      0.2260
     95  O        -33.2470   37.1170  184.5430 O.2   247  GLU247     -0.2867
     96  CB       -34.3190   39.4090  182.7310 C.3   247  GLU247      0.0388
     97  CG       -34.9760   40.7610  182.6590 C.3   247  GLU247      0.1160
     98  CD       -35.2270   41.3560  184.0440 C.2   247  GLU247      0.3649
     99  OE1      -35.9240   40.7030  184.8500 O.co2 247  GLU247     -0.2457
    100  OE2      -34.7400   42.4720  184.3300 O.co2 247  GLU247     -0.2457
    101  N        -30.7800   38.1700  187.9280 N.3   250  LYS250     -0.1245
    102  CA       -31.5490   39.0110  188.8200 C.3   250  LYS250      0.1561
    103  C        -31.1850   38.9260  190.3070 C.2   250  LYS250      0.2260
    104  O        -32.0350   38.9940  191.1690 O.2   250  LYS250     -0.2867
    105  CB       -33.0240   38.7310  188.6150 C.3   250  LYS250      0.0271
    106  CG       -33.9330   39.8270  189.1710 C.3   250  LYS250      0.0035
    107  CD       -33.9820   41.0540  188.2550 C.3   250  LYS250      0.0206
    108  CE       -34.9310   42.1130  188.7820 C.3   250  LYS250      0.1093
    109  NZ       -35.2040   43.0960  187.7040 N.3   250  LYS250     -0.1314
@<TRIPOS>BOND
     1    55    54    2
     2    54    53    1
     3    58    56    1
     4    53    56    1
     5    53    52    1
     6    81    79   ar
     7    81    82   ar
     8    56    57    1
     9    83    82    1
    10    79    77   ar
    11    82    80   ar
    12    57    59    1
    13    77    78   ar
    14    77    76    1
    15    80    78   ar
    16    76    73    1
    17    48    47    2
    18    72    73    1
    19    72    62   am
    20    64    65    1
    21    64    61    1
    22    60    61    1
    23    73    74    1
    24    47    46    1
    25    67    65   ar
    26    67    69   ar
    27    65    66   ar
    28    61    62    1
    29    74    75    2
    30    62    63    2
    31    69    70   ar
    32    46    45    1
    33    46    49    1
    34    66    68   ar
    35    51    49    1
    36    70    68   ar
    37    70    71    1
    38    49    50    1
    39    91    89    1
    40    89    88    1
    41    88    90    1
    42    88    85    1
    43    84    85    1
    44    37    36    2
    45    85    86    1
    46    33    31   ar
    47    33    32   ar
    48    86    87    2
    49    31    29   ar
    50    42    44   ar
    51    42    40   ar
    52    36    35    1
    53    32    30   ar
    54    44    43   ar
    55    40    39   ar
    56     9     7   am
    57    29    28   ar
    58    35    34    1
    59    35    38    1
    60    30    28   ar
    61    43    41   ar
    62    39    41   ar
    63    39    38    1
    64    28    27    1
    65     7     6    1
    66     7     8    2
    67     6     5    1
    68    97    96    1
    69    97    98    1
    70    96    93    1
    71    27    24    1
    72    92    93    1
    73    13    12    2
    74     5     2    1
    75    19    18    2
    76    93    94    1
    77    94    95    2
    78    17    20    1
    79    17    18    1
    80    17    16    1
    81    24    23    1
    82    24    25    1
    83    98   100   ar
    84    98    99   ar
    85     2     3    1
    86     2     1    1
    87    20    22    1
    88    20    21    1
    89    12    16   am
    90    12    11    1
    91    26    25    2
    92    10     3   am
    93    10    11    1
    94     3     4    2
    95    11    14    1
    96    15    14    1
    97   109   108    1
    98   101   102    1
    99   107   108    1
   100   107   106    1
   101   105   102    1
   102   105   106    1
   103   102   103    1
   104   103   104    2
