@<TRIPOS>MOLECULE
tmp/5wiiA00.pdb
 134 128 0 0 0
SMALL
GASTEIGER

@<TRIPOS>ATOM
      1  N        -39.4400  -15.1930    8.5590 N.3    20  HIS20      -0.1226
      2  CA       -40.0460  -13.8850    8.4150 C.3    20  HIS20       0.1752
      3  C        -39.6520  -12.9730    9.5430 C.2    20  HIS20       0.2596
      4  O        -39.4210  -11.7610    9.3390 O.2    20  HIS20      -0.2718
      5  CB       -41.5640  -14.0100    8.3600 C.3    20  HIS20       0.0759
      6  CG       -42.0950  -14.3710    6.9930 C.ar   20  HIS20       0.0818
      7  ND1      -41.5030  -13.9640    5.8560 N.ar   20  HIS20      -0.2268
      8  CD2      -43.2020  -15.1270    6.6110 C.ar   20  HIS20       0.1154
      9  CE1      -42.1920  -14.4330    4.7990 C.ar   20  HIS20       0.1986
     10  NE2      -43.2320  -15.1450    5.2630 N.ar   20  HIS20      -0.2212
     11  N        -39.5840  -13.5320   10.7480 N.am   21  ARG21      -0.1966
     12  CA       -39.4460  -12.7480   11.9690 C.3    21  ARG21       0.1729
     13  C        -37.9980  -12.4870   12.3720 C.2    21  ARG21       0.2616
     14  O        -37.6910  -11.4350   12.9310 O.2    21  ARG21      -0.2715
     15  CB       -40.1730  -13.4510   13.1160 C.3    21  ARG21       0.0348
     16  CG       -39.9890  -12.7800   14.4620 C.3    21  ARG21       0.0492
     17  CD       -41.1330  -13.1100   15.4050 C.3    21  ARG21       0.2205
     18  NE       -41.0120  -12.4160   16.6850 N.pl3  21  ARG21      -0.0865
     19  CZ       -41.9910  -12.3160   17.5780 C.cat  21  ARG21       0.5346
     20  NH1      -43.1760  -12.8600   17.3350 N.pl3  21  ARG21       0.1354
     21  NH2      -41.7890  -11.6660   18.7160 N.pl3  21  ARG21       0.1354
     22  N        -37.1140  -13.4380   12.0880 N.am   22  GLU22      -0.1963
     23  CA       -35.7310  -13.3580   12.5490 C.3    22  GLU22       0.1733
     24  C        -34.7530  -12.9410   11.4490 C.2    22  GLU22       0.2617
     25  O        -33.6420  -12.5040   11.7410 O.2    22  GLU22      -0.2715
     26  CB       -35.3030  -14.7020   13.1430 C.3    22  GLU22       0.0429
     27  CG       -36.0690  -15.0900   14.3980 C.3    22  GLU22       0.1163
     28  CD       -35.8770  -14.1030   15.5340 C.2    22  GLU22       0.3649
     29  OE1      -34.8310  -13.4200   15.5630 O.co2  22  GLU22      -0.2457
     30  OE2      -36.7750  -14.0070   16.3970 O.co2  22  GLU22      -0.2457
     31  N        -35.1630  -13.0750   10.1920 N.am   23  SER23      -0.1936
     32  CA       -34.3230  -12.6590    9.0740 C.3    23  SER23       0.2055
     33  C        -34.5000  -11.1720    8.8130 C.2    23  SER23       0.2643
     34  O        -35.5750  -10.6230    9.0500 O.2    23  SER23      -0.2714
     35  CB       -34.6650  -13.4450    7.8090 C.3    23  SER23       0.2130
     36  OG       -34.9470  -14.8000    8.1020 O.3    23  SER23      -0.2179
     37  N        -33.4460  -10.5240    8.3220 N.am   24  TYR24      -0.1973
     38  CA       -33.5310   -9.1220    7.9300 C.3    24  TYR24       0.1639
     39  C        -32.9680   -8.8880    6.5350 C.2    24  TYR24       0.2290
     40  O        -31.7760   -9.0640    6.2870 O.2    24  TYR24      -0.2864
     41  CB       -32.7990   -8.2250    8.9260 C.3    24  TYR24       0.0560
     42  CG       -32.9180   -6.7600    8.5720 C.ar   24  TYR24      -0.0198
     43  CD1      -34.0840   -6.0550    8.8410 C.ar   24  TYR24      -0.0009
     44  CD2      -31.8740   -6.0860    7.9530 C.ar   24  TYR24      -0.0009
     45  CE1      -34.2040   -4.7200    8.5120 C.ar   24  TYR24       0.0417
     46  CE2      -31.9850   -4.7490    7.6210 C.ar   24  TYR24       0.0417
     47  CZ       -33.1520   -4.0710    7.9020 C.ar   24  TYR24       0.1957
     48  OH       -33.2700   -2.7400    7.5740 O.3    24  TYR24      -0.2866
     49  N        -39.1270   -6.6470    3.4990 N.3    29  VAL29      -0.1245
     50  CA       -39.2590   -6.3910    4.9300 C.3    29  VAL29       0.1561
     51  C        -40.7200   -6.1420    5.2740 C.2    29  VAL29       0.2260
     52  O        -41.2070   -6.5860    6.3130 O.2    29  VAL29      -0.2867
     53  CB       -38.4040   -5.1850    5.3940 C.3    29  VAL29       0.0252
     54  CG1      -38.7460   -3.9280    4.6050 C.3    29  VAL29       0.0019
     55  CG2      -38.5790   -4.9420    6.8950 C.3    29  VAL29       0.0019
     56  N        -42.6830   -9.3580    5.2100 N.3    32  ASP32      -0.1239
     57  CA       -42.3320  -10.0890    6.4230 C.3    32  ASP32       0.1674
     58  C        -43.0940   -9.4920    7.5940 C.2    32  ASP32       0.2266
     59  O        -43.7720  -10.2000    8.3350 O.2    32  ASP32      -0.2867
     60  CB       -40.8250  -10.0390    6.6930 C.3    32  ASP32       0.1410
     61  CG       -40.0190  -10.8280    5.6780 C.2    32  ASP32       0.3668
     62  OD1      -40.5760  -11.7620    5.0630 O.co2  32  ASP32      -0.2456
     63  OD2      -38.8220  -10.5160    5.4990 O.co2  32  ASP32      -0.2456
     64  N        -43.4910   -7.5450   18.6100 N.3    48  TYR48      -0.1241
     65  CA       -42.6520   -7.5940   17.4180 C.3    48  TYR48       0.1605
     66  C        -42.6320   -6.2570   16.6890 C.2    48  TYR48       0.2264
     67  O        -41.5950   -5.8320   16.1810 O.2    48  TYR48      -0.2867
     68  CB       -43.1400   -8.6880   16.4670 C.3    48  TYR48       0.0534
     69  CG       -42.5140   -8.6160   15.0930 C.ar   48  TYR48      -0.0201
     70  CD1      -41.2220   -9.0750   14.8730 C.ar   48  TYR48      -0.0009
     71  CD2      -43.2140   -8.0900   14.0160 C.ar   48  TYR48      -0.0009
     72  CE1      -40.6450   -9.0100   13.6200 C.ar   48  TYR48       0.0417
     73  CE2      -42.6450   -8.0210   12.7590 C.ar   48  TYR48       0.0417
     74  CZ       -41.3610   -8.4830   12.5670 C.ar   48  TYR48       0.1957
     75  OH       -40.7880   -8.4180   11.3170 O.3    48  TYR48      -0.2866
     76  N        -40.2630   -2.7550   17.3340 N.3    51  LYS51      -0.1231
     77  CA       -38.9370   -2.4990   16.7780 C.3    51  LYS51       0.1693
     78  C        -38.9940   -1.6550   15.5040 C.2    51  LYS51       0.2592
     79  O        -37.9560   -1.3090   14.9380 O.2    51  LYS51      -0.2718
     80  CB       -38.2250   -3.8210   16.4830 C.3    51  LYS51       0.0285
     81  CG       -38.2860   -4.8320   17.6180 C.3    51  LYS51       0.0035
     82  CD       -37.5110   -6.0930   17.2740 C.3    51  LYS51       0.0206
     83  CE       -37.6520   -7.1540   18.3560 C.3    51  LYS51       0.1093
     84  NZ       -36.8050   -8.3490   18.0810 N.3    51  LYS51      -0.1314
     85  N        -40.2060   -1.3260   15.0610 N.am   52  PHE52      -0.1976
     86  CA       -40.4080   -0.5960   13.8120 C.3    52  PHE52       0.1639
     87  C        -41.0680    0.7620   14.0360 C.2    52  PHE52       0.2290
     88  O        -41.3360    1.4960   13.0840 O.2    52  PHE52      -0.2864
     89  CB       -41.2560   -1.4310   12.8490 C.3    52  PHE52       0.0560
     90  CG       -40.5300   -2.6090   12.2680 C.ar   52  PHE52      -0.0200
     91  CD1      -40.2400   -3.7170   13.0470 C.ar   52  PHE52      -0.0042
     92  CD2      -40.1320   -2.6060   10.9430 C.ar   52  PHE52      -0.0042
     93  CE1      -39.5710   -4.7980   12.5140 C.ar   52  PHE52      -0.0003
     94  CE2      -39.4630   -3.6860   10.4040 C.ar   52  PHE52      -0.0003
     95  CZ       -39.1820   -4.7830   11.1910 C.ar   52  PHE52      -0.0000
     96  N        -36.2760   -0.1200   13.1370 N.3    58  LEU58      -0.1245
     97  CA       -35.1940   -0.9540   12.6170 C.3    58  LEU58       0.1561
     98  C        -34.9870   -0.8050   11.1090 C.2    58  LEU58       0.2260
     99  O        -33.8560   -0.8410   10.6250 O.2    58  LEU58      -0.2867
    100  CB       -35.4670   -2.4210   12.9530 C.3    58  LEU58       0.0270
    101  CG       -34.2760   -3.3720   12.8440 C.3    58  LEU58       0.0019
    102  CD1      -33.2720   -3.0970   13.9510 C.3    58  LEU58       0.0001
    103  CD2      -34.7430   -4.8160   12.8870 C.3    58  LEU58       0.0001
    104  N        -31.2150    0.5810   10.1870 N.3    62  LEU62      -0.1245
    105  CA       -30.2420   -0.2750    9.5160 C.3    62  LEU62       0.1561
    106  C        -30.3250   -0.1300    8.0010 C.2    62  LEU62       0.2260
    107  O        -29.3040   -0.0350    7.3200 O.2    62  LEU62      -0.2867
    108  CB       -30.4580   -1.7380    9.9070 C.3    62  LEU62       0.0270
    109  CG       -30.4180   -2.0560   11.4030 C.3    62  LEU62       0.0019
    110  CD1      -30.7330   -3.5230   11.6350 C.3    62  LEU62       0.0001
    111  CD2      -29.0680   -1.6970   12.0080 C.3    62  LEU62       0.0001
    112  N        -26.8490   -3.8190    6.5830 N.3    66  GLU66      -0.1245
    113  CA       -26.5880   -5.1830    7.0240 C.3    66  GLU66       0.1567
    114  C        -27.7420   -6.0930    6.6290 C.2    66  GLU66       0.2260
    115  O        -28.7840   -5.6260    6.1670 O.2    66  GLU66      -0.2867
    116  CB       -26.3720   -5.2330    8.5390 C.3    66  GLU66       0.0388
    117  CG       -27.6210   -4.9470    9.3630 C.3    66  GLU66       0.1160
    118  CD       -27.3710   -5.0400   10.8550 C.2    66  GLU66       0.3649
    119  OE1      -26.4660   -4.3390   11.3530 O.co2  66  GLU66      -0.2457
    120  OE2      -28.0770   -5.8170   11.5310 O.co2  66  GLU66      -0.2457
    121  N        -29.4960  -10.3540    7.6200 N.3    68  THR68      -0.1218
    122  CA       -29.4850  -11.5370    8.4690 C.3    68  THR68       0.1862
    123  C        -30.2860  -12.6540    7.8140 C.2    68  THR68       0.2287
    124  O        -31.4880  -12.5150    7.5870 O.2    68  THR68      -0.2866
    125  CB       -30.0640  -11.2360    9.8650 C.3    68  THR68       0.1770
    126  OG1      -29.3250  -10.1700   10.4740 O.3    68  THR68      -0.2211
    127  CG2      -29.9960  -12.4670   10.7590 C.3    68  THR68       0.0375
    128  N        -28.7830  -18.0710   12.8570 N.3    90  THR90      -0.1218
    129  CA       -28.7360  -16.7900   12.1660 C.3    90  THR90       0.1862
    130  C        -27.2930  -16.4040   11.8650 C.2    90  THR90       0.2287
    131  O        -26.4230  -16.5080   12.7320 O.2    90  THR90      -0.2866
    132  CB       -29.3930  -15.6730   12.9950 C.3    90  THR90       0.1770
    133  OG1      -28.8980  -15.7150   14.3390 O.3    90  THR90      -0.2211
    134  CG2      -30.9020  -15.8380   13.0130 C.3    90  THR90       0.0375
@<TRIPOS>BOND
     1    49    50    1
     2    54    53    1
     3     9    10   ar
     4     9     7   ar
     5    50    51    1
     6    50    53    1
     7    62    61   ar
     8    56    57    1
     9    10     8   ar
    10    51    52    2
    11    53    55    1
    12    63    61   ar
    13    61    60    1
    14     7     6   ar
    15   115   114    2
    16    40    39    2
    17    57    60    1
    18    57    58    1
    19    39    38    1
    20   112   113    1
    21     8     6   ar
    22   114   113    1
    23     6     5    1
    24   113   116    1
    25   107   106    2
    26    48    47    1
    27   124   123    2
    28    58    59    2
    29   121   122    1
    30    46    47   ar
    31    46    44   ar
    32    35    36    1
    33    35    32    1
    34   123   122    1
    35    47    45   ar
    36    38    37    1
    37    38    41    1
    38    44    42   ar
    39   106   105    1
    40    37    33   am
    41     5     2    1
    42     2     1    1
    43     2     3    1
    44   122   125    1
    45    45    43   ar
    46   116   117    1
    47    42    43   ar
    48    42    41    1
    49    33    34    2
    50    33    32    1
    51    32    31    1
    52     4     3    2
    53   117   118    1
    54   105   108    1
    55   105   104    1
    56     3    11   am
    57   125   126    1
    58   125   127    1
    59   108   109    1
    60    31    24   am
    61    94    92   ar
    62    94    95   ar
    63    99    98    2
    64    11    12    1
    65   118   119   ar
    66   118   120   ar
    67    92    90   ar
    68    98    97    1
    69    95    93   ar
    70    75    74    1
    71   109   110    1
    72   109   111    1
    73    24    25    2
    74    24    23    1
    75   130   129    1
    76   130   131    2
    77    12    13    1
    78    12    15    1
    79    22    13   am
    80    22    23    1
    81   129   128    1
    82   129   132    1
    83    90    89    1
    84    90    91   ar
    85    13    14    2
    86    93    91   ar
    87    23    26    1
    88    74    73   ar
    89    74    72   ar
    90    97   100    1
    91    97    96    1
    92    73    71   ar
    93   101   103    1
    94   101   100    1
    95   101   102    1
    96    89    86    1
    97   132   134    1
    98   132   133    1
    99    88    87    2
   100    15    16    1
   101    26    27    1
   102    72    70   ar
   103    86    87    1
   104    86    85    1
   105    71    69   ar
   106    27    28    1
   107    16    17    1
   108    70    69   ar
   109    79    78    2
   110    85    78   am
   111    69    68    1
   112    17    18    1
   113    78    77    1
   114    28    29   ar
   115    28    30   ar
   116    67    66    2
   117    68    65    1
   118    80    77    1
   119    80    81    1
   120    18    19    2
   121    66    65    1
   122    77    76    1
   123    82    81    1
   124    82    83    1
   125    20    19    1
   126    65    64    1
   127    19    21    1
   128    84    83    1
