@<TRIPOS>MOLECULE
tmp/5wijA00.pdb
 174 166 0 0 0
SMALL
GASTEIGER

@<TRIPOS>ATOM
      1  N         -2.8150  -14.8740    0.1840 N.3    16  LEU16      -0.1231
      2  CA        -3.6130  -13.9880    1.0190 C.3    16  LEU16       0.1693
      3  C         -5.0580  -13.8810    0.5560 C.2    16  LEU16       0.2593
      4  O         -5.9210  -13.4900    1.3510 O.2    16  LEU16      -0.2718
      5  CB        -2.9840  -12.5930    1.0570 C.3    16  LEU16       0.0284
      6  CG        -1.5630  -12.5480    1.6220 C.3    16  LEU16       0.0019
      7  CD1       -0.9550  -11.1690    1.4550 C.3    16  LEU16       0.0001
      8  CD2       -1.5550  -12.9650    3.0860 C.3    16  LEU16       0.0001
      9  N         -5.3430  -14.2220   -0.6940 N.am   17  GLY17      -0.1942
     10  CA        -6.7000  -14.1460   -1.1960 C.3    17  GLY17       0.2014
     11  C         -6.7000  -14.0130   -2.7090 C.2    17  GLY17       0.2639
     12  O         -5.7480  -14.4060   -3.3800 O.2    17  GLY17      -0.2714
     13  N         -7.7970  -13.4570   -3.2170 N.am   18  GLN18      -0.1963
     14  CA        -7.9800  -13.2500   -4.6440 C.3    18  GLN18       0.1733
     15  C         -8.5740  -11.8710   -4.8840 C.2    18  GLN18       0.2616
     16  O         -9.4670  -11.4350   -4.1530 O.2    18  GLN18      -0.2715
     17  CB        -8.9050  -14.3100   -5.2580 C.3    18  GLN18       0.0408
     18  CG        -8.4560  -15.7470   -5.0640 C.3    18  GLN18       0.0908
     19  CD        -9.5460  -16.7390   -5.4180 C.2    18  GLN18       0.2608
     20  OE1      -10.7130  -16.3730   -5.5530 O.2    18  GLN18      -0.2717
     21  NE2       -9.1700  -18.0030   -5.5730 N.am   18  GLN18      -0.0878
     22  N         -8.0710  -11.1920   -5.9080 N.am   19  GLY19      -0.1955
     23  CA        -8.6840   -9.9920   -6.4250 C.3    19  GLY19       0.1869
     24  C         -9.5570  -10.2940   -7.6240 C.2    19  GLY19       0.2309
     25  O        -10.0020  -11.4270   -7.8360 O.2    19  GLY19      -0.2863
     26  N         -3.3850  -13.2900   -4.9030 N.3    24  ILE24      -0.1245
     27  CA        -2.5810  -12.4300   -4.0420 C.3    24  ILE24       0.1561
     28  C         -1.7580  -13.3060   -3.1080 C.2    24  ILE24       0.2260
     29  O         -2.3030  -14.1870   -2.4340 O.2    24  ILE24      -0.2867
     30  CB        -3.4610  -11.4520   -3.2410 C.3    24  ILE24       0.0252
     31  CG1       -4.5070  -10.8080   -4.1520 C.3    24  ILE24       0.0019
     32  CG2       -2.6060  -10.3880   -2.5840 C.3    24  ILE24       0.0019
     33  CD1       -3.9220  -10.0400   -5.3110 C.3    24  ILE24       0.0001
     34  N          4.2630   -7.8180   -1.4520 N.3    44  LEU44      -0.1245
     35  CA         2.9820   -8.3400   -1.9020 C.3    44  LEU44       0.1561
     36  C          3.0670   -8.6290   -3.3930 C.2    44  LEU44       0.2260
     37  O          3.5040   -7.7750   -4.1730 O.2    44  LEU44      -0.2867
     38  CB         1.8410   -7.3630   -1.6220 C.3    44  LEU44       0.0270
     39  CG         0.4880   -7.9880   -1.9680 C.3    44  LEU44       0.0019
     40  CD1       -0.2940   -8.3180   -0.7080 C.3    44  LEU44       0.0001
     41  CD2       -0.3100   -7.1090   -2.9090 C.3    44  LEU44       0.0001
     42  N          1.0030   -9.6930   -6.7290 N.3    46  LYS46      -0.1245
     43  CA        -0.2730   -9.8020   -7.4260 C.3    46  LYS46       0.1561
     44  C         -0.0330  -10.4690   -8.7730 C.2    46  LYS46       0.2260
     45  O          0.6830   -9.9230   -9.6190 O.2    46  LYS46      -0.2867
     46  CB        -0.9220   -8.4310   -7.6190 C.3    46  LYS46       0.0271
     47  CG        -1.3790   -7.7630   -6.3350 C.3    46  LYS46       0.0035
     48  CD        -2.1690   -6.4970   -6.6290 C.3    46  LYS46       0.0206
     49  CE        -2.7180   -5.8790   -5.3550 C.3    46  LYS46       0.1093
     50  NZ        -3.3720   -4.5660   -5.6120 N.3    46  LYS46      -0.1314
     51  N         -0.0970    3.3360   -1.9720 N.3    75  VAL75      -0.1245
     52  CA         0.7380    2.1490   -1.8340 C.3    75  VAL75       0.1561
     53  C          1.8760    2.1950   -2.8440 C.2    75  VAL75       0.2260
     54  O          1.6940    2.6040   -4.0000 O.2    75  VAL75      -0.2867
     55  CB        -0.1130    0.8780   -2.0000 C.3    75  VAL75       0.0252
     56  CG1        0.7610   -0.3670   -1.9830 C.3    75  VAL75       0.0019
     57  CG2       -1.1540    0.8050   -0.9020 C.3    75  VAL75       0.0019
     58  N          4.4960   -5.2410   -4.9320 N.3    91  GLN91      -0.1231
     59  CA         4.1080   -4.0520   -4.1900 C.3    91  GLN91       0.1698
     60  C          4.5340   -4.1790   -2.7330 C.2    91  GLN91       0.2592
     61  O          4.8910   -5.2590   -2.2540 O.2    91  GLN91      -0.2718
     62  CB         2.5960   -3.8210   -4.2830 C.3    91  GLN91       0.0381
     63  CG         2.0680   -3.8100   -5.7050 C.3    91  GLN91       0.0905
     64  CD         0.6030   -3.4360   -5.7830 C.2    91  GLN91       0.2608
     65  OE1       -0.1860   -3.7710   -4.8990 O.2    91  GLN91      -0.2717
     66  NE2        0.2310   -2.7280   -6.8440 N.am   91  GLN91      -0.0878
     67  N          4.4860   -3.0520   -2.0280 N.am   92  GLU92      -0.1966
     68  CA         4.8660   -3.0350   -0.6230 C.3    92  GLU92       0.1733
     69  C          3.8840   -3.8620    0.1980 C.2    92  GLU92       0.2616
     70  O          2.6820   -3.8970   -0.0870 O.2    92  GLU92      -0.2715
     71  CB         4.9280   -1.5960   -0.0990 C.3    92  GLU92       0.0429
     72  CG         3.6250   -1.0550    0.4790 C.3    92  GLU92       0.1163
     73  CD         3.7230    0.4040    0.8890 C.2    92  GLU92       0.3649
     74  OE1        3.3900    1.2790    0.0620 O.co2  92  GLU92      -0.2457
     75  OE2        4.1390    0.6770    2.0350 O.co2  92  GLU92      -0.2457
     76  N          4.4050   -4.5500    1.2080 N.am   93  PHE93      -0.1960
     77  CA         3.5760   -5.3530    2.0960 C.3    93  PHE93       0.1771
     78  C          3.1700   -4.5070    3.2970 C.2    93  PHE93       0.2619
     79  O          4.0260   -4.0480    4.0610 O.2    93  PHE93      -0.2715
     80  CB         4.3060   -6.6160    2.5480 C.3    93  PHE93       0.0574
     81  CG         3.4610   -7.5320    3.3900 C.ar   93  PHE93      -0.0200
     82  CD1        2.5600   -8.4030    2.7990 C.ar   93  PHE93      -0.0042
     83  CD2        3.5630   -7.5180    4.7710 C.ar   93  PHE93      -0.0042
     84  CE1        1.7780   -9.2450    3.5700 C.ar   93  PHE93      -0.0003
     85  CE2        2.7840   -8.3570    5.5480 C.ar   93  PHE93      -0.0003
     86  CZ         1.8920   -9.2220    4.9460 C.ar   93  PHE93      -0.0000
     87  N          1.8680   -4.2970    3.4500 N.am   94  VAL94      -0.1963
     88  CA         1.3010   -3.5640    4.5750 C.3    94  VAL94       0.1727
     89  C          0.9180   -4.5760    5.6450 C.2    94  VAL94       0.2616
     90  O          0.2290   -5.5600    5.3540 O.2    94  VAL94      -0.2715
     91  CB         0.0900   -2.7290    4.1290 C.3    94  VAL94       0.0290
     92  CG1       -0.4700   -1.9610    5.2900 C.3    94  VAL94       0.0023
     93  CG2        0.4910   -1.7820    3.0030 C.3    94  VAL94       0.0023
     94  N          1.3560   -4.3380    6.8840 N.am   95  LYS95      -0.1963
     95  CA         1.3830   -5.4180    7.8680 C.3    95  LYS95       0.1728
     96  C          0.0070   -5.7800    8.4210 C.2    95  LYS95       0.2616
     97  O         -0.1840   -6.9160    8.8680 O.2    95  LYS95      -0.2715
     98  CB         2.3260   -5.0680    9.0220 C.3    95  LYS95       0.0311
     99  CG         2.0320   -3.7560    9.7260 C.3    95  LYS95       0.0038
    100  CD         2.5730   -3.7740   11.1540 C.3    95  LYS95       0.0206
    101  CE         3.9880   -4.3290   11.2240 C.3    95  LYS95       0.1093
    102  NZ         4.4610   -4.4610   12.6310 N.3    95  LYS95      -0.1314
    103  N         -0.9570   -4.8610    8.4180 N.am   96  PHE96      -0.1960
    104  CA        -2.2490   -5.1310    9.0380 C.3    96  PHE96       0.1771
    105  C         -3.3660   -5.3950    8.0320 C.2    96  PHE96       0.2620
    106  O         -4.5280   -5.5110    8.4330 O.2    96  PHE96      -0.2715
    107  CB        -2.6430   -3.9860    9.9720 C.3    96  PHE96       0.0574
    108  CG        -1.8220   -3.9210   11.2280 C.ar   96  PHE96      -0.0200
    109  CD1       -1.8260   -4.9750   12.1280 C.ar   96  PHE96      -0.0042
    110  CD2       -1.0520   -2.8070   11.5130 C.ar   96  PHE96      -0.0042
    111  CE1       -1.0740   -4.9200   13.2860 C.ar   96  PHE96      -0.0003
    112  CE2       -0.3000   -2.7450   12.6710 C.ar   96  PHE96      -0.0003
    113  CZ        -0.3090   -3.8050   13.5580 C.ar   96  PHE96      -0.0000
    114  N         -3.0490   -5.4980    6.7460 N.am   97  GLY97      -0.1940
    115  CA        -4.0260   -5.9590    5.7770 C.3    97  GLY97       0.2014
    116  C         -5.0710   -4.9250    5.3950 C.2    97  GLY97       0.2639
    117  O         -4.9430   -3.7220    5.6510 O.2    97  GLY97      -0.2714
    118  N         -6.1350   -5.4240    4.7690 N.am   98  SER98      -0.1949
    119  CA        -7.1690   -4.5710    4.2050 C.3    98  SER98       0.1924
    120  C         -8.1010   -4.0420    5.2890 C.2    98  SER98       0.2314
    121  O         -8.2860   -4.6590    6.3420 O.2    98  SER98      -0.2863
    122  CB        -7.9780   -5.3310    3.1530 C.3    98  SER98       0.2116
    123  OG        -8.7120   -6.3910    3.7400 O.3    98  SER98      -0.2180
    124  N        -11.6720   -6.1740    6.1940 N.3   101  THR101     -0.1203
    125  CA       -11.5380   -7.2620    7.1570 C.3   101  THR101      0.1994
    126  C        -11.2340   -6.7210    8.5470 C.2   101  THR101      0.2617
    127  O        -11.7590   -7.2280    9.5450 O.2   101  THR101     -0.2717
    128  CB       -10.4510   -8.2390    6.7090 C.3   101  THR101      0.1784
    129  OG1       -9.2210   -7.5330    6.5040 O.3   101  THR101     -0.2211
    130  CG2      -10.8570   -8.9360    5.4170 C.3   101  THR101      0.0376
    131  N        -10.4060   -5.6770    8.6310 N.am  102  TYR102     -0.1975
    132  CA       -10.0820   -5.0940    9.9280 C.3   102  TYR102      0.1639
    133  C        -11.3190   -4.5010   10.5920 C.2   102  TYR102      0.2290
    134  O        -11.4630   -4.5630   11.8180 O.2   102  TYR102     -0.2864
    135  CB        -8.9970   -4.0310    9.7680 C.3   102  TYR102      0.0560
    136  CG        -8.4090   -3.5680   11.0790 C.ar  102  TYR102     -0.0198
    137  CD1       -7.3590   -4.2570   11.6700 C.ar  102  TYR102     -0.0009
    138  CD2       -8.9040   -2.4430   11.7280 C.ar  102  TYR102     -0.0009
    139  CE1       -6.8190   -3.8410   12.8690 C.ar  102  TYR102      0.0417
    140  CE2       -8.3680   -2.0190   12.9290 C.ar  102  TYR102      0.0417
    141  CZ        -7.3250   -2.7210   13.4950 C.ar  102  TYR102      0.1957
    142  OH        -6.7880   -2.3030   14.6900 O.3   102  TYR102     -0.2866
    143  N        -13.4590   -7.6610   11.9960 N.3   105  LYS105     -0.1245
    144  CA       -12.9050   -8.3430   13.1600 C.3   105  LYS105      0.1561
    145  C        -12.7890   -7.4200   14.3670 C.2   105  LYS105      0.2260
    146  O        -12.9190   -7.8810   15.5060 O.2   105  LYS105     -0.2867
    147  CB       -11.5480   -8.9520   12.8040 C.3   105  LYS105      0.0271
    148  CG       -11.6480  -10.3850   12.2960 C.3   105  LYS105      0.0035
    149  CD       -10.5340  -10.7380   11.3240 C.3   105  LYS105      0.0206
    150  CE       -10.7940  -10.1430    9.9520 C.3   105  LYS105      0.1093
    151  NZ       -12.1940  -10.3870    9.5000 N.3   105  LYS105     -0.1314
    152  N        -11.8950   -2.7090    0.7150 N.3   142  LYS142     -0.1245
    153  CA       -10.9500   -3.7580    0.3400 C.3   142  LYS142      0.1561
    154  C         -9.6180   -3.1670   -0.1050 C.2   142  LYS142      0.2260
    155  O         -8.5540   -3.7370    0.1660 O.2   142  LYS142     -0.2867
    156  CB       -11.5300   -4.6260   -0.7760 C.3   142  LYS142      0.0271
    157  CG       -12.6370   -5.5780   -0.3590 C.3   142  LYS142      0.0035
    158  CD       -13.0800   -6.4090   -1.5550 C.3   142  LYS142      0.0206
    159  CE       -14.1990   -7.3720   -1.2050 C.3   142  LYS142      0.1093
    160  NZ       -14.6550   -8.1140   -2.4140 N.3   142  LYS142     -0.1314
    161  N         -5.5080   -0.1760    2.9800 N.3   145  LEU145     -0.1245
    162  CA        -4.5970   -0.9990    3.7620 C.3   145  LEU145      0.1561
    163  C         -4.1760   -0.2530    5.0200 C.2   145  LEU145      0.2260
    164  O         -3.9440    0.9590    4.9840 O.2   145  LEU145     -0.2867
    165  CB        -3.3680   -1.3780    2.9370 C.3   145  LEU145      0.0270
    166  CG        -3.6880   -1.8860    1.5310 C.3   145  LEU145      0.0019
    167  CD1       -2.4120   -2.1010    0.7490 C.3   145  LEU145      0.0001
    168  CD2       -4.5070   -3.1680    1.5920 C.3   145  LEU145      0.0001
    169  N         -4.6220    1.4430   -2.1880 N.3   163  SER163     -0.1217
    170  CA        -3.9540    0.5960   -3.1630 C.3   163  SER163      0.1889
    171  C         -4.4360    0.9280   -4.5750 C.2   163  SER163      0.2288
    172  O         -5.3030    1.7800   -4.7830 O.2   163  SER163     -0.2866
    173  CB        -4.1830   -0.8780   -2.8340 C.3   163  SER163      0.2089
    174  OG        -5.5520   -1.2200   -2.9540 O.3   163  SER163     -0.2183
@<TRIPOS>BOND
     1    45    44    2
     2    44    43    1
     3    25    24    2
     4    24    23    1
     5    46    43    1
     6    46    47    1
     7    43    42    1
     8    66    64   am
     9    48    47    1
    10    48    49    1
    11    23    22    1
    12    22    15   am
    13    64    63    1
    14    64    65    2
    15    63    62    1
    16    50    49    1
    17    21    19   am
    18    20    19    2
    19    19    18    1
    20    33    31    1
    21    17    18    1
    22    17    14    1
    23    58    59    1
    24    26    27    1
    25    15    14    1
    26    15    16    2
    27   172   171    2
    28    14    13    1
    29   171   170    1
    30    62    59    1
    31    59    60    1
    32    37    36    2
    33    31    30    1
    34    27    30    1
    35    27    28    1
    36    54    53    2
    37    36    35    1
    38    12    11    2
    39    30    32    1
    40    13    11   am
    41   170   173    1
    42   170   169    1
    43    28    29    2
    44   174   173    1
    45    41    39    1
    46    53    52    1
    47    60    61    2
    48    60    67   am
    49    11    10    1
    50   160   159    1
    51    67    68    1
    52    55    56    1
    53    55    52    1
    54    55    57    1
    55    51    52    1
    56    39    38    1
    57    39    40    1
    58    35    38    1
    59    35    34    1
    60   158   159    1
    61   158   157    1
    62    10     9    1
    63   156   157    1
    64   156   153    1
    65     9     3   am
    66    68    71    1
    67    68    69    1
    68   154   155    2
    69   154   153    1
    70    71    72    1
    71    70    69    2
    72    74    73   ar
    73     1     2    1
    74    69    76   am
    75   153   152    1
    76    72    73    1
    77     3     2    1
    78     3     4    2
    79   167   166    1
    80    73    75   ar
    81     2     5    1
    82     5     6    1
    83    76    77    1
    84     7     6    1
    85   166   168    1
    86   166   165    1
    87     6     8    1
    88    77    80    1
    89    77    78    1
    90    80    81    1
    91    82    81   ar
    92    82    84   ar
    93   165   162    1
    94   161   162    1
    95    93    91    1
    96   122   123    1
    97   122   119    1
    98    78    87   am
    99    78    79    2
   100    81    83   ar
   101    87    88    1
   102    84    86   ar
   103   162   163    1
   104    91    88    1
   105    91    92    1
   106   119   118    1
   107   119   120    1
   108    88    89    1
   109   118   116   am
   110    83    85   ar
   111    86    85   ar
   112   164   163    2
   113   120   121    2
   114    90    89    2
   115   116   117    2
   116   116   115    1
   117   130   128    1
   118    89    94   am
   119   115   114    1
   120   124   125    1
   121   129   128    1
   122   128   125    1
   123   114   105   am
   124    94    95    1
   125   125   126    1
   126    95    96    1
   127    95    98    1
   128   105   106    2
   129   105   104    1
   130   103    96   am
   131   103   104    1
   132    96    97    2
   133   126   131   am
   134   126   127    2
   135   131   132    1
   136    98    99    1
   137   104   107    1
   138   151   150    1
   139    99   100    1
   140   135   132    1
   141   135   136    1
   142   132   133    1
   143   150   149    1
   144   107   108    1
   145   133   134    2
   146   136   137   ar
   147   136   138   ar
   148   100   101    1
   149   101   102    1
   150   108   110   ar
   151   108   109   ar
   152   149   148    1
   153   110   112   ar
   154   137   139   ar
   155   138   140   ar
   156   143   144    1
   157   109   111   ar
   158   148   147    1
   159   112   113   ar
   160   147   144    1
   161   139   141   ar
   162   140   141   ar
   163   144   145    1
   164   111   113   ar
   165   141   142    1
   166   145   146    2
