@<TRIPOS>MOLECULE
tmp/5wikA00.pdb
 165 157 0 0 0
SMALL
GASTEIGER

@<TRIPOS>ATOM
      1  N         25.6050   75.6020   89.5770 N.3    16  LEU16      -0.1231
      2  CA        24.8920   74.6780   88.7070 C.3    16  LEU16       0.1693
      3  C         23.4450   74.4570   89.1210 C.2    16  LEU16       0.2593
      4  O         22.6340   74.0420   88.2860 O.2    16  LEU16      -0.2718
      5  CB        25.6150   73.3270   88.6690 C.3    16  LEU16       0.0284
      6  CG        27.0510   73.3670   88.1480 C.3    16  LEU16       0.0019
      7  CD1       27.7290   72.0240   88.3470 C.3    16  LEU16       0.0001
      8  CD2       27.0760   73.7730   86.6820 C.3    16  LEU16       0.0001
      9  N         23.1070   74.7230   90.3730 N.am   17  GLY17      -0.1942
     10  CA        21.7510   74.5190   90.8510 C.3    17  GLY17       0.2014
     11  C         21.7430   74.3680   92.3620 C.2    17  GLY17       0.2638
     12  O         22.6080   74.9030   93.0560 O.2    17  GLY17      -0.2714
     13  N         20.7500   73.6270   92.8470 N.am   18  GLN18      -0.1977
     14  CA        20.5520   73.4490   94.2760 C.3    18  GLN18       0.1601
     15  C         20.1410   72.0160   94.5710 C.2    18  GLN18       0.2287
     16  O         19.4890   71.3560   93.7570 O.2    18  GLN18      -0.2864
     17  CB        19.4730   74.3920   94.8260 C.3    18  GLN18       0.0394
     18  CG        19.7130   75.8670   94.5750 C.3    18  GLN18       0.0908
     19  CD        18.4200   76.6510   94.5490 C.2    18  GLN18       0.2608
     20  OE1       17.5230   76.3550   93.7620 O.2    18  GLN18      -0.2717
     21  NE2       18.3100   77.6460   95.4200 N.am   18  GLN18      -0.0878
     22  N         25.1540   74.0890   94.8240 N.3    24  ILE24      -0.1245
     23  CA        25.9830   73.2000   94.0180 C.3    24  ILE24       0.1561
     24  C         26.6980   74.0210   92.9540 C.2    24  ILE24       0.2260
     25  O         26.0680   74.8160   92.2460 O.2    24  ILE24      -0.2867
     26  CB        25.1410   72.0770   93.3860 C.3    24  ILE24       0.0252
     27  CG1       24.5930   71.1600   94.4830 C.3    24  ILE24       0.0019
     28  CG2       25.9590   71.2880   92.3810 C.3    24  ILE24       0.0019
     29  CD1       23.6240   70.1150   93.9910 C.3    24  ILE24       0.0001
     30  N         32.7370   68.6230   91.3640 N.3    44  LEU44      -0.1245
     31  CA        31.4680   69.1580   91.8320 C.3    44  LEU44       0.1561
     32  C         31.5920   69.5030   93.3080 C.2    44  LEU44       0.2260
     33  O         32.1950   68.7530   94.0820 O.2    44  LEU44      -0.2867
     34  CB        30.3260   68.1620   91.6260 C.3    44  LEU44       0.0270
     35  CG        28.9480   68.7490   91.9340 C.3    44  LEU44       0.0019
     36  CD1       28.2230   69.1100   90.6460 C.3    44  LEU44       0.0001
     37  CD2       28.1190   67.8080   92.7950 C.3    44  LEU44       0.0001
     38  N         29.3100   70.4800   96.5120 N.3    46  LYS46      -0.1245
     39  CA        28.0410   70.6260   97.2130 C.3    46  LYS46       0.1561
     40  C         28.2870   71.3520   98.5290 C.2    46  LYS46       0.2260
     41  O         29.0000   70.8440   99.4010 O.2    46  LYS46      -0.2867
     42  CB        27.3920   69.2660   97.4670 C.3    46  LYS46       0.0271
     43  CG        26.8520   68.5860   96.2230 C.3    46  LYS46       0.0035
     44  CD        26.1840   67.2680   96.5740 C.3    46  LYS46       0.0206
     45  CE        25.6480   66.5750   95.3340 C.3    46  LYS46       0.1093
     46  NZ        25.1440   65.2070   95.6360 N.3    46  LYS46      -0.1314
     47  N         28.4470   57.5150   91.7170 N.3    75  VAL75      -0.1245
     48  CA        29.2680   58.7120   91.5770 C.3    75  VAL75       0.1561
     49  C         30.4460   58.6510   92.5400 C.2    75  VAL75       0.2260
     50  O         30.2990   58.2860   93.7140 O.2    75  VAL75      -0.2867
     51  CB        28.4140   59.9710   91.8100 C.3    75  VAL75       0.0252
     52  CG1       29.2960   61.1850   92.0630 C.3    75  VAL75       0.0019
     53  CG2       27.5050   60.2170   90.6170 C.3    75  VAL75       0.0019
     54  N         32.9930   65.9870   94.6770 N.3    91  GLN91      -0.1231
     55  CA        32.5520   64.7940   93.9750 C.3    91  GLN91       0.1698
     56  C         32.8790   64.8980   92.4920 C.2    91  GLN91       0.2592
     57  O         33.1780   65.9750   91.9700 O.2    91  GLN91      -0.2718
     58  CB        31.0480   64.5630   94.1670 C.3    91  GLN91       0.0381
     59  CG        30.6650   64.2210   95.5950 C.3    91  GLN91       0.0905
     60  CD        29.1680   64.2090   95.8120 C.2    91  GLN91       0.2608
     61  OE1       28.5400   65.2600   95.9130 O.2    91  GLN91      -0.2717
     62  NE2       28.5880   63.0180   95.8860 N.am   91  GLN91      -0.0878
     63  N         32.8140   63.7470   91.8260 N.am   92  GLU92      -0.1966
     64  CA        33.0980   63.6650   90.4000 C.3    92  GLU92       0.1733
     65  C         32.1760   64.5840   89.6110 C.2    92  GLU92       0.2616
     66  O         30.9570   64.5720   89.8000 O.2    92  GLU92      -0.2715
     67  CB        32.9350   62.2190   89.9300 C.3    92  GLU92       0.0429
     68  CG        32.9000   62.0350   88.4220 C.3    92  GLU92       0.1163
     69  CD        32.4650   60.6350   88.0240 C.2    92  GLU92       0.3649
     70  OE1       31.9240   59.9110   88.8870 O.co2  92  GLU92      -0.2457
     71  OE2       32.6660   60.2570   86.8500 O.co2  92  GLU92      -0.2457
     72  N         32.7610   65.3890   88.7270 N.am   93  PHE93      -0.1960
     73  CA        31.9770   66.2500   87.8540 C.3    93  PHE93       0.1771
     74  C         31.6440   65.5090   86.5670 C.2    93  PHE93       0.2619
     75  O         32.5210   64.9070   85.9400 O.2    93  PHE93      -0.2715
     76  CB        32.7120   67.5520   87.5320 C.3    93  PHE93       0.0574
     77  CG        31.9070   68.4980   86.6850 C.ar   93  PHE93      -0.0200
     78  CD1       30.9490   69.3180   87.2610 C.ar   93  PHE93      -0.0042
     79  CD2       32.0920   68.5550   85.3120 C.ar   93  PHE93      -0.0042
     80  CE1       30.1980   70.1840   86.4860 C.ar   93  PHE93      -0.0003
     81  CE2       31.3440   69.4190   84.5330 C.ar   93  PHE93      -0.0003
     82  CZ        30.3960   70.2340   85.1210 C.ar   93  PHE93      -0.0000
     83  N         30.3740   65.5640   86.1810 N.am   94  VAL94      -0.1963
     84  CA        29.8690   64.9260   84.9730 C.3    94  VAL94       0.1727
     85  C         29.4680   66.0260   84.0010 C.2    94  VAL94       0.2616
     86  O         28.7670   66.9710   84.3830 O.2    94  VAL94      -0.2715
     87  CB        28.6850   63.9980   85.2920 C.3    94  VAL94       0.0290
     88  CG1       28.1610   63.3600   84.0310 C.3    94  VAL94       0.0023
     89  CG2       29.1040   62.9360   86.3010 C.3    94  VAL94       0.0023
     90  N         29.9130   65.9070   82.7470 N.am   95  LYS95      -0.1963
     91  CA        29.7600   67.0170   81.8100 C.3    95  LYS95       0.1728
     92  C         28.3020   67.2440   81.4290 C.2    95  LYS95       0.2616
     93  O         27.8390   68.3900   81.3900 O.2    95  LYS95      -0.2715
     94  CB        30.6040   66.7790   80.5570 C.3    95  LYS95       0.0311
     95  CG        30.4330   67.8700   79.5040 C.3    95  LYS95       0.0038
     96  CD        31.7200   68.1340   78.7350 C.3    95  LYS95       0.0206
     97  CE        31.8750   67.1960   77.5490 C.3    95  LYS95       0.1093
     98  NZ        30.8420   67.4510   76.5070 N.3    95  LYS95      -0.1314
     99  N         27.5600   66.1760   81.1470 N.am   96  PHE96      -0.1960
    100  CA        26.2270   66.2980   80.5730 C.3    96  PHE96       0.1771
    101  C         25.1320   66.5040   81.6170 C.2    96  PHE96       0.2620
    102  O         23.9480   66.4830   81.2630 O.2    96  PHE96      -0.2715
    103  CB        25.9160   65.0700   79.7150 C.3    96  PHE96       0.0574
    104  CG        26.9380   64.8120   78.6450 C.ar   96  PHE96      -0.0200
    105  CD1       26.9470   65.5630   77.4810 C.ar   96  PHE96      -0.0042
    106  CD2       27.8950   63.8230   78.8050 C.ar   96  PHE96      -0.0042
    107  CE1       27.8890   65.3310   76.4950 C.ar   96  PHE96      -0.0003
    108  CE2       28.8390   63.5860   77.8220 C.ar   96  PHE96      -0.0003
    109  CZ        28.8360   64.3410   76.6660 C.ar   96  PHE96      -0.0000
    110  N         25.4930   66.7020   82.8830 N.am   97  GLY97      -0.1940
    111  CA        24.5150   67.1140   83.8740 C.3    97  GLY97       0.2014
    112  C         23.5310   66.0280   84.2880 C.2    97  GLY97       0.2639
    113  O         23.7730   64.8260   84.1510 O.2    97  GLY97      -0.2714
    114  N         22.3940   66.4870   84.8050 N.am   98  SER98      -0.1949
    115  CA        21.3780   65.5990   85.3500 C.3    98  SER98       0.1924
    116  C         20.6070   64.8880   84.2470 C.2    98  SER98       0.2314
    117  O         20.3630   65.4380   83.1690 O.2    98  SER98      -0.2863
    118  CB        20.3940   66.3750   86.2270 C.3    98  SER98       0.2116
    119  OG        20.8500   66.4660   87.5640 O.3    98  SER98      -0.2180
    120  N         17.2090   67.0650   83.7980 N.3   101  THR101     -0.1218
    121  CA        17.2000   68.1220   82.7970 C.3   101  THR101      0.1862
    122  C         17.5990   67.6250   81.4130 C.2   101  THR101      0.2287
    123  O         17.3390   68.3190   80.4260 O.2   101  THR101     -0.2866
    124  CB        18.1220   69.2670   83.2270 C.3   101  THR101      0.1770
    125  OG1       19.4270   68.7550   83.5240 O.3   101  THR101     -0.2211
    126  CG2       17.5620   69.9600   84.4620 C.3   101  THR101      0.0375
    127  N         16.9160   63.4780   89.0380 N.3   142  LYS142     -0.1231
    128  CA        17.8350   64.5680   89.3460 C.3   142  LYS142      0.1693
    129  C         19.1390   64.0620   89.9490 C.2   142  LYS142      0.2592
    130  O         20.1950   64.6660   89.7260 O.2   142  LYS142     -0.2718
    131  CB        17.1650   65.5660   90.2920 C.3   142  LYS142      0.0285
    132  CG        17.9780   66.8220   90.5480 C.3   142  LYS142      0.0035
    133  CD        17.2160   67.8100   91.4150 C.3   142  LYS142      0.0206
    134  CE        18.0140   69.0880   91.6300 C.3   142  LYS142      0.1093
    135  NZ        17.2590   70.0840   92.4410 N.3   142  LYS142     -0.1314
    136  N         19.0930   62.9650   90.7030 N.am  143  ASN143     -0.1974
    137  CA        20.2860   62.3740   91.2940 C.3   143  ASN143      0.1688
    138  C         21.0160   61.4360   90.3400 C.2   143  ASN143      0.2292
    139  O         21.8910   60.6840   90.7800 O.2   143  ASN143     -0.2864
    140  CB        19.9260   61.6250   92.5800 C.3   143  ASN143      0.1181
    141  CG        19.4830   62.5540   93.6900 C.2   143  ASN143      0.2629
    142  OD1       19.7650   63.7520   93.6620 O.2   143  ASN143     -0.2716
    143  ND2       18.7900   62.0050   94.6810 N.am  143  ASN143     -0.0877
    144  N         23.3600   61.1450   86.8580 N.3   145  LEU145     -0.1245
    145  CA        24.2640   61.9250   86.0270 C.3   145  LEU145      0.1561
    146  C         24.6020   61.1560   84.7590 C.2   145  LEU145      0.2260
    147  O         24.8940   59.9580   84.8070 O.2   145  LEU145     -0.2867
    148  CB        25.5450   62.2760   86.7890 C.3   145  LEU145      0.0270
    149  CG        25.3930   63.3560   87.8620 C.3   145  LEU145      0.0019
    150  CD1       24.4940   64.4720   87.3480 C.3   145  LEU145      0.0001
    151  CD2       24.8650   62.7900   89.1750 C.3   145  LEU145      0.0001
    152  N         24.1110   59.4440   92.0840 N.3   163  SER163     -0.1202
    153  CA        24.7790   60.2480   93.0940 C.3   163  SER163      0.2020
    154  C         24.2310   59.9210   94.4820 C.2   163  SER163      0.2618
    155  O         23.3810   59.0440   94.6540 O.2   163  SER163     -0.2717
    156  CB        24.6250   61.7350   92.7800 C.3   163  SER163      0.2103
    157  OG        23.2840   62.1590   92.9490 O.3   163  SER163     -0.2182
    158  N         24.7250   60.6400   95.4910 N.am  164  ASP164     -0.1973
    159  CA        24.2940   60.3960   96.8570 C.3   164  ASP164      0.1709
    160  C         22.8890   60.9570   97.0870 C.2   164  ASP164      0.2293
    161  O         22.4640   61.8870   96.3970 O.2   164  ASP164     -0.2864
    162  CB        25.2740   61.0180   97.8500 C.3   164  ASP164      0.1436
    163  CG        25.3060   62.5280   97.7750 C.2   164  ASP164      0.3671
    164  OD1       25.7710   63.0670   96.7490 O.co2 164  ASP164     -0.2456
    165  OD2       24.8560   63.1760   98.7420 O.co2 164  ASP164     -0.2456
@<TRIPOS>BOND
     1   107   109   ar
     2   107   105   ar
     3    98    97    1
     4   109   108   ar
     5   105   104   ar
     6    97    96    1
     7   108   106   ar
     8   104   106   ar
     9   104   103    1
    10    96    95    1
    11    95    94    1
    12   103   100    1
    13   123   122    2
    14    94    91    1
    15   100    99    1
    16   100   101    1
    17    99    92   am
    18   102   101    2
    19    93    92    2
    20   122   121    1
    21    92    91    1
    22   101   110   am
    23    91    90    1
    24    90    85   am
    25   121   124    1
    26   121   120    1
    27   110   111    1
    28   117   116    2
    29   124   125    1
    30   124   126    1
    31   111   112    1
    32    85    86    2
    33    85    84    1
    34    88    87    1
    35   113   112    2
    36   116   115    1
    37   112   114   am
    38    81    82   ar
    39    81    79   ar
    40   146   147    2
    41   146   145    1
    42   114   115    1
    43    84    87    1
    44    84    83    1
    45    82    80   ar
    46    87    89    1
    47    79    77   ar
    48   115   118    1
    49    75    74    2
    50   145   148    1
    51   145   144    1
    52    83    74   am
    53   118   119    1
    54    80    78   ar
    55    74    73    1
    56     8     6    1
    57    77    78   ar
    58    77    76    1
    59   148   149    1
    60    71    69   ar
    61   150   149    1
    62    76    73    1
    63    73    72    1
    64   149   151    1
    65    69    68    1
    66    69    70   ar
    67     6     7    1
    68     6     5    1
    69     4     3    2
    70    68    67    1
    71     5     2    1
    72     2     3    1
    73     2     1    1
    74    72    65   am
    75   127   128    1
    76     3     9   am
    77   128   129    1
    78   128   131    1
    79    65    66    2
    80    65    64    1
    81   130   129    2
    82    67    64    1
    83   129   136   am
    84   131   132    1
    85   138   139    2
    86   138   137    1
    87     9    10    1
    88    64    63    1
    89   132   133    1
    90    53    51    1
    91    36    35    1
    92   136   137    1
    93    10    11    1
    94   137   140    1
    95    30    31    1
    96   133   134    1
    97    48    47    1
    98    48    51    1
    99    48    49    1
   100    34    31    1
   101    34    35    1
   102   134   135    1
   103    51    52    1
   104    63    56   am
   105    31    32    1
   106    35    37    1
   107    57    56    2
   108   152   153    1
   109    25    24    2
   110    11    13   am
   111    11    12    2
   112    28    26    1
   113    56    55    1
   114    49    50    2
   115   140   141    1
   116   156   157    1
   117   156   153    1
   118    13    14    1
   119    24    23    1
   120   153   154    1
   121    32    33    2
   122    26    23    1
   123    26    27    1
   124   142   141    2
   125   141   143   am
   126    16    15    2
   127    20    19    2
   128    55    58    1
   129    55    54    1
   130    29    27    1
   131    23    22    1
   132    58    59    1
   133    14    15    1
   134    14    17    1
   135   154   155    2
   136   154   158   am
   137    19    18    1
   138    19    21   am
   139    18    17    1
   140    45    46    1
   141    45    44    1
   142   158   159    1
   143    59    60    1
   144    60    62   am
   145    60    61    2
   146    43    44    1
   147    43    42    1
   148   161   160    2
   149    38    39    1
   150   164   163   ar
   151   159   160    1
   152   159   162    1
   153    39    42    1
   154    39    40    1
   155   163   162    1
   156   163   165   ar
   157    40    41    2
