@<TRIPOS>MOLECULE
tmp/5wilA00.pdb
 177 168 0 0 0
SMALL
GASTEIGER

@<TRIPOS>ATOM
      1  N         -2.9640  -14.5060    0.1710 N.3    16  LEU16      -0.1231
      2  CA        -3.5680  -13.4840    0.9980 C.3    16  LEU16       0.1693
      3  C         -4.9850  -13.1270    0.5570 C.2    16  LEU16       0.2593
      4  O         -5.6230  -12.2790    1.1880 O.2    16  LEU16      -0.2718
      5  CB        -2.6980  -12.2300    0.9740 C.3    16  LEU16       0.0284
      6  CG        -1.3880  -12.3660    1.7180 C.3    16  LEU16       0.0019
      7  CD1       -0.5630  -11.1570    1.3910 C.3    16  LEU16       0.0001
      8  CD2       -1.5780  -12.5150    3.2140 C.3    16  LEU16       0.0001
      9  N         -5.4640  -13.7180   -0.5290 N.am   17  GLY17      -0.1942
     10  CA        -6.8270  -13.5960   -0.9600 C.3    17  GLY17       0.2014
     11  C         -6.8040  -13.5690   -2.4690 C.2    17  GLY17       0.2639
     12  O         -5.8510  -14.0700   -3.0990 O.2    17  GLY17      -0.2714
     13  N         -7.8400  -12.9500   -3.0510 N.am   18  GLN18      -0.1963
     14  CA        -7.9470  -12.7580   -4.4910 C.3    18  GLN18       0.1733
     15  C         -8.7280  -11.4810   -4.7670 C.2    18  GLN18       0.2616
     16  O         -9.5500  -11.0590   -3.9530 O.2    18  GLN18      -0.2715
     17  CB        -8.6260  -13.9610   -5.1670 C.3    18  GLN18       0.0408
     18  CG        -9.7720  -14.5780   -4.3650 C.3    18  GLN18       0.0908
     19  CD       -10.2240  -15.9220   -4.9310 C.2    18  GLN18       0.2608
     20  OE1      -11.4350  -16.2180   -4.9930 O.2    18  GLN18      -0.2717
     21  NE2       -9.2580  -16.7470   -5.3410 N.am   18  GLN18      -0.0878
     22  N         -8.4270  -10.8650   -5.9110 N.am   19  GLY19      -0.1955
     23  CA        -9.2210   -9.7990   -6.4790 C.3    19  GLY19       0.1869
     24  C         -9.8770  -10.2590   -7.7640 C.2    19  GLY19       0.2309
     25  O         -9.8550  -11.4410   -8.1170 O.2    19  GLY19      -0.2863
     26  N         -3.3790  -12.8930   -4.9140 N.3    24  ILE24      -0.1245
     27  CA        -2.4050  -12.1030   -4.1870 C.3    24  ILE24       0.1561
     28  C         -1.8100  -12.9780   -3.1070 C.2    24  ILE24       0.2260
     29  O         -2.5230  -13.7420   -2.4390 O.2    24  ILE24      -0.2867
     30  CB        -2.9880  -10.7980   -3.5780 C.3    24  ILE24       0.0252
     31  CG1       -3.9870  -11.0940   -2.4670 C.3    24  ILE24       0.0019
     32  CG2       -3.6980   -9.9730   -4.6460 C.3    24  ILE24       0.0019
     33  CD1       -4.6090   -9.8740   -1.8520 C.3    24  ILE24       0.0001
     34  N          4.1040   -7.7420   -1.4520 N.3    44  LEU44      -0.1245
     35  CA         2.8640   -8.2730   -1.9560 C.3    44  LEU44       0.1561
     36  C          3.0820   -8.6470   -3.3990 C.2    44  LEU44       0.2260
     37  O          3.5290   -7.8180   -4.1920 O.2    44  LEU44      -0.2867
     38  CB         1.7350   -7.2560   -1.8730 C.3    44  LEU44       0.0270
     39  CG         0.4570   -8.0050   -2.3170 C.3    44  LEU44       0.0019
     40  CD1       -0.3330   -8.3700   -1.1240 C.3    44  LEU44       0.0001
     41  CD2       -0.3240   -7.2660   -3.3200 C.3    44  LEU44       0.0001
     42  N          1.1040   -9.9560   -6.7350 N.3    46  LYS46      -0.1245
     43  CA        -0.2410   -9.9170   -7.3000 C.3    46  LYS46       0.1561
     44  C         -0.1910  -10.4830   -8.7080 C.2    46  LYS46       0.2260
     45  O          0.4700   -9.9150   -9.5830 O.2    46  LYS46      -0.2867
     46  CB        -0.8010   -8.4840   -7.3150 C.3    46  LYS46       0.0271
     47  CG        -1.9970   -8.2760   -8.2450 C.3    46  LYS46       0.0035
     48  CD        -2.5470   -6.8030   -8.2140 C.3    46  LYS46       0.0206
     49  CE        -3.0430   -6.3940   -6.8370 C.3    46  LYS46       0.1093
     50  NZ        -3.6820   -5.0350   -6.7990 N.3    46  LYS46      -0.1314
     51  N         -0.3590    3.1930   -1.9890 N.3    75  VAL75      -0.1245
     52  CA         0.5080    2.0350   -1.8110 C.3    75  VAL75       0.1561
     53  C          1.6100    2.0720   -2.8510 C.2    75  VAL75       0.2260
     54  O          1.3590    2.3060   -4.0370 O.2    75  VAL75      -0.2867
     55  CB        -0.3220    0.7380   -1.8870 C.3    75  VAL75       0.0252
     56  CG1        0.5690   -0.4960   -1.8350 C.3    75  VAL75       0.0019
     57  CG2       -1.3080    0.7220   -0.7600 C.3    75  VAL75       0.0019
     58  N          4.5000   -5.1520   -4.9460 N.3    91  GLN91      -0.1231
     59  CA         4.0220   -3.9830   -4.2480 C.3    91  GLN91       0.1698
     60  C          4.4460   -4.0440   -2.7910 C.2    91  GLN91       0.2592
     61  O          4.7650   -5.1070   -2.2510 O.2    91  GLN91      -0.2718
     62  CB         2.4950   -3.8960   -4.3680 C.3    91  GLN91       0.0381
     63  CG         2.0540   -3.9390   -5.8100 C.3    91  GLN91       0.0905
     64  CD         0.5210   -3.7620   -6.0140 C.2    91  GLN91       0.2608
     65  OE1       -0.3180   -4.3950   -5.3280 O.2    91  GLN91      -0.2717
     66  NE2        0.1690   -2.9150   -6.9820 N.am   91  GLN91      -0.0878
     67  N          4.4930   -2.8640   -2.1900 N.am   92  GLU92      -0.1966
     68  CA         4.5480   -2.7150   -0.7450 C.3    92  GLU92       0.1733
     69  C          3.6200   -3.7120   -0.0650 C.2    92  GLU92       0.2616
     70  O          2.4770   -3.8980   -0.4940 O.2    92  GLU92      -0.2715
     71  CB         4.1290   -1.2830   -0.4090 C.3    92  GLU92       0.0429
     72  CG         3.8130   -1.0110    1.0350 C.3    92  GLU92       0.1163
     73  CD         3.6600    0.4770    1.3380 C.2    92  GLU92       0.3649
     74  OE1        3.4000    1.2900    0.4050 O.co2  92  GLU92      -0.2457
     75  OE2        3.8010    0.8360    2.5290 O.co2  92  GLU92      -0.2457
     76  N          4.0970   -4.3340    1.0130 N.am   93  PHE93      -0.1960
     77  CA         3.2710   -5.2370    1.7990 C.3    93  PHE93       0.1771
     78  C          2.7750   -4.4940    3.0260 C.2    93  PHE93       0.2619
     79  O          3.5710   -3.9490    3.7940 O.2    93  PHE93      -0.2715
     80  CB         4.0210   -6.5210    2.2140 C.3    93  PHE93       0.0574
     81  CG         3.2790   -7.3430    3.2220 C.ar   93  PHE93      -0.0200
     82  CD1        2.1700   -8.0800    2.8460 C.ar   93  PHE93      -0.0042
     83  CD2        3.6640   -7.3520    4.5450 C.ar   93  PHE93      -0.0042
     84  CE1        1.4600   -8.8110    3.7720 C.ar   93  PHE93      -0.0003
     85  CE2        2.9610   -8.0850    5.4750 C.ar   93  PHE93      -0.0003
     86  CZ         1.8560   -8.8220    5.0870 C.ar   93  PHE93      -0.0000
     87  N          1.4530   -4.4710    3.2040 N.am   94  VAL94      -0.1963
     88  CA         0.8190   -3.7760    4.3150 C.3    94  VAL94       0.1727
     89  C          0.4090   -4.7950    5.3530 C.2    94  VAL94       0.2616
     90  O         -0.4070   -5.6860    5.0840 O.2    94  VAL94      -0.2715
     91  CB        -0.3790   -2.9430    3.8600 C.3    94  VAL94       0.0290
     92  CG1       -0.9190   -2.1730    5.0470 C.3    94  VAL94       0.0023
     93  CG2        0.0280   -1.9850    2.7600 C.3    94  VAL94       0.0023
     94  N          0.9290   -4.6030    6.5590 N.am   95  LYS95      -0.1963
     95  CA         0.9900   -5.6630    7.5540 C.3    95  LYS95       0.1728
     96  C         -0.4030   -6.0490    8.0370 C.2    95  LYS95       0.2616
     97  O         -0.6980   -7.2310    8.2120 O.2    95  LYS95      -0.2715
     98  CB         1.8680   -5.1780    8.7120 C.3    95  LYS95       0.0311
     99  CG         2.2520   -6.1810    9.7500 C.3    95  LYS95       0.0038
    100  CD         3.2140   -5.5650   10.7900 C.3    95  LYS95       0.0206
    101  CE         3.8370   -6.6180   11.7380 C.3    95  LYS95       0.1093
    102  NZ         2.9200   -7.1170   12.8320 N.3    95  LYS95      -0.1314
    103  N         -1.2880   -5.0710    8.2470 N.am   96  PHE96      -0.1960
    104  CA        -2.5480   -5.3570    8.9070 C.3    96  PHE96       0.1771
    105  C         -3.6810   -5.5670    7.9210 C.2    96  PHE96       0.2620
    106  O         -4.8150   -5.8060    8.3420 O.2    96  PHE96      -0.2715
    107  CB        -2.8590   -4.2660    9.9240 C.3    96  PHE96       0.0574
    108  CG        -1.7470   -4.0780   10.9020 C.ar   96  PHE96      -0.0200
    109  CD1       -1.6120   -4.9250   12.0030 C.ar   96  PHE96      -0.0042
    110  CD2       -0.7720   -3.1240   10.6670 C.ar   96  PHE96      -0.0042
    111  CE1       -0.5480   -4.7860   12.8830 C.ar   96  PHE96      -0.0003
    112  CE2        0.3260   -2.9740   11.5350 C.ar   96  PHE96      -0.0003
    113  CZ         0.4380   -3.8120   12.6510 C.ar   96  PHE96      -0.0000
    114  N         -3.3850   -5.5560    6.6270 N.am   97  GLY97      -0.1940
    115  CA        -4.3460   -5.9940    5.6360 C.3    97  GLY97       0.2014
    116  C         -5.3980   -4.9710    5.2400 C.2    97  GLY97       0.2639
    117  O         -5.2140   -3.7690    5.3240 O.2    97  GLY97      -0.2714
    118  N         -6.5430   -5.5130    4.8120 N.am   98  SER98      -0.1949
    119  CA        -7.6750   -4.7620    4.2700 C.3    98  SER98       0.1924
    120  C         -8.5190   -4.1610    5.3750 C.2    98  SER98       0.2314
    121  O         -8.7500   -4.7860    6.4120 O.2    98  SER98      -0.2863
    122  CB        -8.5930   -5.6590    3.4390 C.3    98  SER98       0.2116
    123  OG        -8.1790   -5.7980    2.0830 O.3    98  SER98      -0.2180
    124  N        -11.8350   -6.3390    6.1330 N.3   101  THR101     -0.1218
    125  CA       -11.4920   -7.3710    7.0960 C.3   101  THR101      0.1862
    126  C        -11.3610   -6.7920    8.5030 C.2   101  THR101      0.2287
    127  O        -11.9490   -7.3140    9.4590 O.2   101  THR101     -0.2866
    128  CB       -10.1980   -8.0560    6.6690 C.3   101  THR101      0.1770
    129  OG1      -10.4770   -8.9440    5.5730 O.3   101  THR101     -0.2211
    130  CG2       -9.6380   -8.8190    7.8230 C.3   101  THR101      0.0375
    131  N        -12.1690    2.6390   -8.1960 N.3   138  ASN138     -0.1240
    132  CA       -12.5330    1.4580   -7.4290 C.3   138  ASN138      0.1653
    133  C        -12.2460    1.6710   -5.9530 C.2   138  ASN138      0.2266
    134  O        -11.5990    0.8550   -5.2950 O.2   138  ASN138     -0.2867
    135  CB       -11.8130    0.2070   -7.9350 C.3   138  ASN138      0.1155
    136  CG       -12.3980   -1.0670   -7.3430 C.2   138  ASN138      0.2627
    137  OD1      -13.4830   -1.0600   -6.7360 O.2   138  ASN138     -0.2716
    138  ND2      -11.6870   -2.1520   -7.5010 N.am  138  ASN138     -0.0877
    139  N        -12.1660   -2.6840    0.8790 N.3   142  LYS142     -0.1231
    140  CA       -11.2760   -3.7230    0.7090 C.3   142  LYS142      0.1693
    141  C        -10.0280   -3.2230    0.0260 C.2   142  LYS142      0.2592
    142  O         -9.0220   -3.7970    0.1470 O.2   142  LYS142     -0.2718
    143  CB       -11.9800   -4.8420    0.0320 C.3   142  LYS142      0.0285
    144  CG       -12.4630   -4.6080   -1.3100 C.3   142  LYS142      0.0035
    145  CD       -13.0930   -5.8770   -1.7480 C.3   142  LYS142      0.0206
    146  CE       -13.6710   -5.8460   -3.1470 C.3   142  LYS142      0.1093
    147  NZ       -14.2740   -7.1750   -3.4700 N.3   142  LYS142     -0.1314
    148  N        -10.1180   -2.0980   -0.6300 N.am  143  ASN143     -0.1974
    149  CA        -8.9810   -1.5130   -1.3020 C.3   143  ASN143      0.1688
    150  C         -8.2770   -0.4850   -0.4350 C.2   143  ASN143      0.2292
    151  O         -7.4490    0.2550   -0.9360 O.2   143  ASN143     -0.2864
    152  CB        -9.3870   -0.8880   -2.6260 C.3   143  ASN143      0.1181
    153  CG        -9.2870   -1.8330   -3.7670 C.2   143  ASN143      0.2629
    154  OD1       -8.5770   -2.8570   -3.7220 O.2   143  ASN143     -0.2716
    155  ND2       -9.9590   -1.4960   -4.8320 N.am  143  ASN143     -0.0877
    156  N         -5.7760   -0.2270    2.8730 N.3   145  LEU145     -0.1245
    157  CA        -4.8980   -1.0880    3.6450 C.3   145  LEU145      0.1561
    158  C         -4.4010   -0.3470    4.8750 C.2   145  LEU145      0.2260
    159  O         -4.1210    0.8540    4.8230 O.2   145  LEU145     -0.2867
    160  CB        -3.7460   -1.5900    2.7880 C.3   145  LEU145      0.0270
    161  CG        -4.1890   -2.1150    1.4250 C.3   145  LEU145      0.0019
    162  CD1       -3.0440   -2.4210    0.5200 C.3   145  LEU145      0.0001
    163  CD2       -5.0110   -3.3780    1.6150 C.3   145  LEU145      0.0001
    164  N         -5.0310    1.2560   -2.0850 N.3   163  SER163     -0.1202
    165  CA        -4.5410    0.2430   -3.0080 C.3   163  SER163      0.2020
    166  C         -4.9150    0.6510   -4.4300 C.2   163  SER163      0.2618
    167  O         -5.7740    1.5130   -4.6290 O.2   163  SER163     -0.2717
    168  CB        -5.1600   -1.1130   -2.6410 C.3   163  SER163      0.2103
    169  OG        -4.5240   -2.1780   -3.3150 O.3   163  SER163     -0.2182
    170  N         -4.2650    0.0370   -5.4250 N.am  164  ASP164     -0.1973
    171  CA        -4.5760    0.3460   -6.8160 C.3   164  ASP164      0.1709
    172  C         -5.9290   -0.2510   -7.1730 C.2   164  ASP164      0.2293
    173  O         -6.4440   -1.0960   -6.4540 O.2   164  ASP164     -0.2864
    174  CB        -3.5070   -0.1760   -7.7760 C.3   164  ASP164      0.1436
    175  CG        -3.5610   -1.6800   -7.9860 C.2   164  ASP164      0.3671
    176  OD1       -4.3280   -2.1430   -8.8540 O.co2 164  ASP164     -0.2456
    177  OD2       -2.7920   -2.3970   -7.3070 O.co2 164  ASP164     -0.2456
@<TRIPOS>BOND
     1    45    44    2
     2   176   175   ar
     3    44    43    1
     4    47    48    1
     5    47    46    1
     6    48    49    1
     7   131   132    1
     8    25    24    2
     9   175   174    1
    10   175   177   ar
    11   135   132    1
    12   135   136    1
    13   174   171    1
    14    24    23    1
    15   138   136   am
    16   132   133    1
    17   136   137    2
    18    46    43    1
    19    43    42    1
    20   172   171    1
    21   172   173    2
    22    66    64   am
    23    49    50    1
    24   171   170    1
    25    23    22    1
    26    64    63    1
    27    64    65    2
    28   133   134    2
    29    22    15   am
    30    63    62    1
    31   170   166   am
    32    21    19   am
    33    17    14    1
    34    17    18    1
    35    20    19    2
    36    58    59    1
    37    19    18    1
    38    26    27    1
    39   155   153   am
    40    15    14    1
    41    15    16    2
    42    32    30    1
    43   167   166    2
    44    14    13    1
    45   166   165    1
    46    62    59    1
    47    59    60    1
    48    37    36    2
    49    27    30    1
    50    27    28    1
    51    54    53    2
    52   153   154    2
    53   153   152    1
    54    30    31    1
    55   147   146    1
    56    36    35    1
    57    41    39    1
    58   169   168    1
    59   146   145    1
    60    28    29    2
    61    12    11    2
    62    13    11   am
    63   165   168    1
    64   165   164    1
    65    53    52    1
    66    60    61    2
    67    60    67   am
    68   152   149    1
    69    11    10    1
    70    31    33    1
    71    39    38    1
    72    39    40    1
    73    67    68    1
    74    51    52    1
    75    35    38    1
    76    35    34    1
    77    55    56    1
    78    55    52    1
    79    55    57    1
    80   145   144    1
    81   144   143    1
    82   149   148    1
    83   149   150    1
    84    10     9    1
    85   151   150    2
    86    68    71    1
    87    68    69    1
    88   148   141   am
    89     9     3   am
    90    70    69    2
    91    71    72    1
    92    69    76   am
    93   141   142    2
    94   141   140    1
    95   143   140    1
    96     1     2    1
    97    74    73   ar
    98   162   161    1
    99     3     2    1
   100     3     4    2
   101   140   139    1
   102     5     2    1
   103     5     6    1
   104    76    77    1
   105    72    73    1
   106    73    75   ar
   107     7     6    1
   108   161   163    1
   109   161   160    1
   110     6     8    1
   111    77    80    1
   112    77    78    1
   113   123   122    1
   114    80    81    1
   115    93    91    1
   116   160   157    1
   117    82    81   ar
   118    82    84   ar
   119   156   157    1
   120    78    87   am
   121    78    79    2
   122    87    88    1
   123    81    83   ar
   124   122   119    1
   125   157   158    1
   126    84    86   ar
   127    91    88    1
   128    91    92    1
   129   119   118    1
   130   119   120    1
   131    88    89    1
   132    83    85   ar
   133   118   116   am
   134   159   158    2
   135    90    89    2
   136    86    85   ar
   137   116   117    2
   138   116   115    1
   139    89    94   am
   140   120   121    2
   141   129   128    1
   142   115   114    1
   143   124   125    1
   144    94    95    1
   145   114   105   am
   146   128   125    1
   147   128   130    1
   148   125   126    1
   149    95    96    1
   150    95    98    1
   151   105   106    2
   152   105   104    1
   153    96    97    2
   154    96   103   am
   155   103   104    1
   156   126   127    2
   157    98    99    1
   158   104   107    1
   159    99   100    1
   160   107   108    1
   161   110   108   ar
   162   110   112   ar
   163   100   101    1
   164   108   109   ar
   165   112   113   ar
   166   101   102    1
   167   109   111   ar
   168   113   111   ar
