@<TRIPOS>MOLECULE
tmp/5winA00.pdb
 153 144 0 0 0
SMALL
GASTEIGER

@<TRIPOS>ATOM
      1  N         -2.9260  -14.6210   -0.1350 N.3    16  LEU16      -0.1245
      2  CA        -3.7170  -13.6230    0.5680 C.3    16  LEU16       0.1561
      3  C         -5.0980  -13.4430   -0.0490 C.2    16  LEU16       0.2260
      4  O         -5.8240  -12.5210    0.3360 O.2    16  LEU16      -0.2867
      5  CB        -2.9690  -12.2910    0.5950 C.3    16  LEU16       0.0270
      6  CG        -1.6350  -12.3390    1.3440 C.3    16  LEU16       0.0019
      7  CD1       -0.8400  -11.0720    1.0940 C.3    16  LEU16       0.0001
      8  CD2       -1.8530  -12.5520    2.8390 C.3    16  LEU16       0.0001
      9  N         -7.8000  -13.4170   -3.6050 N.3    18  GLN18      -0.1245
     10  CA        -7.9370  -13.1680   -5.0280 C.3    18  GLN18       0.1566
     11  C         -8.4940  -11.7720   -5.2500 C.2    18  GLN18       0.2260
     12  O         -9.4000  -11.3370   -4.5360 O.2    18  GLN18      -0.2867
     13  CB        -8.8690  -14.1890   -5.6930 C.3    18  GLN18       0.0367
     14  CG        -8.8700  -15.5560   -5.0330 C.3    18  GLN18       0.0905
     15  CD        -9.8660  -16.5080   -5.6660 C.2    18  GLN18       0.2608
     16  OE1       -9.5460  -17.6630   -5.9490 O.2    18  GLN18      -0.2717
     17  NE2      -11.0850  -16.0290   -5.8880 N.am   18  GLN18      -0.0878
     18  N         -3.3280  -13.3420   -5.4080 N.3    24  ILE24      -0.1245
     19  CA        -2.4900  -12.5050   -4.5590 C.3    24  ILE24       0.1561
     20  C         -1.7530  -13.3900   -3.5640 C.2    24  ILE24       0.2260
     21  O         -2.3300  -14.3270   -3.0020 O.2    24  ILE24      -0.2867
     22  CB        -3.3250  -11.4300   -3.8290 C.3    24  ILE24       0.0252
     23  CG1       -4.0960  -10.5820   -4.8450 C.3    24  ILE24       0.0019
     24  CG2       -2.4290  -10.5380   -2.9740 C.3    24  ILE24       0.0019
     25  CD1       -5.1180   -9.6630   -4.2230 C.3    24  ILE24       0.0001
     26  N          4.1630   -7.7520   -1.6300 N.3    44  LEU44      -0.1245
     27  CA         2.8940   -8.2720   -2.1170 C.3    44  LEU44       0.1561
     28  C          3.0450   -8.6380   -3.5850 C.2    44  LEU44       0.2260
     29  O          3.4510   -7.8040   -4.4010 O.2    44  LEU44      -0.2867
     30  CB         1.7640   -7.2550   -1.9570 C.3    44  LEU44       0.0270
     31  CG         0.3980   -7.8280   -2.3520 C.3    44  LEU44       0.0019
     32  CD1       -0.3530   -8.2970   -1.1180 C.3    44  LEU44       0.0001
     33  CD2       -0.4220   -6.8350   -3.1640 C.3    44  LEU44       0.0001
     34  N          0.9190   -9.9480   -6.7890 N.3    46  LYS46      -0.1245
     35  CA        -0.3980  -10.1640   -7.3670 C.3    46  LYS46       0.1561
     36  C         -0.2200  -10.5650   -8.8240 C.2    46  LYS46       0.2260
     37  O          0.4930   -9.8950   -9.5790 O.2    46  LYS46      -0.2867
     38  CB        -1.2970   -8.9230   -7.2110 C.3    46  LYS46       0.0271
     39  CG        -1.0830   -7.7730   -8.1900 C.3    46  LYS46       0.0035
     40  CD        -2.2400   -6.7690   -8.1110 C.3    46  LYS46       0.0206
     41  CE        -2.4200   -6.2020   -6.7050 C.3    46  LYS46       0.1093
     42  NZ        -3.4480   -5.1220   -6.6450 N.3    46  LYS46      -0.1314
     43  N         -0.1580    3.2710   -1.9910 N.3    75  VAL75      -0.1245
     44  CA         0.6970    2.0970   -1.8650 C.3    75  VAL75       0.1561
     45  C          1.7990    2.1600   -2.9120 C.2    75  VAL75       0.2260
     46  O          1.5800    2.5960   -4.0510 O.2    75  VAL75      -0.2867
     47  CB        -0.1350    0.8070   -1.9950 C.3    75  VAL75       0.0252
     48  CG1        0.7490   -0.4400   -1.8920 C.3    75  VAL75       0.0019
     49  CG2       -1.2060    0.7700   -0.9210 C.3    75  VAL75       0.0019
     50  N          4.5440   -5.2080   -5.0480 N.3    91  GLN91      -0.1231
     51  CA         4.1440   -4.0370   -4.3430 C.3    91  GLN91       0.1698
     52  C          4.3600   -4.0540   -2.8840 C.2    91  GLN91       0.2592
     53  O          4.5780   -5.0520   -2.3140 O.2    91  GLN91      -0.2718
     54  CB         2.6510   -3.8280   -4.5110 C.3    91  GLN91       0.0381
     55  CG         2.0740   -4.3300   -5.7810 C.3    91  GLN91       0.0905
     56  CD         0.6880   -3.8140   -5.9810 C.2    91  GLN91       0.2608
     57  OE1       -0.0420   -3.6650   -5.0390 O.2    91  GLN91      -0.2717
     58  NE2        0.3280   -3.5320   -7.2050 N.am   91  GLN91      -0.0878
     59  N          4.2830   -2.8900   -2.2930 N.am   92  GLU92      -0.1966
     60  CA         4.4290   -2.7770   -0.8490 C.3    92  GLU92       0.1733
     61  C          3.4860   -3.7470   -0.1490 C.2    92  GLU92       0.2616
     62  O          2.3220   -3.8900   -0.5300 O.2    92  GLU92      -0.2715
     63  CB         4.1360   -1.3350   -0.4110 C.3    92  GLU92       0.0429
     64  CG         4.0620   -1.1060    1.0980 C.3    92  GLU92       0.1163
     65  CD         3.7310    0.3350    1.4470 C.2    92  GLU92       0.3649
     66  OE1        3.3430    1.0930    0.5330 O.co2  92  GLU92      -0.2457
     67  OE2        3.8550    0.7130    2.6320 O.co2  92  GLU92      -0.2457
     68  N          3.9990   -4.4200    0.8780 N.am   93  PHE93      -0.1960
     69  CA         3.1900   -5.2910    1.7220 C.3    93  PHE93       0.1771
     70  C          2.8080   -4.5100    2.9740 C.2    93  PHE93       0.2619
     71  O          3.6610   -4.2210    3.8210 O.2    93  PHE93      -0.2715
     72  CB         3.9340   -6.5750    2.0870 C.3    93  PHE93       0.0574
     73  CG         3.1530   -7.4790    3.0060 C.ar   93  PHE93      -0.0200
     74  CD1        2.1960   -8.3430    2.5000 C.ar   93  PHE93      -0.0042
     75  CD2        3.3670   -7.4540    4.3750 C.ar   93  PHE93      -0.0042
     76  CE1        1.4710   -9.1670    3.3400 C.ar   93  PHE93      -0.0003
     77  CE2        2.6450   -8.2770    5.2200 C.ar   93  PHE93      -0.0003
     78  CZ         1.6960   -9.1340    4.7020 C.ar   93  PHE93      -0.0000
     79  N          1.5310   -4.1660    3.0810 N.am   94  VAL94      -0.1963
     80  CA         1.0210   -3.4510    4.2430 C.3    94  VAL94       0.1727
     81  C          0.7340   -4.4600    5.3480 C.2    94  VAL94       0.2616
     82  O          0.0540   -5.4680    5.1260 O.2    94  VAL94      -0.2715
     83  CB        -0.2320   -2.6410    3.8730 C.3    94  VAL94       0.0290
     84  CG1       -0.7100   -1.8230    5.0620 C.3    94  VAL94       0.0023
     85  CG2        0.0660   -1.7350    2.6810 C.3    94  VAL94       0.0023
     86  N          1.2470   -4.1780    6.5460 N.am   95  LYS95      -0.1963
     87  CA         1.3120   -5.1910    7.5960 C.3    95  LYS95       0.1728
     88  C         -0.0680   -5.7460    7.9420 C.2    95  LYS95       0.2616
     89  O         -0.2750   -6.9650    7.9400 O.2    95  LYS95      -0.2715
     90  CB         1.9870   -4.5990    8.8340 C.3    95  LYS95       0.0311
     91  CG         2.1160   -5.5660    9.9960 C.3    95  LYS95       0.0038
     92  CD         3.1970   -5.1220   10.9680 C.3    95  LYS95       0.0206
     93  CE         3.2560   -6.0280   12.1860 C.3    95  LYS95       0.1093
     94  NZ         4.6590   -6.3210   12.5860 N.3    95  LYS95      -0.1314
     95  N         -1.0270   -4.8700    8.2370 N.am   96  PHE96      -0.1960
     96  CA        -2.2740   -5.2740    8.8770 C.3    96  PHE96       0.1771
     97  C         -3.4220   -5.5020    7.9020 C.2    96  PHE96       0.2620
     98  O         -4.5320   -5.8130    8.3410 O.2    96  PHE96      -0.2715
     99  CB        -2.6750   -4.2290    9.9190 C.3    96  PHE96       0.0574
    100  CG        -1.6600   -4.0590   11.0100 C.ar   96  PHE96      -0.0200
    101  CD1       -1.6810   -4.8820   12.1220 C.ar   96  PHE96      -0.0042
    102  CD2       -0.6740   -3.0920   10.9160 C.ar   96  PHE96      -0.0042
    103  CE1       -0.7460   -4.7370   13.1260 C.ar   96  PHE96      -0.0003
    104  CE2        0.2670   -2.9420   11.9190 C.ar   96  PHE96      -0.0003
    105  CZ         0.2300   -3.7660   13.0250 C.ar   96  PHE96      -0.0000
    106  N         -3.1920   -5.3470    6.6030 N.am   97  GLY97      -0.1940
    107  CA        -4.1510   -5.7930    5.6130 C.3    97  GLY97       0.2014
    108  C         -5.3280   -4.8520    5.4240 C.2    97  GLY97       0.2639
    109  O         -5.3180   -3.6820    5.8170 O.2    97  GLY97      -0.2714
    110  N         -6.3710   -5.4010    4.8080 N.am   98  SER98      -0.1949
    111  CA        -7.4870   -4.6000    4.3300 C.3    98  SER98       0.1924
    112  C         -8.2900   -4.0030    5.4810 C.2    98  SER98       0.2314
    113  O         -8.3320   -4.5380    6.5930 O.2    98  SER98      -0.2863
    114  CB        -8.4010   -5.4470    3.4460 C.3    98  SER98       0.2116
    115  OG        -7.7730   -5.7440    2.2110 O.3    98  SER98      -0.2180
    116  N        -11.5940   -6.1630    6.4660 N.3   101  THR101     -0.1218
    117  CA       -11.2400   -7.2100    7.4190 C.3   101  THR101      0.1862
    118  C        -11.0860   -6.6370    8.8200 C.2   101  THR101      0.2287
    119  O        -11.6140   -7.1880    9.7930 O.2   101  THR101     -0.2866
    120  CB        -9.9470   -7.9010    6.9790 C.3   101  THR101      0.1770
    121  OG1      -10.1750   -8.6100    5.7550 O.3   101  THR101     -0.2211
    122  CG2       -9.4520   -8.8790    8.0490 C.3   101  THR101      0.0375
    123  N        -11.9940   -2.7070    1.0170 N.3   142  LYS142     -0.1231
    124  CA       -11.0640   -3.7850    0.7000 C.3   142  LYS142      0.1693
    125  C         -9.7480   -3.2300    0.1790 C.2   142  LYS142      0.2592
    126  O         -8.6820   -3.7930    0.4540 O.2   142  LYS142     -0.2718
    127  CB       -11.7170   -4.7510   -0.3040 C.3   142  LYS142      0.0285
    128  CG       -10.9120   -5.1430   -1.5540 C.3   142  LYS142      0.0035
    129  CD       -11.8370   -5.3230   -2.7510 C.3   142  LYS142      0.0206
    130  CE       -11.0650   -5.3860   -4.0580 C.3   142  LYS142      0.1093
    131  NZ       -11.9580   -5.1940   -5.2380 N.3   142  LYS142     -0.1314
    132  N         -9.7970   -2.1350   -0.5700 N.am  143  ASN143     -0.1974
    133  CA        -8.5980   -1.5390   -1.1350 C.3   143  ASN143      0.1688
    134  C         -7.9900   -0.4740   -0.2280 C.2   143  ASN143      0.2292
    135  O         -7.0900    0.2510   -0.6630 O.2   143  ASN143     -0.2864
    136  CB        -8.9040   -0.9570   -2.5190 C.3   143  ASN143      0.1181
    137  CG        -9.0640   -2.0340   -3.5760 C.2   143  ASN143      0.2629
    138  OD1       -8.6650   -3.1800   -3.3710 O.2   143  ASN143     -0.2716
    139  ND2       -9.6350   -1.6670   -4.7180 N.am  143  ASN143     -0.0877
    140  N         -5.6630   -0.2290    2.9130 N.3   145  LEU145     -0.1245
    141  CA        -4.7300   -1.0620    3.6510 C.3   145  LEU145      0.1561
    142  C         -4.2250   -0.3130    4.8760 C.2   145  LEU145      0.2260
    143  O         -3.8920    0.8750    4.8010 O.2   145  LEU145     -0.2867
    144  CB        -3.5720   -1.4860    2.7460 C.3   145  LEU145      0.0270
    145  CG        -4.0550   -2.3410    1.5690 C.3   145  LEU145      0.0019
    146  CD1       -3.1210   -2.2210    0.3750 C.3   145  LEU145      0.0001
    147  CD2       -4.2090   -3.7970    2.0050 C.3   145  LEU145      0.0001
    148  N         -4.6860    1.2330   -2.0930 N.3   163  SER163     -0.1217
    149  CA        -4.1030    0.3250   -3.0700 C.3   163  SER163      0.1889
    150  C         -4.4580    0.7710   -4.4880 C.2   163  SER163      0.2288
    151  O         -5.2320    1.7070   -4.7010 O.2   163  SER163     -0.2866
    152  CB        -4.5960   -1.1030   -2.8260 C.3   163  SER163      0.2089
    153  OG        -3.7060   -2.0560   -3.3800 O.3   163  SER163     -0.2183
@<TRIPOS>BOND
     1    37    36    2
     2    36    35    1
     3    39    40    1
     4    39    38    1
     5    40    41    1
     6    35    38    1
     7    35    34    1
     8    58    56   am
     9    41    42    1
    10    56    55    1
    11    56    57    2
    12    16    15    2
    13    17    15   am
    14    55    54    1
    15    13    14    1
    16    13    10    1
    17    15    14    1
    18    18    19    1
    19    11    10    1
    20    11    12    2
    21   131   130    1
    22    50    51    1
    23    10     9    1
    24    23    25    1
    25    23    22    1
    26   139   137   am
    27   151   150    2
    28    19    22    1
    29    19    20    1
    30    54    51    1
    31   150   149    1
    32    29    28    2
    33    51    52    1
    34   130   129    1
    35    46    45    2
    36    22    24    1
    37    28    27    1
    38   137   138    2
    39   137   136    1
    40    20    21    2
    41   153   152    1
    42    33    31    1
    43   149   152    1
    44   149   148    1
    45    45    44    1
    46    52    53    2
    47    52    59   am
    48   129   128    1
    49   136   133    1
    50    31    30    1
    51    31    32    1
    52    59    60    1
    53    27    30    1
    54    27    26    1
    55    47    48    1
    56    47    44    1
    57    47    49    1
    58    43    44    1
    59   128   127    1
    60   133   132    1
    61   133   134    1
    62    60    63    1
    63    60    61    1
    64   135   134    2
    65   132   125   am
    66    62    61    2
    67    63    64    1
    68   127   124    1
    69    61    68   am
    70     1     2    1
    71     3     4    2
    72     3     2    1
    73   125   126    2
    74   125   124    1
    75   146   145    1
    76    66    65   ar
    77     2     5    1
    78     5     6    1
    79   124   123    1
    80    68    69    1
    81     7     6    1
    82    64    65    1
    83     6     8    1
    84    65    67   ar
    85   145   147    1
    86   145   144    1
    87    69    72    1
    88    69    70    1
    89    72    73    1
    90   115   114    1
    91    74    73   ar
    92    74    76   ar
    93    85    83    1
    94   144   141    1
    95   140   141    1
    96    70    79   am
    97    70    71    2
    98    73    75   ar
    99    79    80    1
   100    76    78   ar
   101   114   111    1
   102   141   142    1
   103    83    80    1
   104    83    84    1
   105    80    81    1
   106   111   110    1
   107   111   112    1
   108    75    77   ar
   109    78    77   ar
   110   143   142    2
   111   110   108   am
   112    82    81    2
   113    81    86   am
   114   108   107    1
   115   108   109    2
   116   112   113    2
   117   107   106    1
   118   121   120    1
   119   116   117    1
   120    86    87    1
   121   106    97   am
   122   120   117    1
   123   120   122    1
   124   117   118    1
   125    87    88    1
   126    87    90    1
   127    97    98    2
   128    97    96    1
   129    89    88    2
   130    88    95   am
   131    95    96    1
   132   118   119    2
   133    90    91    1
   134    96    99    1
   135    99   100    1
   136    91    92    1
   137   102   100   ar
   138   102   104   ar
   139    92    93    1
   140   100   101   ar
   141   104   105   ar
   142   101   103   ar
   143    93    94    1
   144   105   103   ar
