@<TRIPOS>MOLECULE
tmp/5wioA00.pdb
 90 87 0 0 0
SMALL
GASTEIGER

@<TRIPOS>ATOM
      1  N         38.8700   17.4850   10.0220 N.3    21  ILE21      -0.1231
      2  CA        38.0700   16.8670    8.9700 C.3    21  ILE21       0.1692
      3  C         38.5490   15.4450    8.7110 C.2    21  ILE21       0.2592
      4  O         37.7550   14.5570    8.4090 O.2    21  ILE21      -0.2718
      5  CB        38.1270   17.6680    7.6580 C.3    21  ILE21       0.0266
      6  CG1       37.7880   19.1380    7.9090 C.3    21  ILE21       0.0019
      7  CG2       37.1760   17.0700    6.6300 C.3    21  ILE21       0.0020
      8  CD1       37.9250   20.0100    6.6820 C.3    21  ILE21       0.0001
      9  N         39.8560   15.2350    8.8320 N.am   22  HIS22      -0.1976
     10  CA        40.4360   13.9130    8.6410 C.3    22  HIS22       0.1656
     11  C         40.0920   12.9740    9.7880 C.2    22  HIS22       0.2291
     12  O         39.7950   11.7990    9.5710 O.2    22  HIS22      -0.2864
     13  CB        41.9560   14.0050    8.4980 C.3    22  HIS22       0.0771
     14  CG        42.4160   14.3910    7.1280 C.ar   22  HIS22       0.0820
     15  ND1       41.9690   13.7590    5.9870 N.ar   22  HIS22      -0.2267
     16  CD2       43.2940   15.3350    6.7140 C.ar   22  HIS22       0.1154
     17  CE1       42.5450   14.3020    4.9300 C.ar   22  HIS22       0.1986
     18  NE2       43.3550   15.2600    5.3430 N.ar   22  HIS22      -0.2212
     19  N         35.7900   12.8990   10.5450 N.3    25  SER25      -0.1202
     20  CA        34.9290   12.4390    9.4610 C.3    25  SER25       0.2020
     21  C         35.1070   10.9470    9.2300 C.2    25  SER25       0.2619
     22  O         36.1950   10.4050    9.4230 O.2    25  SER25      -0.2717
     23  CB        35.2190   13.1970    8.1640 C.3    25  SER25       0.2103
     24  OG        35.2060   14.5960    8.3720 O.3    25  SER25      -0.2182
     25  N         34.0310   10.2870    8.8210 N.am   26  TYR26      -0.1961
     26  CA        34.1150    8.8910    8.4230 C.3    26  TYR26       0.1771
     27  C         33.4440    8.6520    7.0800 C.2    26  TYR26       0.2619
     28  O         32.2170    8.6850    6.9670 O.2    26  TYR26      -0.2715
     29  CB        33.4940    7.9730    9.4750 C.3    26  TYR26       0.0574
     30  CG        33.5060    6.5230    9.0430 C.ar   26  TYR26      -0.0198
     31  CD1       34.6800    5.7810    9.0780 C.ar   26  TYR26      -0.0009
     32  CD2       32.3530    5.9040    8.5800 C.ar   26  TYR26      -0.0009
     33  CE1       34.7050    4.4600    8.6750 C.ar   26  TYR26       0.0417
     34  CE2       32.3660    4.5810    8.1740 C.ar   26  TYR26       0.0417
     35  CZ        33.5440    3.8640    8.2240 C.ar   26  TYR26       0.1957
     36  OH        33.5630    2.5490    7.8220 O.3    26  TYR26      -0.2866
     37  N         34.2640    8.4160    6.0650 N.am   27  ASP27      -0.1971
     38  CA        33.7750    8.0170    4.7560 C.3    27  ASP27       0.1709
     39  C         34.5090    6.7540    4.3310 C.2    27  ASP27       0.2293
     40  O         35.7400    6.7290    4.2780 O.2    27  ASP27      -0.2864
     41  CB        33.9680    9.1340    3.7310 C.3    27  ASP27       0.1436
     42  CG        33.4230    8.7730    2.3610 C.2    27  ASP27       0.3671
     43  OD1       32.5890    7.8480    2.2720 O.co2  27  ASP27      -0.2456
     44  OD2       33.8260    9.4220    1.3730 O.co2  27  ASP27      -0.2456
     45  N         37.3860    7.0520    1.8440 N.3    30  SER30      -0.1217
     46  CA        38.5810    7.8440    2.1210 C.3    30  SER30       0.1889
     47  C         39.1990    7.5300    3.4810 C.2    30  SER30       0.2288
     48  O         40.0920    8.2420    3.9400 O.2    30  SER30      -0.2866
     49  CB        38.2490    9.3340    2.0390 C.3    30  SER30       0.2089
     50  OG        37.2050    9.6740    2.9370 O.3    30  SER30      -0.2183
     51  N         42.3600    9.2220    5.2230 N.3    34  ASP34      -0.1239
     52  CA        42.1420    9.9600    6.4620 C.3    34  ASP34       0.1674
     53  C         42.9730    9.3720    7.5970 C.2    34  ASP34       0.2266
     54  O         43.5170   10.1020    8.4250 O.2    34  ASP34      -0.2867
     55  CB        40.6600    9.9550    6.8430 C.3    34  ASP34       0.1410
     56  CG        39.7830   10.5890    5.7820 C.2    34  ASP34       0.3668
     57  OD1       40.3000   11.4110    4.9950 O.co2  34  ASP34      -0.2456
     58  OD2       38.5760   10.2690    5.7380 O.co2  34  ASP34      -0.2456
     59  N         27.8740    7.1280    7.5090 N.3    69  THR69      -0.1203
     60  CA        28.9050    8.1390    7.2950 C.3    69  THR69       0.1994
     61  C         28.7040    9.3220    8.2390 C.2    69  THR69       0.2619
     62  O         27.6100    9.5250    8.7660 O.2    69  THR69      -0.2717
     63  CB        28.9110    8.6490    5.8400 C.3    69  THR69       0.1784
     64  OG1       30.0140    9.5430    5.6460 O.3    69  THR69      -0.2211
     65  CG2       27.6120    9.3720    5.5210 C.3    69  THR69       0.0376
     66  N         29.7740   10.0430    8.4860 N.am   70  THR70      -0.1938
     67  CA        29.6920   11.2520    9.2340 C.3    70  THR70       0.2028
     68  C         30.3960   12.3360    8.4780 C.2    70  THR70       0.2642
     69  O         31.5670   12.2610    8.1970 O.2    70  THR70      -0.2714
     70  CB        30.3460   11.0740   10.5790 C.3    70  THR70       0.1808
     71  OG1       29.6110   10.1030   11.3010 O.3    70  THR70      -0.2208
     72  CG2       30.3210   12.3330   11.3310 C.3    70  THR70       0.0379
     73  N         29.6500   13.3690    8.1760 N.am   71  ARG71      -0.1963
     74  CA        30.1850   14.5910    7.5800 C.3    71  ARG71       0.1729
     75  C         30.6560   15.5900    8.6360 C.2    71  ARG71       0.2616
     76  O         30.1150   15.6350    9.7410 O.2    71  ARG71      -0.2715
     77  CB        29.1240   15.2340    6.6850 C.3    71  ARG71       0.0348
     78  CG        29.3760   16.6900    6.3480 C.3    71  ARG71       0.0492
     79  CD        28.2420   17.2520    5.5070 C.3    71  ARG71       0.2205
     80  NE        26.9340   16.9300    6.0720 N.pl3  71  ARG71      -0.0865
     81  CZ        25.7760   17.3100    5.5410 C.cat  71  ARG71       0.5346
     82  NH1       25.7590   18.0310    4.4270 N.pl3  71  ARG71       0.1354
     83  NH2       24.6340   16.9710    6.1220 N.pl3  71  ARG71       0.1354
     84  N         31.6620   16.3910    8.2910 N.am   72  VAL72      -0.1977
     85  CA        32.2010   17.3850    9.2150 C.3    72  VAL72       0.1596
     86  C         32.0640   18.8080    8.6750 C.2    72  VAL72       0.2287
     87  O         32.2700   19.0570    7.4870 O.2    72  VAL72      -0.2864
     88  CB        33.6820   17.1040    9.5350 C.3    72  VAL72       0.0276
     89  CG1       34.3660   18.3610   10.0500 C.3    72  VAL72       0.0022
     90  CG2       33.7960   15.9750   10.5480 C.3    72  VAL72       0.0022
@<TRIPOS>BOND
     1    44    42   ar
     2    45    46    1
     3    49    46    1
     4    49    50    1
     5    46    47    1
     6    43    42   ar
     7    42    41    1
     8    47    48    2
     9    41    38    1
    10    40    39    2
    11    39    38    1
    12    82    81    1
    13    38    37    1
    14    17    18   ar
    15    17    15   ar
    16    57    56   ar
    17    51    52    1
    18    18    16   ar
    19    79    80    1
    20    79    78    1
    21    65    63    1
    22    81    80    2
    23    81    83    1
    24    64    63    1
    25    58    56   ar
    26    56    55    1
    27    63    60    1
    28    15    14   ar
    29    37    27   am
    30    78    77    1
    31    52    55    1
    32    52    53    1
    33     7     5    1
    34     8     6    1
    35    77    74    1
    36    16    14   ar
    37    28    27    2
    38    27    26    1
    39    14    13    1
    40    60    59    1
    41    60    61    1
    42    87    86    2
    43    74    73    1
    44    74    75    1
    45    53    54    2
    46     5     6    1
    47     5     2    1
    48    36    35    1
    49    23    24    1
    50    23    20    1
    51    34    35   ar
    52    34    32   ar
    53    73    68   am
    54    69    68    2
    55    35    33   ar
    56    61    66   am
    57    61    62    2
    58    84    75   am
    59    84    85    1
    60     4     3    2
    61    26    25    1
    62    26    29    1
    63    68    67    1
    64    66    67    1
    65    13    10    1
    66    32    30   ar
    67    75    76    2
    68    10     9    1
    69    10    11    1
    70    33    31   ar
    71    86    85    1
    72     3     9   am
    73     3     2    1
    74    25    21   am
    75     2     1    1
    76    30    31   ar
    77    30    29    1
    78    85    88    1
    79    21    22    2
    80    21    20    1
    81    67    70    1
    82    20    19    1
    83    88    89    1
    84    88    90    1
    85    12    11    2
    86    70    71    1
    87    70    72    1
