@<TRIPOS>MOLECULE
tmp/5wipA00.pdb
 146 141 0 0 0
SMALL
GASTEIGER

@<TRIPOS>ATOM
      1  N        -40.1950  -15.4710    8.3950 N.3    22  HIS22      -0.1226
      2  CA       -40.6770  -14.1040    8.2250 C.3    22  HIS22       0.1752
      3  C        -40.2650  -13.2180    9.3940 C.2    22  HIS22       0.2596
      4  O        -39.9030  -12.0520    9.2000 O.2    22  HIS22      -0.2718
      5  CB       -42.1980  -14.0960    8.0670 C.3    22  HIS22       0.0759
      6  CG       -42.6690  -14.4660    6.6950 C.ar   22  HIS22       0.0818
      7  ND1      -42.5390  -13.6240    5.6130 N.ar   22  HIS22      -0.2268
      8  CD2      -43.2790  -15.5830    6.2320 C.ar   22  HIS22       0.1154
      9  CE1      -43.0430  -14.2070    4.5400 C.ar   22  HIS22       0.1986
     10  NE2      -43.4990  -15.3970    4.8890 N.ar   22  HIS22      -0.2212
     11  N        -40.3140  -13.7510   10.6140 N.am   23  ARG23      -0.1966
     12  CA       -40.0930  -12.9390   11.8050 C.3    23  ARG23       0.1729
     13  C        -38.6260  -12.8120   12.1930 C.2    23  ARG23       0.2616
     14  O        -38.2450  -11.8100   12.8080 O.2    23  ARG23      -0.2715
     15  CB       -40.8810  -13.5090   12.9880 C.3    23  ARG23       0.0348
     16  CG       -40.5600  -12.8370   14.3120 C.3    23  ARG23       0.0492
     17  CD       -41.6840  -13.0040   15.3170 C.3    23  ARG23       0.2205
     18  NE       -41.3490  -12.4000   16.6040 N.pl3  23  ARG23      -0.0865
     19  CZ       -42.2310  -12.1610   17.5690 C.cat  23  ARG23       0.5346
     20  NH1      -43.5090  -12.4690   17.3940 N.pl3  23  ARG23       0.1354
     21  NH2      -41.8370  -11.6080   18.7080 N.pl3  23  ARG23       0.1354
     22  N        -37.7930  -13.7960   11.8560 N.am   24  GLU24      -0.1963
     23  CA       -36.3960  -13.7860   12.2700 C.3    24  GLU24       0.1733
     24  C        -35.4370  -13.3490   11.1710 C.2    24  GLU24       0.2617
     25  O        -34.2720  -13.0640   11.4680 O.2    24  GLU24      -0.2715
     26  CB       -35.9920  -15.1710   12.7900 C.3    24  GLU24       0.0429
     27  CG       -36.7490  -15.5880   14.0390 C.3    24  GLU24       0.1163
     28  CD       -36.6380  -14.5620   15.1520 C.2    24  GLU24       0.3649
     29  OE1      -35.6140  -13.8480   15.2040 O.co2  24  GLU24      -0.2457
     30  OE2      -37.5760  -14.4630   15.9720 O.co2  24  GLU24      -0.2457
     31  N        -35.8850  -13.2920    9.9210 N.am   25  SER25      -0.1936
     32  CA       -35.0490  -12.7440    8.8670 C.3    25  SER25       0.2055
     33  C        -35.1870  -11.2260    8.8260 C.2    25  SER25       0.2643
     34  O        -36.1100  -10.6450    9.4010 O.2    25  SER25      -0.2714
     35  CB       -35.4280  -13.3350    7.5080 C.3    25  SER25       0.2130
     36  OG       -35.4660  -14.7510    7.5470 O.3    25  SER25      -0.2179
     37  N        -34.2480  -10.5780    8.1390 N.am   26  TYR26      -0.1973
     38  CA       -34.3590   -9.1490    7.8580 C.3    26  TYR26       0.1639
     39  C        -33.8480   -8.8830    6.4500 C.2    26  TYR26       0.2290
     40  O        -32.6480   -9.0040    6.1870 O.2    26  TYR26      -0.2864
     41  CB       -33.5960   -8.2940    8.8690 C.3    26  TYR26       0.0560
     42  CG       -33.7520   -6.8180    8.5730 C.ar   26  TYR26      -0.0198
     43  CD1      -34.8790   -6.1240    8.9930 C.ar   26  TYR26      -0.0009
     44  CD2      -32.7930   -6.1260    7.8430 C.ar   26  TYR26      -0.0009
     45  CE1      -35.0380   -4.7800    8.7140 C.ar   26  TYR26       0.0417
     46  CE2      -32.9440   -4.7800    7.5590 C.ar   26  TYR26       0.0417
     47  CZ       -34.0680   -4.1130    7.9970 C.ar   26  TYR26       0.1957
     48  OH       -34.2260   -2.7740    7.7180 O.3    26  TYR26      -0.2866
     49  N        -39.0510   -6.5540    3.9550 N.3    31  VAL31      -0.1245
     50  CA       -39.4640   -6.4210    5.3490 C.3    31  VAL31       0.1561
     51  C        -40.9330   -6.0390    5.4540 C.2    31  VAL31       0.2260
     52  O        -41.6170   -6.4290    6.4080 O.2    31  VAL31      -0.2867
     53  CB       -38.5670   -5.4000    6.0780 C.3    31  VAL31       0.0252
     54  CG1      -38.6290   -4.0470    5.3860 C.3    31  VAL31       0.0019
     55  CG2      -38.9800   -5.2770    7.5370 C.3    31  VAL31       0.0019
     56  N        -42.8450   -9.2660    5.1750 N.3    34  ASP34      -0.1225
     57  CA       -42.6140  -10.0410    6.3900 C.3    34  ASP34       0.1805
     58  C        -43.3710   -9.4460    7.5710 C.2    34  ASP34       0.2597
     59  O        -44.0470  -10.1640    8.3170 O.2    34  ASP34      -0.2718
     60  CB       -41.1160  -10.1100    6.6900 C.3    34  ASP34       0.1424
     61  CG       -40.3330  -10.8020    5.5920 C.2    34  ASP34       0.3668
     62  OD1      -40.8600  -11.7690    5.0040 O.co2  34  ASP34      -0.2456
     63  OD2      -39.1920  -10.3770    5.3160 O.co2  34  ASP34      -0.2456
     64  N        -43.2640   -8.1280    7.7590 N.am   35  TYR35      -0.1976
     65  CA       -43.9860   -7.4730    8.8450 C.3    35  TYR35       0.1639
     66  C        -45.4810   -7.7550    8.7600 C.2    35  TYR35       0.2290
     67  O        -46.1380   -7.9810    9.7830 O.2    35  TYR35      -0.2864
     68  CB       -43.7160   -5.9680    8.8170 C.3    35  TYR35       0.0560
     69  CG       -44.4980   -5.1750    9.8410 C.ar   35  TYR35      -0.0198
     70  CD1      -43.9890   -4.9530   11.1140 C.ar   35  TYR35      -0.0009
     71  CD2      -45.7420   -4.6410    9.5320 C.ar   35  TYR35      -0.0009
     72  CE1      -44.7010   -4.2260   12.0510 C.ar   35  TYR35       0.0417
     73  CE2      -46.4600   -3.9150   10.4620 C.ar   35  TYR35       0.0417
     74  CZ       -45.9350   -3.7100   11.7190 C.ar   35  TYR35       0.1957
     75  OH       -46.6480   -2.9860   12.6480 O.3    35  TYR35      -0.2866
     76  N        -44.3360   -8.0080   18.8250 N.3    50  TYR50      -0.1241
     77  CA       -43.4030   -8.0420   17.7040 C.3    50  TYR50       0.1605
     78  C        -43.3130   -6.6880   17.0080 C.2    50  TYR50       0.2264
     79  O        -42.2270   -6.2740   16.5840 O.2    50  TYR50      -0.2867
     80  CB       -43.8220   -9.1380   16.7250 C.3    50  TYR50       0.0534
     81  CG       -43.3740   -8.9240   15.2990 C.ar   50  TYR50      -0.0201
     82  CD1      -42.0990   -9.2820   14.8850 C.ar   50  TYR50      -0.0009
     83  CD2      -44.2380   -8.3820   14.3600 C.ar   50  TYR50      -0.0009
     84  CE1      -41.6950   -9.0930   13.5770 C.ar   50  TYR50       0.0417
     85  CE2      -43.8440   -8.1900   13.0530 C.ar   50  TYR50       0.0417
     86  CZ       -42.5730   -8.5460   12.6650 C.ar   50  TYR50       0.1957
     87  OH       -42.1850   -8.3530   11.3600 O.3    50  TYR50      -0.2866
     88  N        -40.7100   -3.1270   17.9500 N.3    53  LYS53      -0.1231
     89  CA       -39.4050   -2.7520   17.4220 C.3    53  LYS53       0.1693
     90  C        -39.4880   -1.9590   16.1240 C.2    53  LYS53       0.2592
     91  O        -38.4660   -1.4230   15.6830 O.2    53  LYS53      -0.2718
     92  CB       -38.5520   -4.0030   17.2120 C.3    53  LYS53       0.0285
     93  CG       -39.2190   -5.0800   16.3710 C.3    53  LYS53       0.0035
     94  CD       -38.3200   -6.2960   16.2420 C.3    53  LYS53       0.0206
     95  CE       -37.8860   -6.7930   17.6110 C.3    53  LYS53       0.1093
     96  NZ       -36.9090   -7.9090   17.5200 N.3    53  LYS53      -0.1314
     97  N        -40.6660   -1.8660   15.5070 N.am   54  PHE54      -0.1976
     98  CA       -40.8270   -1.1290   14.2610 C.3    54  PHE54       0.1639
     99  C        -41.4130    0.2650   14.4540 C.2    54  PHE54       0.2290
    100  O        -41.4630    1.0330   13.4870 O.2    54  PHE54      -0.2864
    101  CB       -41.7130   -1.9160   13.2860 C.3    54  PHE54       0.0560
    102  CG       -41.0760   -3.1740   12.7630 C.ar   54  PHE54      -0.0200
    103  CD1      -40.2370   -3.1370   11.6610 C.ar   54  PHE54      -0.0042
    104  CD2      -41.3250   -4.3950   13.3680 C.ar   54  PHE54      -0.0042
    105  CE1      -39.6530   -4.2940   11.1770 C.ar   54  PHE54      -0.0003
    106  CE2      -40.7460   -5.5530   12.8890 C.ar   54  PHE54      -0.0003
    107  CZ       -39.9090   -5.5030   11.7920 C.ar   54  PHE54      -0.0000
    108  N        -36.9740   -0.5210   13.5370 N.3    60  LEU60      -0.1245
    109  CA       -35.9250   -1.3710   12.9810 C.3    60  LEU60       0.1561
    110  C        -35.6020   -0.9920   11.5400 C.2    60  LEU60       0.2260
    111  O        -34.4440   -0.7240   11.2000 O.2    60  LEU60      -0.2867
    112  CB       -36.3390   -2.8410   13.0700 C.3    60  LEU60       0.0270
    113  CG       -35.2540   -3.8580   12.6990 C.3    60  LEU60       0.0019
    114  CD1      -34.1350   -3.8520   13.7300 C.3    60  LEU60       0.0001
    115  CD2      -35.8430   -5.2490   12.5520 C.3    60  LEU60       0.0001
    116  N        -31.9620    0.4060   10.3850 N.3    64  LEU64      -0.1245
    117  CA       -31.1190   -0.4880    9.5980 C.3    64  LEU64       0.1561
    118  C        -31.1720   -0.1480    8.1150 C.2    64  LEU64       0.2260
    119  O        -30.1340   -0.1170    7.4420 O.2    64  LEU64      -0.2867
    120  CB       -31.5380   -1.9420    9.8230 C.3    64  LEU64       0.0270
    121  CG       -31.5730   -2.4540   11.2630 C.3    64  LEU64       0.0019
    122  CD1      -31.8890   -3.9410   11.2760 C.3    64  LEU64       0.0001
    123  CD2      -30.2590   -2.1730   11.9750 C.3    64  LEU64       0.0001
    124  N        -27.7940   -3.8510    6.2450 N.3    68  GLU68      -0.1245
    125  CA       -27.4810   -5.2090    6.6670 C.3    68  GLU68       0.1567
    126  C        -28.6530   -6.1190    6.3300 C.2    68  GLU68       0.2260
    127  O        -29.7320   -5.6650    5.9410 O.2    68  GLU68      -0.2867
    128  CB       -27.1580   -5.2700    8.1640 C.3    68  GLU68       0.0388
    129  CG       -28.3530   -5.0090    9.0640 C.3    68  GLU68       0.1160
    130  CD       -28.0190   -5.1610   10.5340 C.2    68  GLU68       0.3649
    131  OE1      -27.0960   -4.4680   11.0110 O.co2  68  GLU68      -0.2457
    132  OE2      -28.6750   -5.9820   11.2110 O.co2  68  GLU68      -0.2457
    133  N        -30.2140  -10.3940    7.3850 N.3    70  THR70      -0.1218
    134  CA       -30.1110  -11.6060    8.1930 C.3    70  THR70       0.1862
    135  C        -31.0430  -12.6590    7.6150 C.2    70  THR70       0.2287
    136  O        -32.2470  -12.4180    7.4800 O.2    70  THR70      -0.2866
    137  CB       -30.4600  -11.3280    9.6600 C.3    70  THR70       0.1770
    138  OG1      -29.4130  -10.5620   10.2680 O.3    70  THR70      -0.2211
    139  CG2      -30.6420  -12.6330   10.4250 C.3    70  THR70       0.0375
    140  N        -29.1460  -18.2550   12.2730 N.3    92  THR92      -0.1218
    141  CA       -29.1260  -16.9820   11.5720 C.3    92  THR92       0.1862
    142  C        -27.6920  -16.6280   11.2060 C.2    92  THR92       0.2287
    143  O        -26.7510  -16.9280   11.9470 O.2    92  THR92      -0.2866
    144  CB       -29.7340  -15.8550   12.4170 C.3    92  THR92       0.1770
    145  OG1      -29.0380  -15.7600   13.6670 O.3    92  THR92      -0.2211
    146  CG2      -31.2100  -16.1200   12.6770 C.3    92  THR92       0.0375
@<TRIPOS>BOND
     1    49    50    1
     2     9    10   ar
     3     9     7   ar
     4    10     8   ar
     5    62    61   ar
     6    56    57    1
     7    63    61   ar
     8    50    51    1
     9    50    53    1
    10    54    53    1
    11    51    52    2
    12    61    60    1
    13     7     6   ar
    14   127   126    2
    15    53    55    1
    16    40    39    2
    17     8     6   ar
    18   124   125    1
    19   126   125    1
    20    57    60    1
    21    57    58    1
    22    39    38    1
    23   125   128    1
    24     6     5    1
    25   133   134    1
    26   119   118    2
    27   136   135    2
    28    35    36    1
    29    35    32    1
    30    46    44   ar
    31    46    47   ar
    32    58    64   am
    33    58    59    2
    34   135   134    1
    35    48    47    1
    36    64    65    1
    37    44    42   ar
    38    38    37    1
    39    38    41    1
    40    47    45   ar
    41     5     2    1
    42   118   117    1
    43    37    33   am
    44   128   129    1
    45   134   137    1
    46     2     1    1
    47     2     3    1
    48    42    41    1
    49    42    43   ar
    50    45    43   ar
    51    66    65    1
    52    66    67    2
    53    68    65    1
    54    68    69    1
    55    33    32    1
    56    33    34    2
    57    32    31    1
    58   129   130    1
    59     4     3    2
    60     3    11   am
    61    71    69   ar
    62    71    73   ar
    63   117   120    1
    64   117   116    1
    65   137   138    1
    66   137   139    1
    67   120   121    1
    68    69    70   ar
    69    31    24   am
    70    73    74   ar
    71   130   131   ar
    72   130   132   ar
    73    11    12    1
    74    70    72   ar
    75    24    25    2
    76    24    23    1
    77   105   103   ar
    78   105   107   ar
    79   111   110    2
    80   142   141    1
    81   142   143    2
    82   121   122    1
    83   121   123    1
    84    87    86    1
    85   110   109    1
    86   141   140    1
    87   141   144    1
    88   103   102   ar
    89    74    72   ar
    90    74    75    1
    91   107   106   ar
    92    12    13    1
    93    12    15    1
    94    22    13   am
    95    22    23    1
    96    13    14    2
    97    23    26    1
    98   144   146    1
    99   144   145    1
   100   115   113    1
   101    86    85   ar
   102    86    84   ar
   103   113   112    1
   104   113   114    1
   105   102   101    1
   106   102   104   ar
   107    26    27    1
   108   106   104   ar
   109   109   112    1
   110   109   108    1
   111    15    16    1
   112    85    83   ar
   113   101    98    1
   114   100    99    2
   115    84    82   ar
   116    27    28    1
   117    98    99    1
   118    98    97    1
   119    16    17    1
   120    83    81   ar
   121    82    81   ar
   122    28    29   ar
   123    28    30   ar
   124    81    80    1
   125    17    18    1
   126    97    90   am
   127    91    90    2
   128    90    89    1
   129    94    93    1
   130    94    95    1
   131    93    92    1
   132    79    78    2
   133    18    19    2
   134    80    77    1
   135    78    77    1
   136    92    89    1
   137    20    19    1
   138    89    88    1
   139    96    95    1
   140    19    21    1
   141    77    76    1
