@<TRIPOS>MOLECULE
tmp/5wiuA07.pdb
 81 77 0 0 0
SMALL
GASTEIGER

@<TRIPOS>ATOM
      1  N        -22.3430   19.5980  -27.3570 N.3    62  GLU62      -0.1245
      2  CA       -21.3450   19.5510  -28.4260 C.3    62  GLU62       0.1567
      3  C        -21.8570   20.1290  -29.7510 C.2    62  GLU62       0.2260
      4  O        -21.1120   20.7760  -30.4890 O.2    62  GLU62      -0.2867
      5  CB       -20.8760   18.1090  -28.6260 C.3    62  GLU62       0.0388
      6  CG       -20.0620   17.5880  -27.4490 C.3    62  GLU62       0.1160
      7  CD       -18.7120   18.2760  -27.3550 C.2    62  GLU62       0.3649
      8  OE1      -17.8360   17.9840  -28.2030 O.co2  62  GLU62      -0.2457
      9  OE2      -18.5430   19.1480  -26.4740 O.co2  62  GLU62      -0.2457
     10  N         -8.9190    4.1920  -22.9100 N.3   317  CYS317     -0.1235
     11  CA        -9.9830    5.1710  -23.1400 C.3   317  CYS317      0.1677
     12  C        -10.0410    6.3180  -22.1450 C.2   317  CYS317      0.2270
     13  O        -10.4510    7.4220  -22.5040 O.2   317  CYS317     -0.2867
     14  CB       -11.3300    4.4660  -23.1470 C.3   317  CYS317      0.0956
     15  SG       -11.5830    3.5590  -24.6620 S.3   317  CYS317     -0.0801
     16  N         -8.7040   23.3860  -26.1160 N.3   338  PRO338     -0.2102
     17  CA       -10.0980   22.9760  -25.9210 C.3   338  PRO338      0.1504
     18  C        -10.4940   21.8050  -26.8160 C.2   338  PRO338      0.2575
     19  O        -11.2250   20.9290  -26.3860 O.2   338  PRO338     -0.2718
     20  CB       -10.8830   24.2550  -26.2820 C.3   338  PRO338      0.0282
     21  CG        -9.9630   25.3500  -25.8780 C.3   338  PRO338      0.0208
     22  CD        -8.5790   24.8550  -26.2630 C.3   338  PRO338      0.0893
     23  N         -9.9700   21.7810  -28.0340 N.am  339  ARG339     -0.1980
     24  CA       -10.2170   20.7080  -28.9880 C.3   339  ARG339      0.1597
     25  C         -9.7880   19.3330  -28.4350 C.2   339  ARG339      0.2287
     26  O        -10.4240   18.3200  -28.7120 O.2   339  ARG339     -0.2864
     27  CB        -9.4830   21.0340  -30.2840 C.3   339  ARG339      0.0334
     28  CG        -9.5730   20.0410  -31.4050 C.3   339  ARG339      0.0492
     29  CD        -8.6230   20.5020  -32.5180 C.3   339  ARG339      0.2205
     30  NE        -7.6390   19.4830  -32.8860 N.pl3 339  ARG339     -0.0865
     31  CZ        -6.6350   19.6900  -33.7400 C.cat 339  ARG339      0.5346
     32  NH1       -6.4700   20.8800  -34.3090 N.pl3 339  ARG339      0.1354
     33  NH2       -5.7900   18.7070  -34.0200 N.pl3 339  ARG339      0.1354
     34  N        -12.1340   18.2390  -25.5690 N.3   342  SER342     -0.1202
     35  CA       -13.2880   17.6240  -26.2100 C.3   342  SER342      0.2020
     36  C        -12.9740   16.2160  -26.7060 C.2   342  SER342      0.2618
     37  O        -13.7550   15.3020  -26.5100 O.2   342  SER342     -0.2717
     38  CB       -13.7740   18.4820  -27.3720 C.3   342  SER342      0.2103
     39  OG       -14.8530   17.8580  -28.0390 O.3   342  SER342     -0.2182
     40  N        -11.8210   16.0490  -27.3550 N.am  343  ALA343     -0.1979
     41  CA       -11.4300   14.7360  -27.8780 C.3   343  ALA343      0.1597
     42  C        -11.3350   13.6630  -26.7900 C.2   343  ALA343      0.2287
     43  O        -11.8440   12.5510  -26.9740 O.2   343  ALA343     -0.2864
     44  CB       -10.1090   14.8250  -28.6140 C.3   343  ALA343      0.0319
     45  N        -14.8510   12.4810  -25.5660 N.3   346  TRP346     -0.1227
     46  CA       -15.4360   11.5350  -26.5130 C.3   346  TRP346      0.1737
     47  C        -14.8000   10.1580  -26.3580 C.2   346  TRP346      0.2595
     48  O        -15.4920    9.1460  -26.3550 O.2   346  TRP346     -0.2718
     49  CB       -15.2890   12.0290  -27.9660 C.3   346  TRP346      0.0564
     50  CG       -16.3070   13.0830  -28.3850 C.ar  346  TRP346      0.0003
     51  CD1      -16.1070   14.4190  -28.4520 C.ar  346  TRP346      0.0946
     52  CD2      -17.6720   12.8640  -28.7880 C.ar  346  TRP346      0.0152
     53  NE1      -17.2480   15.0540  -28.8700 N.ar  346  TRP346     -0.2442
     54  CE2      -18.2260   14.1250  -29.0830 C.ar  346  TRP346      0.0810
     55  CE3      -18.4720   11.7290  -28.9240 C.ar  346  TRP346      0.0012
     56  CZ2      -19.5500   14.2890  -29.5070 C.ar  346  TRP346      0.0191
     57  CZ3      -19.8000   11.8920  -29.3530 C.ar  346  TRP346      0.0001
     58  CH2      -20.3170   13.1570  -29.6400 C.ar  346  TRP346      0.0015
     59  N        -13.4810   10.1210  -26.2290 N.am  347  LEU347     -0.1980
     60  CA       -12.7810    8.8450  -26.1150 C.3   347  LEU347      0.1596
     61  C        -13.2120    8.0940  -24.8520 C.2   347  LEU347      0.2287
     62  O        -13.4610    6.9000  -24.9060 O.2   347  LEU347     -0.2864
     63  CB       -11.2780    9.0580  -26.1240 C.3   347  LEU347      0.0297
     64  CG       -10.4080    7.8180  -25.9250 C.3   347  LEU347      0.0022
     65  CD1      -10.6450    6.7720  -27.0220 C.3   347  LEU347      0.0001
     66  CD2       -8.9440    8.2720  -25.8850 C.3   347  LEU347      0.0001
     67  N        -16.7550    6.6570  -25.4920 N.3   350  VAL350     -0.1245
     68  CA       -16.6850    5.5550  -26.4560 C.3   350  VAL350      0.1561
     69  C        -16.4090    4.2090  -25.7650 C.2   350  VAL350      0.2260
     70  O        -16.9050    3.1690  -26.2030 O.2   350  VAL350     -0.2867
     71  CB       -15.6070    5.8260  -27.5300 C.3   350  VAL350      0.0252
     72  CG1      -15.1280    4.5360  -28.1770 C.3   350  VAL350      0.0019
     73  CG2      -16.1410    6.7940  -28.5910 C.3   350  VAL350      0.0019
     74  N        -17.6640   -0.2530  -26.0650 N.3   354  LEU354     -0.1245
     75  CA       -16.6740   -1.2770  -26.4110 C.3   354  LEU354      0.1561
     76  C        -16.8620   -2.5910  -25.6960 C.2   354  LEU354      0.2260
     77  O        -16.6140   -3.6470  -26.2850 O.2   354  LEU354     -0.2867
     78  CB       -15.2510   -0.7880  -26.1140 C.3   354  LEU354      0.0270
     79  CG       -14.7760    0.4790  -26.8150 C.3   354  LEU354      0.0019
     80  CD1      -13.3390    0.8250  -26.3870 C.3   354  LEU354      0.0001
     81  CD2      -14.8810    0.3190  -28.3210 C.3   354  LEU354      0.0001
@<TRIPOS>BOND
     1    32    31    1
     2    33    31    1
     3    31    30    2
     4    30    29    1
     5    29    28    1
     6    28    27    1
     7     4     3    2
     8    27    24    1
     9     3     2    1
    10    58    56   ar
    11    58    57   ar
    12    56    54   ar
    13    57    55   ar
    14    54    53   ar
    15    54    52   ar
    16    24    25    1
    17    24    23    1
    18    55    52   ar
    19    53    51   ar
    20    52    50   ar
    21    26    25    2
    22     5     2    1
    23     5     6    1
    24    44    41    1
    25    73    71    1
    26    51    50   ar
    27     2     1    1
    28    50    49    1
    29    81    79    1
    30     8     7   ar
    31    72    71    1
    32    39    38    1
    33    23    18   am
    34    49    46    1
    35    41    40    1
    36    41    42    1
    37    71    68    1
    38     6     7    1
    39    38    35    1
    40    40    36   am
    41     7     9   ar
    42    65    64    1
    43    43    42    2
    44    18    19    2
    45    18    17    1
    46    79    80    1
    47    79    78    1
    48    36    37    2
    49    36    35    1
    50    46    47    1
    51    46    45    1
    52    68    69    1
    53    68    67    1
    54    75    78    1
    55    75    74    1
    56    75    76    1
    57    47    48    2
    58    47    59   am
    59    77    76    2
    60    20    17    1
    61    20    21    1
    62    22    16    1
    63    22    21    1
    64    59    60    1
    65    35    34    1
    66    70    69    2
    67    63    60    1
    68    63    64    1
    69    16    17    1
    70    60    61    1
    71    64    66    1
    72    62    61    2
    73    15    14    1
    74    14    11    1
    75    11    10    1
    76    11    12    1
    77    13    12    2
