@<TRIPOS>MOLECULE
tmp/5wivA09.pdb
 116 113 0 0 0
SMALL
GASTEIGER

@<TRIPOS>ATOM
      1  N        -25.7180   -2.4120  -27.3050 N.3    20  GLY20      -0.1225
      2  CA       -24.7560   -3.3960  -26.8490 C.3    20  GLY20       0.1811
      3  C        -24.9990   -3.8100  -25.4150 C.2    20  GLY20       0.2280
      4  O        -25.0140   -4.9980  -25.0930 O.2    20  GLY20      -0.2866
      5  N        -28.1830   -5.8460  -24.6430 N.3    23  LEU23      -0.1231
      6  CA       -28.0000   -7.2110  -25.1290 C.3    23  LEU23       0.1693
      7  C        -27.1390   -8.0100  -24.1730 C.2    23  LEU23       0.2591
      8  O        -27.2350   -9.2340  -24.1170 O.2    23  LEU23      -0.2718
      9  CB       -27.3800   -7.2180  -26.5270 C.3    23  LEU23       0.0284
     10  CG       -28.3570   -6.9810  -27.6820 C.3    23  LEU23       0.0019
     11  CD1      -27.5850   -6.7300  -28.9640 C.3    23  LEU23       0.0001
     12  CD2      -29.3050   -8.1610  -27.8540 C.3    23  LEU23       0.0001
     13  N        -26.3010   -7.3190  -23.4190 N.am   24  VAL24      -0.1980
     14  CA       -25.4900   -7.9900  -22.4220 C.3    24  VAL24       0.1595
     15  C        -26.3750   -8.4010  -21.2490 C.2    24  VAL24       0.2287
     16  O        -26.3250   -9.5510  -20.8160 O.2    24  VAL24      -0.2864
     17  CB       -24.3110   -7.0990  -21.9290 C.3    24  VAL24       0.0276
     18  CG1      -23.6720   -7.6890  -20.6700 C.3    24  VAL24       0.0022
     19  CG2      -23.2670   -6.9370  -23.0340 C.3    24  VAL24       0.0022
     20  N        -28.7810  -11.1430  -22.0430 N.3    27  SER27      -0.1217
     21  CA       -28.0740  -12.4010  -22.2430 C.3    27  SER27       0.1889
     22  C        -27.7330  -13.0460  -20.9100 C.2    27  SER27       0.2288
     23  O        -27.8280  -14.2690  -20.7560 O.2    27  SER27      -0.2866
     24  CB       -26.8050  -12.1900  -23.0700 C.3    27  SER27       0.2089
     25  OG       -27.1330  -11.8420  -24.4030 O.3    27  SER27      -0.2183
     26  N        -19.4690   -4.5790  -24.5930 N.3   360  PRO360     -0.2102
     27  CA       -20.2190   -5.6480  -25.2640 C.3   360  PRO360      0.1504
     28  C        -19.4410   -6.3040  -26.3910 C.2   360  PRO360      0.2575
     29  O        -19.4760   -7.5340  -26.5220 O.2   360  PRO360     -0.2718
     30  CB       -21.4530   -4.9130  -25.8010 C.3   360  PRO360      0.0282
     31  CG       -21.6830   -3.8710  -24.8020 C.3   360  PRO360      0.0208
     32  CD       -20.3210   -3.3970  -24.3710 C.3   360  PRO360      0.0893
     33  N        -18.7380   -5.4980  -27.1750 N.am  361  VAL361     -0.1980
     34  CA       -17.8870   -6.0160  -28.2390 C.3   361  VAL361      0.1595
     35  C        -16.7750   -6.9000  -27.6740 C.2   361  VAL361      0.2287
     36  O        -16.4530   -7.9490  -28.2360 O.2   361  VAL361     -0.2864
     37  CB       -17.2560   -4.8750  -29.0580 C.3   361  VAL361      0.0276
     38  CG1      -16.5980   -5.4420  -30.3150 C.3   361  VAL361      0.0022
     39  CG2      -18.3140   -3.8490  -29.4120 C.3   361  VAL361      0.0022
     40  N        -16.6680   -8.6440  -24.7950 N.3   363  TYR363     -0.1227
     41  CA       -17.2130   -9.9310  -24.3510 C.3   363  TYR363      0.1736
     42  C        -17.4750  -10.8780  -25.5210 C.2   363  TYR363      0.2596
     43  O        -17.2020  -12.0750  -25.4320 O.2   363  TYR363     -0.2718
     44  CB       -18.5180   -9.7370  -23.5750 C.3   363  TYR363      0.0548
     45  CG       -18.4240   -8.7570  -22.4450 C.ar  363  TYR363     -0.0200
     46  CD1      -17.2560   -8.6350  -21.6990 C.ar  363  TYR363     -0.0009
     47  CD2      -19.4970   -7.9360  -22.1320 C.ar  363  TYR363     -0.0009
     48  CE1      -17.1600   -7.7210  -20.6670 C.ar  363  TYR363      0.0417
     49  CE2      -19.4180   -7.0280  -21.1040 C.ar  363  TYR363      0.0417
     50  CZ       -18.2470   -6.9240  -20.3700 C.ar  363  TYR363      0.1957
     51  OH       -18.1680   -6.0070  -19.3460 O.3   363  TYR363     -0.2866
     52  N        -18.0320  -10.3370  -26.6010 N.am  364  THR364     -0.1939
     53  CA       -18.3790  -11.1180  -27.7800 C.3   364  THR364      0.2028
     54  C        -17.1540  -11.7430  -28.4310 C.2   364  THR364      0.2642
     55  O        -17.1780  -12.9010  -28.8470 O.2   364  THR364     -0.2714
     56  CB       -19.1030  -10.2480  -28.8150 C.3   364  THR364      0.1808
     57  OG1      -20.2750   -9.6880  -28.2160 O.3   364  THR364     -0.2208
     58  CG2      -19.5030  -11.0670  -30.0190 C.3   364  THR364      0.0379
     59  N        -16.0870  -10.9580  -28.5170 N.am  365  VAL365     -0.1977
     60  CA       -14.8340  -11.4040  -29.0960 C.3   365  VAL365      0.1596
     61  C        -14.0750  -12.3050  -28.1330 C.2   365  VAL365      0.2287
     62  O        -13.7770  -13.4560  -28.4500 O.2   365  VAL365     -0.2864
     63  CB       -13.9350  -10.2020  -29.4740 C.3   365  VAL365      0.0276
     64  CG1      -12.5760  -10.6840  -29.9370 C.3   365  VAL365      0.0022
     65  CG2      -14.5930   -9.3670  -30.5460 C.3   365  VAL365      0.0022
     66  N        -20.0280  -15.7780  -23.8000 N.3   370  PHE370     -0.1227
     67  CA       -20.7220  -14.6700  -24.4520 C.3   370  PHE370      0.1736
     68  C        -20.7200  -14.8240  -25.9640 C.2   370  PHE370      0.2595
     69  O        -21.7460  -14.6410  -26.6130 O.2   370  PHE370     -0.2718
     70  CB       -20.0870  -13.3260  -24.0790 C.3   370  PHE370      0.0547
     71  CG       -20.6640  -12.7090  -22.8400 C.ar  370  PHE370     -0.0202
     72  CD1      -22.0100  -12.3470  -22.7930 C.ar  370  PHE370     -0.0042
     73  CD2      -19.8690  -12.4790  -21.7260 C.ar  370  PHE370     -0.0042
     74  CE1      -22.5520  -11.7770  -21.6550 C.ar  370  PHE370     -0.0003
     75  CE2      -20.4050  -11.9020  -20.5840 C.ar  370  PHE370     -0.0003
     76  CZ       -21.7460  -11.5480  -20.5480 C.ar  370  PHE370     -0.0000
     77  N        -19.5480  -15.1370  -26.5080 N.am  371  ARG371     -0.1980
     78  CA       -19.3880  -15.4060  -27.9280 C.3   371  ARG371      0.1597
     79  C        -20.3900  -16.4750  -28.3800 C.2   371  ARG371      0.2287
     80  O        -21.0200  -16.3480  -29.4300 O.2   371  ARG371     -0.2864
     81  CB       -17.9510  -15.8510  -28.2190 C.3   371  ARG371      0.0334
     82  CG       -17.6930  -16.2210  -29.6610 C.3   371  ARG371      0.0492
     83  CD       -16.2090  -16.3000  -29.9780 C.3   371  ARG371      0.2205
     84  NE       -15.9800  -16.2240  -31.4210 N.pl3 371  ARG371     -0.0865
     85  CZ       -16.1040  -17.2530  -32.2620 C.cat 371  ARG371      0.5346
     86  NH1      -16.4500  -18.4560  -31.8160 N.pl3 371  ARG371      0.1354
     87  NH2      -15.8790  -17.0780  -33.5580 N.pl3 371  ARG371      0.1354
     88  N        -23.3890  -17.5130  -26.9350 N.3   373  VAL373     -0.1231
     89  CA       -24.7670  -17.0240  -26.9250 C.3   373  VAL373      0.1692
     90  C        -25.0330  -16.1140  -28.1330 C.2   373  VAL373      0.2592
     91  O        -26.0460  -16.2570  -28.8190 O.2   373  VAL373     -0.2718
     92  CB       -25.0720  -16.2660  -25.6140 C.3   373  VAL373      0.0266
     93  CG1      -26.3920  -15.5160  -25.7140 C.3   373  VAL373      0.0020
     94  CG2      -25.0650  -17.2310  -24.4310 C.3   373  VAL373      0.0020
     95  N        -24.1000  -15.1970  -28.3910 N.am  374  PHE374     -0.1962
     96  CA       -24.1450  -14.3210  -29.5640 C.3   374  PHE374      0.1771
     97  C        -24.2800  -15.0910  -30.8710 C.2   374  PHE374      0.2619
     98  O        -25.1840  -14.8350  -31.6580 O.2   374  PHE374     -0.2715
     99  CB       -22.8850  -13.4560  -29.6230 C.3   374  PHE374      0.0574
    100  CG       -22.8170  -12.5480  -30.8260 C.ar  374  PHE374     -0.0200
    101  CD1      -23.4440  -11.3120  -30.8130 C.ar  374  PHE374     -0.0042
    102  CD2      -22.1140  -12.9270  -31.9640 C.ar  374  PHE374     -0.0042
    103  CE1      -23.3750  -10.4740  -31.9100 C.ar  374  PHE374     -0.0003
    104  CE2      -22.0470  -12.0950  -33.0670 C.ar  374  PHE374     -0.0003
    105  CZ       -22.6780  -10.8670  -33.0400 C.ar  374  PHE374     -0.0000
    106  N        -23.3640  -16.0280  -31.0990 N.am  375  ARG375     -0.1977
    107  CA       -23.3060  -16.7800  -32.3480 C.3   375  ARG375      0.1597
    108  C        -24.5480  -17.6350  -32.5930 C.2   375  ARG375      0.2287
    109  O        -24.7610  -18.1080  -33.7090 O.2   375  ARG375     -0.2864
    110  CB       -22.0570  -17.6680  -32.3720 C.3   375  ARG375      0.0334
    111  CG       -21.9690  -18.5140  -33.6480 C.3   375  ARG375      0.0492
    112  CD       -20.6100  -18.9380  -34.0440 C.3   375  ARG375      0.2205
    113  NE       -19.7050  -19.2480  -32.9390 N.pl3 375  ARG375     -0.0865
    114  CZ       -19.7890  -20.3990  -32.2530 C.cat 375  ARG375      0.5346
    115  NH1      -20.6670  -21.3440  -32.5950 N.pl3 375  ARG375      0.1354
    116  NH2      -19.0140  -20.5640  -31.1780 N.pl3 375  ARG375      0.1354
@<TRIPOS>BOND
     1   112   111    1
     2   112   113    1
     3   109   108    2
     4   111   110    1
     5    87    85    1
     6   104   105   ar
     7   104   102   ar
     8   105   103   ar
     9   113   114    2
    10   115   114    1
    11   108   107    1
    12   110   107    1
    13   107   106    1
    14    85    86    1
    15    85    84    2
    16   114   116    1
    17   102   100   ar
    18   103   101   ar
    19    98    97    2
    20    84    83    1
    21   106    97   am
    22    97    96    1
    23   100   101   ar
    24   100    99    1
    25    65    63    1
    26    38    37    1
    27    58    56    1
    28    83    82    1
    29    64    63    1
    30    82    81    1
    31    99    96    1
    32    96    95    1
    33    63    60    1
    34    80    79    2
    35    39    37    1
    36    60    59    1
    37    60    61    1
    38    37    34    1
    39    11    10    1
    40    55    54    2
    41    91    90    2
    42    56    57    1
    43    56    53    1
    44    59    54   am
    45    62    61    2
    46    54    53    1
    47    95    90   am
    48    79    78    1
    49    34    35    1
    50    34    33    1
    51    36    35    2
    52    81    78    1
    53    90    89    1
    54    78    77    1
    55    12    10    1
    56    53    52    1
    57    10     9    1
    58     1     2    1
    59    33    28   am
    60    88    89    1
    61    89    92    1
    62     2     3    1
    63    69    68    2
    64    52    42   am
    65     9     6    1
    66    29    28    2
    67    77    68   am
    68    28    27    1
    69    68    67    1
    70    30    27    1
    71    30    31    1
    72    93    92    1
    73    92    94    1
    74    42    43    2
    75    42    41    1
    76     3     4    2
    77    27    26    1
    78     6     5    1
    79     6     7    1
    80    31    32    1
    81    40    41    1
    82    26    32    1
    83    67    70    1
    84    67    66    1
    85    25    24    1
    86    41    44    1
    87     7     8    2
    88     7    13   am
    89    70    71    1
    90    44    45    1
    91    13    14    1
    92    24    21    1
    93    19    17    1
    94    71    72   ar
    95    71    73   ar
    96    72    74   ar
    97    45    47   ar
    98    45    46   ar
    99    14    17    1
   100    14    15    1
   101    21    20    1
   102    21    22    1
   103    47    49   ar
   104    17    18    1
   105    73    75   ar
   106    46    48   ar
   107    74    76   ar
   108    15    16    2
   109    49    50   ar
   110    22    23    2
   111    48    50   ar
   112    75    76   ar
   113    50    51    1
