@<TRIPOS>MOLECULE
tmp/5wivA06.pdb
 101 93 0 0 0
SMALL
GASTEIGER

@<TRIPOS>ATOM
      1  N        -27.3340  -12.2310  -19.9400 N.3    28  VAL28      -0.1245
      2  CA       -27.0370  -12.7980  -18.6310 C.3    28  VAL28       0.1561
      3  C        -28.3530  -13.3180  -18.0470 C.2    28  VAL28       0.2260
      4  O        -28.3900  -14.3840  -17.4460 O.2    28  VAL28      -0.2867
      5  CB       -26.3750  -11.7870  -17.6910 C.3    28  VAL28       0.0252
      6  CG1      -26.2700  -12.3520  -16.2830 C.3    28  VAL28       0.0019
      7  CG2      -24.9790  -11.4060  -18.2090 C.3    28  VAL28       0.0019
      8  N        -24.8200  -16.9390  -15.9830 N.3    35  GLN35      -0.1231
      9  CA       -25.1750  -16.4670  -14.6560 C.3    35  GLN35       0.1698
     10  C        -24.1140  -16.9060  -13.6550 C.2    35  GLN35       0.2592
     11  O        -24.2700  -17.9010  -12.9500 O.2    35  GLN35      -0.2718
     12  CB       -26.5750  -16.9590  -14.2800 C.3    35  GLN35       0.0381
     13  CG       -27.6560  -16.3440  -15.1530 C.3    35  GLN35       0.0905
     14  CD       -28.8640  -17.2310  -15.3280 C.2    35  GLN35       0.2608
     15  OE1      -29.0710  -18.1630  -14.5620 O.2    35  GLN35      -0.2717
     16  NE2      -29.6810  -16.9350  -16.3350 N.am   35  GLN35      -0.0878
     17  N        -23.0140  -16.1590  -13.6320 N.am   36  THR36      -0.1953
     18  CA       -21.8850  -16.4760  -12.7760 C.3    36  THR36       0.1897
     19  C        -21.5890  -15.3070  -11.8390 C.2    36  THR36       0.2313
     20  O        -22.0860  -14.1890  -12.0580 O.2    36  THR36      -0.2863
     21  CB       -20.6330  -16.8130  -13.6100 C.3    36  THR36       0.1794
     22  OG1      -20.2130  -15.6580  -14.3430 O.3    36  THR36      -0.2208
     23  CG2      -20.9140  -17.9700  -14.5760 C.3    36  THR36       0.0378
     24  N        -20.1310  -12.4480  -13.6570 N.3    39  ASN39      -0.1225
     25  CA       -21.0030  -11.7460  -14.5790 C.3    39  ASN39       0.1785
     26  C        -22.0060  -10.8540  -13.8610 C.2    39  ASN39       0.2597
     27  O        -22.5980   -9.9800  -14.4790 O.2    39  ASN39      -0.2718
     28  CB       -21.6810  -12.7400  -15.5160 C.3    39  ASN39       0.1169
     29  CG       -20.7510  -13.1810  -16.6330 C.2    39  ASN39       0.2627
     30  OD1      -19.6060  -12.7230  -16.7130 O.2    39  ASN39      -0.2716
     31  ND2      -21.2140  -14.0850  -17.4720 N.am   39  ASN39      -0.0877
     32  N        -22.1540  -11.0400  -12.5540 N.am   40  SER40      -0.1952
     33  CA       -22.9320  -10.1100  -11.7480 C.3    40  SER40       0.1924
     34  C        -22.3140   -8.7150  -11.8370 C.2    40  SER40       0.2314
     35  O        -23.0200   -7.7130  -11.9640 O.2    40  SER40      -0.2863
     36  CB       -22.9940  -10.5680  -10.2940 C.3    40  SER40       0.2116
     37  OG       -21.7360  -10.3920   -9.6610 O.3    40  SER40      -0.2180
     38  N        -22.8820   -7.2530  -15.2800 N.3    43  VAL43      -0.1231
     39  CA       -24.1990   -6.6280  -15.3870 C.3    43  VAL43       0.1692
     40  C        -24.1760   -5.2330  -14.7550 C.2    43  VAL43       0.2592
     41  O        -24.7120   -4.2920  -15.3190 O.2    43  VAL43      -0.2718
     42  CB       -25.2930   -7.4910  -14.7460 C.3    43  VAL43       0.0266
     43  CG1      -26.5830   -6.6800  -14.5600 C.3    43  VAL43       0.0020
     44  CG2      -25.5610   -8.7060  -15.6150 C.3    43  VAL43       0.0020
     45  N        -23.5370   -5.1080  -13.5940 N.am   44  SER44      -0.1952
     46  CA       -23.3490   -3.8110  -12.9410 C.3    44  SER44       0.1924
     47  C        -22.6490   -2.7750  -13.8450 C.2    44  SER44       0.2314
     48  O        -23.0800   -1.6180  -13.9440 O.2    44  SER44      -0.2863
     49  CB       -22.5470   -3.9930  -11.6510 C.3    44  SER44       0.2116
     50  OG       -22.3660   -2.7600  -10.9770 O.3    44  SER44      -0.2180
     51  N        -25.1280   -1.7340  -16.4890 N.3    47  ALA47      -0.1245
     52  CA       -26.0270   -0.7450  -15.9190 C.3    47  ALA47       0.1562
     53  C        -25.3900    0.6370  -15.9380 C.2    47  ALA47       0.2260
     54  O        -26.0390    1.6030  -16.3450 O.2    47  ALA47      -0.2867
     55  CB       -26.4200   -1.1320  -14.4890 C.3    47  ALA47       0.0290
     56  N        -26.9800    3.7580  -17.9920 N.3    51  LEU51      -0.1245
     57  CA       -27.3690    4.9770  -17.2960 C.3    51  LEU51       0.1561
     58  C        -26.6560    6.1970  -17.8880 C.2    51  LEU51       0.2260
     59  O        -27.2250    7.2850  -17.9700 O.2    51  LEU51      -0.2867
     60  CB       -27.0770    4.8520  -15.8010 C.3    51  LEU51       0.0270
     61  CG       -28.0670    3.9800  -15.0340 C.3    51  LEU51       0.0019
     62  CD1      -27.6020    3.7270  -13.5840 C.3    51  LEU51       0.0001
     63  CD2      -29.4700    4.5990  -15.0510 C.3    51  LEU51       0.0001
     64  N        -20.2470   10.1200  -10.9580 N.3    86  MET86      -0.1245
     65  CA       -20.6490    8.8710  -10.3110 C.3    86  MET86       0.1570
     66  C        -20.5180    7.6600  -11.2370 C.2    86  MET86       0.2261
     67  O        -20.0230    6.6030  -10.8270 O.2    86  MET86      -0.2867
     68  CB       -22.0990    8.9440   -9.8000 C.3    86  MET86       0.0387
     69  CG       -22.5060    7.6990   -9.0020 C.3    86  MET86       0.0595
     70  SD       -24.1520    7.7690   -8.2370 S.3    86  MET86      -0.1393
     71  CE       -25.1530    7.3230   -9.6610 C.3    86  MET86       0.0692
     72  N        -23.3470   -9.3780   -4.8860 N.3   122  LEU122     -0.1245
     73  CA       -24.4130   -8.3780   -4.8920 C.3   122  LEU122      0.1561
     74  C        -24.1870   -7.3460   -3.8010 C.2   122  LEU122      0.2260
     75  O        -24.4030   -6.1570   -4.0060 O.2   122  LEU122     -0.2867
     76  CB       -25.7820   -9.0400   -4.7110 C.3   122  LEU122      0.0270
     77  CG       -26.2320   -9.9990   -5.8180 C.3   122  LEU122      0.0019
     78  CD1      -27.6100  -10.6020   -5.5190 C.3   122  LEU122      0.0001
     79  CD2      -26.2390   -9.2720   -7.1540 C.3   122  LEU122      0.0001
     80  N        -21.2820   -5.2650   -4.9750 N.3   125  ILE125     -0.1245
     81  CA       -21.7810   -4.3450   -6.0130 C.3   125  ILE125      0.1561
     82  C        -22.5720   -3.1690   -5.4100 C.2   125  ILE125      0.2260
     83  O        -22.3650   -2.0100   -5.7760 O.2   125  ILE125     -0.2867
     84  CB       -22.6590   -5.1010   -7.0280 C.3   125  ILE125      0.0252
     85  CG1      -21.7720   -5.9410   -7.9530 C.3   125  ILE125      0.0019
     86  CG2      -23.5080   -4.1400   -7.8460 C.3   125  ILE125      0.0019
     87  CD1      -22.5320   -7.0140   -8.7200 C.3   125  ILE125      0.0001
     88  N        -21.4880    0.9810   -5.6050 N.3   129  TRP129     -0.1241
     89  CA       -22.3530    2.0470   -6.0760 C.3   129  TRP129      0.1605
     90  C        -22.5290    3.1030   -5.0040 C.2   129  TRP129      0.2264
     91  O        -22.5350    4.2870   -5.2960 O.2   129  TRP129     -0.2867
     92  CB       -23.7170    1.4900   -6.5150 C.3   129  TRP129      0.0550
     93  CG       -23.6230    0.8860   -7.8750 C.ar  129  TRP129      0.0003
     94  CD1      -23.3390   -0.4170   -8.1810 C.ar  129  TRP129      0.0946
     95  CD2      -23.7510    1.5730   -9.1250 C.ar  129  TRP129      0.0152
     96  NE1      -23.3040   -0.5830   -9.5500 N.ar  129  TRP129     -0.2442
     97  CE2      -23.5540    0.6260  -10.1480 C.ar  129  TRP129      0.0810
     98  CE3      -24.0120    2.9020   -9.4780 C.ar  129  TRP129      0.0012
     99  CZ2      -23.6300    0.9560  -11.4900 C.ar  129  TRP129      0.0191
    100  CZ3      -24.0910    3.2240  -10.8140 C.ar  129  TRP129      0.0001
    101  CH2      -23.9080    2.2550  -11.8030 C.ar  129  TRP129      0.0015
@<TRIPOS>BOND
     1     1     2    1
     2     2     3    1
     3     2     5    1
     4     7     5    1
     5     3     4    2
     6    56    57    1
     7    59    58    2
     8    58    57    1
     9     5     6    1
    10    31    29   am
    11    57    60    1
    12    30    29    2
    13    29    28    1
    14    51    52    1
    15    54    53    2
    16    16    14   am
    17     8     9    1
    18    53    52    1
    19    52    55    1
    20    60    61    1
    21    44    42    1
    22    28    25    1
    23    39    38    1
    24    39    40    1
    25    39    42    1
    26    14    13    1
    27    14    15    2
    28    41    40    2
    29    13    12    1
    30    63    61    1
    31    61    62    1
    32    40    45   am
    33    42    43    1
    34     9    12    1
    35     9    10    1
    36    25    26    1
    37    25    24    1
    38    23    21    1
    39    27    26    2
    40    22    21    1
    41    48    47    2
    42    26    32   am
    43    47    46    1
    44    10    17   am
    45    10    11    2
    46    17    18    1
    47    21    18    1
    48    45    46    1
    49    46    49    1
    50    18    19    1
    51    32    33    1
    52    20    19    2
    53    35    34    2
    54    34    33    1
    55   101    99   ar
    56   101   100   ar
    57    33    36    1
    58    49    50    1
    59    99    97   ar
    60    66    67    2
    61    66    65    1
    62    64    65    1
    63   100    98   ar
    64    65    68    1
    65    36    37    1
    66    97    96   ar
    67    97    95   ar
    68    68    69    1
    69    71    70    1
    70    96    94   ar
    71    98    95   ar
    72    95    93   ar
    73    69    70    1
    74    87    85    1
    75    94    93   ar
    76    85    84    1
    77    93    92    1
    78    86    84    1
    79    79    77    1
    80    84    81    1
    81    92    89    1
    82    89    88    1
    83    89    90    1
    84    81    82    1
    85    81    80    1
    86    77    78    1
    87    77    76    1
    88    83    82    2
    89    91    90    2
    90    73    72    1
    91    73    76    1
    92    73    74    1
    93    75    74    2
