@<TRIPOS>MOLECULE
tmp/5wivA08.pdb
 105 97 0 0 0
SMALL
GASTEIGER

@<TRIPOS>ATOM
      1  N        -14.7430    1.5050   -9.9670 N.3    93  PHE93      -0.1241
      2  CA       -14.8730    0.7970   -8.7080 C.3    93  PHE93       0.1605
      3  C        -15.3770   -0.6430   -8.9560 C.2    93  PHE93       0.2264
      4  O        -14.9880   -1.5730   -8.2380 O.2    93  PHE93      -0.2867
      5  CB       -15.7970    1.5530   -7.7450 C.3    93  PHE93       0.0534
      6  CG       -15.1710    2.7590   -7.1120 C.ar   93  PHE93      -0.0203
      7  CD1      -13.8530    3.1300   -7.4110 C.ar   93  PHE93      -0.0042
      8  CD2      -15.8810    3.5120   -6.1970 C.ar   93  PHE93      -0.0042
      9  CE1      -13.2650    4.2400   -6.8250 C.ar   93  PHE93      -0.0003
     10  CE2      -15.3020    4.6200   -5.5890 C.ar   93  PHE93      -0.0003
     11  CZ       -13.9880    4.9870   -5.9060 C.ar   93  PHE93      -0.0000
     12  N        -12.5470   -2.6940  -10.0800 N.3    96  CYS96      -0.1221
     13  CA       -11.8230   -2.9720   -8.8440 C.3    96  CYS96       0.1808
     14  C        -12.4870   -4.0890   -8.0540 C.2    96  CYS96       0.2601
     15  O        -11.8310   -4.9810   -7.5320 O.2    96  CYS96      -0.2717
     16  CB       -11.7510   -1.7250   -7.9730 C.3    96  CYS96       0.0970
     17  SG       -10.6630   -0.4720   -8.5930 S.3    96  CYS96      -0.0800
     18  N        -13.8080   -4.0130   -7.9490 N.am   97  ALA97      -0.1979
     19  CA       -14.5610   -5.0150   -7.2030 C.3    97  ALA97       0.1597
     20  C        -14.3720   -6.3990   -7.8030 C.2    97  ALA97       0.2287
     21  O        -14.2760   -7.3840   -7.0770 O.2    97  ALA97      -0.2864
     22  CB       -16.0360   -4.6640   -7.1650 C.3    97  ALA97       0.0319
     23  N        -10.9630   -7.6920   -6.6420 N.3   100  VAL100     -0.1245
     24  CA       -11.0970   -8.0950   -5.2440 C.3   100  VAL100      0.1561
     25  C        -11.8790   -9.4040   -5.1240 C.2   100  VAL100      0.2260
     26  O        -11.4670  -10.3160   -4.4120 O.2   100  VAL100     -0.2867
     27  CB       -11.7990   -7.0060   -4.3980 C.3   100  VAL100      0.0252
     28  CG1      -12.1290   -7.5230   -3.0050 C.3   100  VAL100      0.0019
     29  CG2      -10.9200   -5.7710   -4.3100 C.3   100  VAL100      0.0019
     30  N        -21.2700   -6.5980   -2.5220 N.3   124  LEU124     -0.1245
     31  CA       -20.0920   -5.8450   -2.9200 C.3   124  LEU124      0.1561
     32  C        -20.4570   -4.8470   -4.0180 C.2   124  LEU124      0.2260
     33  O        -20.0140   -3.7070   -3.9880 O.2   124  LEU124     -0.2867
     34  CB       -18.9550   -6.7930   -3.3760 C.3   124  LEU124      0.0270
     35  CG       -17.6930   -6.0820   -3.9030 C.3   124  LEU124      0.0019
     36  CD1      -17.1560   -5.0780   -2.8850 C.3   124  LEU124      0.0001
     37  CD2      -16.5790   -7.0780   -4.3270 C.3   124  LEU124      0.0001
     38  N        -20.1450   -0.8470   -4.0090 N.3   128  THR128     -0.1218
     39  CA       -19.4220   -0.1440   -5.0600 C.3   128  THR128      0.1862
     40  C        -20.1590    1.1030   -5.5270 C.2   128  THR128      0.2287
     41  O        -19.5380    2.1530   -5.7990 O.2   128  THR128     -0.2866
     42  CB       -19.1730   -1.0870   -6.2660 C.3   128  THR128      0.1770
     43  OG1      -18.1470   -2.0320   -5.9300 O.3   128  THR128     -0.2211
     44  CG2      -18.7300   -0.3270   -7.4770 C.3   128  THR128      0.0375
     45  N        -20.3160    3.7490   -2.8190 N.3   131  LEU131     -0.1245
     46  CA       -19.0130    4.4050   -2.7380 C.3   131  LEU131      0.1561
     47  C        -18.8600    5.4610   -3.8270 C.2   131  LEU131      0.2260
     48  O        -18.3460    6.5600   -3.5920 O.2   131  LEU131     -0.2867
     49  CB       -17.8950    3.3700   -2.8450 C.3   131  LEU131      0.0270
     50  CG       -17.6600    2.5790   -1.5670 C.3   131  LEU131      0.0019
     51  CD1      -16.8140    1.3610   -1.8590 C.3   131  LEU131      0.0001
     52  CD2      -16.9980    3.4750   -0.5270 C.3   131  LEU131      0.0001
     53  N        -20.8300    8.4000   -3.0190 N.3   134  ALA134     -0.1231
     54  CA       -20.1550    9.2000   -1.9930 C.3   134  ALA134      0.1694
     55  C        -19.0740   10.1230   -2.6040 C.2   134  ALA134      0.2591
     56  O        -18.9260   11.2760   -2.2000 O.2   134  ALA134     -0.2718
     57  CB       -19.5510    8.3010   -0.9510 C.3   134  ALA134      0.0304
     58  N        -18.3200    9.6140   -3.5710 N.am  135  VAL135     -0.1980
     59  CA       -17.3230   10.4310   -4.2480 C.3   135  VAL135      0.1595
     60  C        -17.9920   11.5970   -4.9830 C.2   135  VAL135      0.2287
     61  O        -17.5180   12.7180   -4.9210 O.2   135  VAL135     -0.2864
     62  CB       -16.4760    9.5960   -5.2420 C.3   135  VAL135      0.0276
     63  CG1      -15.5180   10.5090   -6.0390 C.3   135  VAL135      0.0022
     64  CG2      -15.6780    8.5210   -4.4850 C.3   135  VAL135      0.0022
     65  N         -9.0150   15.5630   -6.1660 N.3   159  TYR159     -0.1241
     66  CA        -9.5670   14.5410   -5.2690 C.3   159  TYR159      0.1605
     67  C        -10.2000   13.3600   -6.0120 C.2   159  TYR159      0.2264
     68  O         -9.8700   12.1840   -5.7720 O.2   159  TYR159     -0.2867
     69  CB       -10.5930   15.1920   -4.3220 C.3   159  TYR159      0.0534
     70  CG       -11.5920   14.2330   -3.7210 C.ar  159  TYR159     -0.0201
     71  CD1      -11.1830   13.2010   -2.8700 C.ar  159  TYR159     -0.0009
     72  CD2      -12.9520   14.3630   -3.9920 C.ar  159  TYR159     -0.0009
     73  CE1      -12.1120   12.3140   -2.3210 C.ar  159  TYR159      0.0417
     74  CE2      -13.8830   13.4990   -3.4500 C.ar  159  TYR159      0.0417
     75  CZ       -13.4660   12.4810   -2.6110 C.ar  159  TYR159      0.1957
     76  OH       -14.4090   11.6270   -2.0810 O.3   159  TYR159     -0.2866
     77  N         -9.0530    9.4920   -6.3040 N.3   163  CYS163     -0.1235
     78  CA        -9.9160    8.4790   -5.7030 C.3   163  CYS163      0.1677
     79  C        -10.6080    7.5920   -6.7050 C.2   163  CYS163      0.2270
     80  O        -10.8240    6.4020   -6.4560 O.2   163  CYS163     -0.2867
     81  CB       -10.9820    9.1320   -4.8400 C.3   163  CYS163      0.0956
     82  SG       -10.3230    9.5420   -3.2650 S.3   163  CYS163     -0.0801
     83  N         -5.6710    6.0680   -8.0110 N.3   167  LEU167     -0.1231
     84  CA        -5.4550    5.1900   -6.8730 C.3   167  LEU167      0.1678
     85  C         -6.0270    3.7710   -7.1110 C.2   167  LEU167      0.2434
     86  O         -5.3150    2.7790   -6.8900 O.2   167  LEU167     -0.2733
     87  CB        -6.0400    5.8390   -5.6200 C.3   167  LEU167      0.0284
     88  CG        -5.7810    5.2620   -4.2390 C.3   167  LEU167      0.0019
     89  CD1       -4.3090    4.9310   -4.0540 C.3   167  LEU167      0.0001
     90  CD2       -6.2440    6.2670   -3.2010 C.3   167  LEU167      0.0001
     91  N         -7.2860    3.6530   -7.5970 N.am  168  PRO168     -0.2729
     92  CA        -7.8010    2.2970   -7.8820 C.3   168  PRO168      0.1401
     93  C         -6.9950    1.5030   -8.9160 C.2   168  PRO168      0.2269
     94  O         -6.9490    0.2630   -8.8690 O.2   168  PRO168     -0.2865
     95  CB        -9.2050    2.5690   -8.4400 C.3   168  PRO168      0.0296
     96  CG        -9.6000    3.8440   -7.8470 C.3   168  PRO168      0.0237
     97  CD        -8.3380    4.6700   -7.7920 C.3   168  PRO168      0.0939
     98  N         -3.8690   -0.6060   -7.7450 N.3   171  LEU171     -0.1245
     99  CA        -4.3170   -1.6300   -6.8240 C.3   171  LEU171      0.1561
    100  C         -5.0550   -2.7260   -7.5760 C.2   171  LEU171      0.2260
    101  O         -4.8610   -3.9170   -7.3430 O.2   171  LEU171     -0.2867
    102  CB        -5.2110   -1.0080   -5.7490 C.3   171  LEU171      0.0270
    103  CG        -4.5200    0.1360   -4.9980 C.3   171  LEU171      0.0019
    104  CD1       -5.4680    0.8400   -4.0220 C.3   171  LEU171      0.0001
    105  CD2       -3.2420   -0.3500   -4.2850 C.3   171  LEU171      0.0001
@<TRIPOS>BOND
     1    12    13    1
     2     1     2    1
     3     3     2    1
     4     3     4    2
     5    93    94    2
     6    93    92    1
     7    13    14    1
     8    13    16    1
     9     2     5    1
    10    17    16    1
    11    95    92    1
    12    95    96    1
    13    14    18   am
    14    14    15    2
    15    83    84    1
    16    18    19    1
    17    92    91    1
    18    96    97    1
    19    20    19    1
    20    20    21    2
    21    97    91    1
    22    98    99    1
    23     5     6    1
    24    91    85   am
    25   100   101    2
    26   100    99    1
    27    44    42    1
    28     7     6   ar
    29     7     9   ar
    30    19    22    1
    31     6     8   ar
    32    85    86    2
    33    85    84    1
    34    84    87    1
    35     9    11   ar
    36    99   102    1
    37    79    80    2
    38    79    78    1
    39    23    24    1
    40    77    78    1
    41    42    43    1
    42    42    39    1
    43     8    10   ar
    44    65    66    1
    45    63    62    1
    46    67    68    2
    47    67    66    1
    48    11    10   ar
    49    41    40    2
    50   102   103    1
    51    78    81    1
    52    87    88    1
    53    40    39    1
    54    66    69    1
    55    24    25    1
    56    24    27    1
    57    62    64    1
    58    62    59    1
    59    25    26    2
    60    39    38    1
    61   103   105    1
    62   103   104    1
    63    60    61    2
    64    60    59    1
    65    81    82    1
    66    27    29    1
    67    27    28    1
    68    37    35    1
    69    69    70    1
    70    59    58    1
    71    88    89    1
    72    88    90    1
    73    32    33    2
    74    32    31    1
    75    72    70   ar
    76    72    74   ar
    77    35    34    1
    78    35    36    1
    79    47    48    2
    80    47    46    1
    81    70    71   ar
    82    58    55   am
    83    74    75   ar
    84    34    31    1
    85    53    54    1
    86    31    30    1
    87    71    73   ar
    88    49    46    1
    89    49    50    1
    90    45    46    1
    91    75    73   ar
    92    75    76    1
    93    55    56    2
    94    55    54    1
    95    54    57    1
    96    51    50    1
    97    50    52    1
