@<TRIPOS>MOLECULE
tmp/5wivA14.pdb
 69 65 0 0 0
SMALL
GASTEIGER

@<TRIPOS>ATOM
      1  N         -6.1750    9.2080  -20.8240 N.3   324  PRO324     -0.2116
      2  CA        -5.9710   10.5690  -21.3380 C.3   324  PRO324      0.1372
      3  C         -6.9160   11.5770  -20.6810 C.2   324  PRO324      0.2244
      4  O         -6.5040   12.6740  -20.3460 O.2   324  PRO324     -0.2868
      5  CB        -6.2680   10.4370  -22.8370 C.3   324  PRO324      0.0268
      6  CG        -6.0230    8.9590  -23.1490 C.3   324  PRO324      0.0207
      7  CD        -6.4480    8.2340  -21.9060 C.3   324  PRO324      0.0892
      8  N         -5.5040   12.3340  -17.1740 N.3   327  VAL327     -0.1231
      9  CA        -4.2880   13.1180  -17.2150 C.3   327  VAL327      0.1692
     10  C         -4.6230   14.5820  -17.5460 C.2   327  VAL327      0.2591
     11  O         -4.1070   15.5170  -16.9080 O.2   327  VAL327     -0.2718
     12  CB        -3.2890   12.5350  -18.2160 C.3   327  VAL327      0.0266
     13  CG1       -2.1600   13.5180  -18.4720 C.3   327  VAL327      0.0020
     14  CG2       -2.7410   11.2010  -17.6820 C.3   327  VAL327      0.0020
     15  N         -5.5140   14.7930  -18.5020 N.am  328  VAL328     -0.1980
     16  CA        -5.8540   16.1550  -18.9160 C.3   328  VAL328      0.1595
     17  C         -6.5020   16.9430  -17.7760 C.2   328  VAL328      0.2287
     18  O         -6.1630   18.0850  -17.4890 O.2   328  VAL328     -0.2864
     19  CB        -6.8080   16.1440  -20.1260 C.3   328  VAL328      0.0276
     20  CG1       -7.5090   17.4760  -20.2480 C.3   328  VAL328      0.0022
     21  CG2       -6.0510   15.7830  -21.4090 C.3   328  VAL328      0.0022
     22  N         -4.2200   17.6030  -14.7140 N.3   331  THR331     -0.1218
     23  CA        -3.2240   18.6150  -15.0720 C.3   331  THR331      0.1862
     24  C         -3.8120   20.0250  -14.9740 C.2   331  THR331      0.2287
     25  O         -3.2610   20.8850  -14.2860 O.2   331  THR331     -0.2866
     26  CB        -2.6660   18.3980  -16.4950 C.3   331  THR331      0.1770
     27  OG1       -1.9220   17.1750  -16.5350 O.3   331  THR331     -0.2211
     28  CG2       -1.7230   19.5240  -16.8700 C.3   331  THR331      0.0375
     29  N         -1.0270   25.3780  -17.2440 N.3   338  CYS338     -0.1221
     30  CA        -0.7630   24.2790  -18.1670 C.3   338  CYS338      0.1808
     31  C         -1.9610   24.1620  -19.1030 C.2   338  CYS338      0.2602
     32  O         -2.8370   23.3330  -18.9130 O.2   338  CYS338     -0.2717
     33  CB        -0.4990   22.9530  -17.4190 C.3   338  CYS338      0.0970
     34  SG         0.8800   23.0110  -16.2350 S.3   338  CYS338     -0.0800
     35  N         -1.9890   25.0150  -20.1160 N.am  339  SER339     -0.1938
     36  CA        -3.1600   25.1550  -20.9740 C.3   339  SER339      0.2055
     37  C         -3.3540   23.9250  -21.8560 C.2   339  SER339      0.2643
     38  O         -2.4600   23.5160  -22.5750 O.2   339  SER339     -0.2714
     39  CB        -3.0130   26.4350  -21.8280 C.3   339  SER339      0.2130
     40  OG        -4.1330   26.6380  -22.6780 O.3   339  SER339     -0.2179
     41  N         -4.5180   23.3030  -21.7670 N.am  340  VAL340     -0.1963
     42  CA        -4.8660   22.2140  -22.6580 C.3   340  VAL340      0.1712
     43  C         -5.7820   22.7360  -23.7590 C.2   340  VAL340      0.2458
     44  O         -6.7400   23.4200  -23.4820 O.2   340  VAL340     -0.2730
     45  CB        -5.5590   21.0680  -21.8970 C.3   340  VAL340      0.0289
     46  CG1       -5.8970   19.9070  -22.8490 C.3   340  VAL340      0.0023
     47  CG2       -4.6620   20.5810  -20.7600 C.3   340  VAL340      0.0023
     48  N         -5.4850   22.4100  -25.0180 N.am  341  PRO341     -0.2727
     49  CA        -6.3700   22.8450  -26.1030 C.3   341  PRO341      0.1402
     50  C         -7.8010   22.3330  -25.8940 C.2   341  PRO341      0.2269
     51  O         -7.9890   21.1440  -25.6670 O.2   341  PRO341     -0.2865
     52  CB        -5.7300   22.2170  -27.3460 C.3   341  PRO341      0.0296
     53  CG        -4.3120   21.9510  -26.9460 C.3   341  PRO341      0.0237
     54  CD        -4.3780   21.5760  -25.5080 C.3   341  PRO341      0.0939
     55  N         -8.8680   19.1970  -27.4410 N.3   344  LEU344     -0.1245
     56  CA        -8.3130   17.9740  -26.8700 C.3   344  LEU344      0.1561
     57  C         -9.1100   17.5730  -25.6330 C.2   344  LEU344      0.2260
     58  O         -9.3340   16.3840  -25.4000 O.2   344  LEU344     -0.2867
     59  CB        -6.8130   18.1370  -26.5250 C.3   344  LEU344      0.0270
     60  CG        -6.1450   16.9120  -25.8660 C.3   344  LEU344      0.0019
     61  CD1       -6.2540   15.6600  -26.7340 C.3   344  LEU344      0.0001
     62  CD2       -4.6780   17.1620  -25.5220 C.3   344  LEU344      0.0001
     63  N        -10.6840   13.8370  -25.4150 N.3   348  VAL348     -0.1245
     64  CA       -10.4830   12.8250  -24.3870 C.3   348  VAL348      0.1561
     65  C        -11.7960   12.5200  -23.6610 C.2   348  VAL348      0.2260
     66  O        -11.9500   11.4460  -23.0780 O.2   348  VAL348     -0.2867
     67  CB        -9.3970   13.2320  -23.3600 C.3   348  VAL348      0.0252
     68  CG1       -8.0530   13.3830  -24.0620 C.3   348  VAL348      0.0019
     69  CG2       -9.7760   14.5250  -22.6040 C.3   348  VAL348      0.0019
@<TRIPOS>BOND
     1    55    56    1
     2    52    53    1
     3    52    49    1
     4    53    54    1
     5    56    59    1
     6    56    57    1
     7    61    60    1
     8    59    60    1
     9    49    50    1
    10    49    48    1
    11    50    51    2
    12    60    62    1
    13    57    58    2
    14    54    48    1
    15    63    64    1
    16    48    43   am
    17    64    65    1
    18    64    67    1
    19    68    67    1
    20    43    44    2
    21    43    42    1
    22    65    66    2
    23    67    69    1
    24     6     5    1
    25     6     7    1
    26    46    45    1
    27     5     2    1
    28    40    39    1
    29    42    45    1
    30    42    41    1
    31    38    37    2
    32     7     1    1
    33    45    47    1
    34    37    41   am
    35    37    36    1
    36    39    36    1
    37    21    19    1
    38     2     1    1
    39     2     3    1
    40    36    35    1
    41     3     4    2
    42    20    19    1
    43    19    16    1
    44    35    31   am
    45    31    32    2
    46    31    30    1
    47    16    15    1
    48    16    17    1
    49    15    10   am
    50    13    12    1
    51    12    14    1
    52    12     9    1
    53    30    33    1
    54    30    29    1
    55    17    18    2
    56    10     9    1
    57    10    11    2
    58    33    34    1
    59     9     8    1
    60    28    26    1
    61    27    26    1
    62    26    23    1
    63    23    24    1
    64    23    22    1
    65    24    25    2
