@<TRIPOS>MOLECULE
tmp/5wivA05.pdb
 205 198 0 0 0
SMALL
GASTEIGER

@<TRIPOS>ATOM
      1  N        -26.7480   11.0660  -19.3350 N.3    56  VAL56      -0.1245
      2  CA       -25.6330   11.9860  -19.4700 C.3    56  VAL56       0.1561
      3  C        -25.3510   12.3330  -20.9220 C.2    56  VAL56       0.2260
      4  O        -25.2440   13.5090  -21.2690 O.2    56  VAL56      -0.2867
      5  CB       -24.3530   11.3930  -18.8180 C.3    56  VAL56       0.0252
      6  CG1      -23.1120   12.2190  -19.1770 C.3    56  VAL56       0.0019
      7  CG2      -24.5300   11.3020  -17.2990 C.3    56  VAL56       0.0019
      8  N        -27.5040   15.1380  -23.1680 N.3    59  LEU59      -0.1231
      9  CA       -27.2340   16.5440  -22.9010 C.3    59  LEU59       0.1693
     10  C        -25.7810   16.8400  -23.1530 C.2    59  LEU59       0.2592
     11  O        -25.4110   17.9840  -23.3840 O.2    59  LEU59      -0.2718
     12  CB       -27.6290   16.9100  -21.4760 C.3    59  LEU59       0.0284
     13  CG       -29.1210   17.2630  -21.4290 C.3    59  LEU59       0.0019
     14  CD1      -29.6330   17.4870  -20.0120 C.3    59  LEU59       0.0001
     15  CD2      -29.4260   18.4710  -22.3020 C.3    59  LEU59       0.0001
     16  N        -24.9400   15.8120  -23.1170 N.am   60  PHE60      -0.1976
     17  CA       -23.5500   16.0120  -23.4960 C.3    60  PHE60       0.1639
     18  C        -23.4560   16.3470  -24.9780 C.2    60  PHE60       0.2290
     19  O        -22.8130   17.3210  -25.3610 O.2    60  PHE60      -0.2864
     20  CB       -22.7060   14.7750  -23.1880 C.3    60  PHE60       0.0560
     21  CG       -21.3930   14.7740  -23.8860 C.ar   60  PHE60      -0.0200
     22  CD1      -20.4300   15.7310  -23.5800 C.ar   60  PHE60      -0.0042
     23  CD2      -21.1200   13.8400  -24.8670 C.ar   60  PHE60      -0.0042
     24  CE1      -19.1960   15.7370  -24.2350 C.ar   60  PHE60      -0.0003
     25  CE2      -19.8860   13.8370  -25.5230 C.ar   60  PHE60      -0.0003
     26  CZ       -18.9280   14.7960  -25.2070 C.ar   60  PHE60      -0.0000
     27  N        -24.8290   19.6200  -25.7390 N.3    63  SER63      -0.1217
     28  CA       -23.8270   20.5980  -25.3600 C.3    63  SER63       0.1889
     29  C        -22.7960   20.7470  -26.4750 C.2    63  SER63       0.2288
     30  O        -22.3860   21.8620  -26.8060 O.2    63  SER63      -0.2866
     31  CB       -23.1510   20.1960  -24.0490 C.3    63  SER63       0.2089
     32  OG       -22.4830   21.3040  -23.4730 O.3    63  SER63      -0.2183
     33  N        -23.4870   26.0140  -22.4860 N.3    70  TRP70      -0.1241
     34  CA       -24.5140   25.3730  -21.6760 C.3    70  TRP70       0.1605
     35  C        -25.6470   26.3700  -21.4640 C.2    70  TRP70       0.2264
     36  O        -25.4990   27.3510  -20.7220 O.2    70  TRP70      -0.2867
     37  CB       -23.9440   24.8950  -20.3400 C.3    70  TRP70       0.0550
     38  CG       -24.9880   24.3500  -19.4310 C.ar   70  TRP70       0.0003
     39  CD1      -25.6260   25.0140  -18.4200 C.ar   70  TRP70       0.0946
     40  CD2      -25.5380   23.0280  -19.4550 C.ar   70  TRP70       0.0152
     41  NE1      -26.5250   24.1810  -17.8060 N.ar   70  TRP70      -0.2442
     42  CE2      -26.4950   22.9570  -18.4230 C.ar   70  TRP70       0.0810
     43  CE3      -25.3110   21.8950  -20.2440 C.ar   70  TRP70       0.0012
     44  CZ2      -27.2280   21.7970  -18.1580 C.ar   70  TRP70       0.0191
     45  CZ3      -26.0370   20.7380  -19.9750 C.ar   70  TRP70       0.0001
     46  CH2      -26.9870   20.7040  -18.9430 C.ar   70  TRP70       0.0015
     47  N        -26.0850   16.9630  -13.6830 N.3    80  LEU80      -0.1231
     48  CA       -25.4670   16.1990  -14.7570 C.3    80  LEU80       0.1693
     49  C        -24.0380   15.8070  -14.4360 C.2    80  LEU80       0.2591
     50  O        -23.6440   14.6780  -14.6640 O.2    80  LEU80      -0.2718
     51  CB       -25.4770   16.9950  -16.0500 C.3    80  LEU80       0.0284
     52  CG       -26.6970   16.7240  -16.9140 C.3    80  LEU80       0.0019
     53  CD1      -26.5870   17.5530  -18.1710 C.3    80  LEU80       0.0001
     54  CD2      -26.7620   15.2410  -17.2450 C.3    80  LEU80       0.0001
     55  N        -23.2670   16.7590  -13.9190 N.am   81  MET81      -0.1979
     56  CA       -21.8860   16.5090  -13.5760 C.3    81  MET81       0.1605
     57  C        -21.7790   15.4850  -12.4470 C.2    81  MET81       0.2287
     58  O        -20.9100   14.6180  -12.4900 O.2    81  MET81      -0.2864
     59  CB       -21.1850   17.8110  -13.1970 C.3    81  MET81       0.0413
     60  CG       -21.1310   18.7650  -14.3630 C.3    81  MET81       0.0598
     61  SD       -20.0500   20.1490  -14.0600 S.3    81  MET81      -0.1393
     62  CE       -20.7450   20.9180  -12.5850 C.3    81  MET81       0.0692
     63  N        -22.3300   12.3660  -14.0240 N.3    84  ASP84      -0.1225
     64  CA       -21.1250   12.1140  -14.8190 C.3    84  ASP84       0.1805
     65  C        -20.0460   11.4750  -13.9490 C.2    84  ASP84       0.2597
     66  O        -19.5590   10.3750  -14.2410 O.2    84  ASP84      -0.2718
     67  CB       -20.6090   13.4190  -15.4310 C.3    84  ASP84       0.1424
     68  CG       -19.8520   13.2140  -16.7350 C.2    84  ASP84       0.3668
     69  OD1      -20.0540   12.1920  -17.4260 O.co2  84  ASP84      -0.2456
     70  OD2      -19.0570   14.1100  -17.0850 O.co2  84  ASP84      -0.2456
     71  N        -19.6940   12.1560  -12.8640 N.am   85  VAL85      -0.1980
     72  CA       -18.6410   11.6640  -11.9750 C.3    85  VAL85       0.1595
     73  C        -18.9970   10.2980  -11.3730 C.2    85  VAL85       0.2287
     74  O        -18.1510    9.3940  -11.3110 O.2    85  VAL85      -0.2864
     75  CB       -18.3510   12.7010  -10.8420 C.3    85  VAL85       0.0276
     76  CG1      -17.4380   12.1180   -9.7940 C.3    85  VAL85       0.0022
     77  CG2      -17.7630   13.9960  -11.4240 C.3    85  VAL85       0.0022
     78  N        -18.7480    7.3260  -13.9550 N.3    88  CYS88      -0.1221
     79  CA       -17.3600    7.0750  -14.2670 C.3    88  CYS88       0.1808
     80  C        -16.7180    6.3360  -13.1120 C.2    88  CYS88       0.2601
     81  O        -16.0250    5.3400  -13.3010 O.2    88  CYS88      -0.2717
     82  CB       -16.6130    8.3730  -14.5300 C.3    88  CYS88       0.0970
     83  SG       -14.9110    8.0510  -15.0850 S.3    88  CYS88      -0.0800
     84  N        -16.9360    6.8500  -11.9110 N.am   89  THR89      -0.1953
     85  CA       -16.3680    6.2640  -10.7180 C.3    89  THR89       0.1897
     86  C        -16.8980    4.8450  -10.5140 C.2    89  THR89       0.2313
     87  O        -16.1290    3.9200  -10.1760 O.2    89  THR89      -0.2863
     88  CB       -16.6730    7.1350   -9.4950 C.3    89  THR89       0.1794
     89  OG1      -16.1350    8.4560   -9.7060 O.3    89  THR89      -0.2208
     90  CG2      -16.0640    6.5290   -8.2350 C.3    89  THR89       0.0378
     91  N        -20.7630   23.9830  -18.7940 N.3   149  CYS149     -0.1221
     92  CA       -20.9240   22.9600  -17.7810 C.3   149  CYS149      0.1808
     93  C        -19.6160   22.2120  -17.5460 C.2   149  CYS149      0.2601
     94  O        -19.3080   21.2490  -18.2470 O.2   149  CYS149     -0.2717
     95  CB       -22.0300   21.9790  -18.1720 C.3   149  CYS149      0.0970
     96  SG       -22.5530   20.9570  -16.7830 S.3   149  CYS149     -0.0800
     97  N        -18.8480   22.6670  -16.5580 N.am  150  ARG150     -0.1965
     98  CA       -17.5510   22.0770  -16.2360 C.3   150  ARG150      0.1729
     99  C        -17.3500   22.0200  -14.7330 C.2   150  ARG150      0.2616
    100  O        -17.8960   22.8340  -13.9970 O.2   150  ARG150     -0.2715
    101  CB       -16.4120   22.8800  -16.8600 C.3   150  ARG150      0.0348
    102  CG       -16.5470   23.1440  -18.3370 C.3   150  ARG150      0.0492
    103  CD       -15.1890   23.1620  -19.0150 C.3   150  ARG150      0.2205
    104  NE       -15.2070   23.9440  -20.2460 N.pl3 150  ARG150     -0.0865
    105  CZ       -14.9920   25.2560  -20.3220 C.cat 150  ARG150      0.5346
    106  NH1      -14.7040   25.9710  -19.2390 N.pl3 150  ARG150      0.1354
    107  NH2      -15.0400   25.8520  -21.5020 N.pl3 150  ARG150      0.1354
    108  N        -16.5620   21.0610  -14.2770 N.am  151  LEU151     -0.1977
    109  CA       -16.1330   21.0720  -12.8900 C.3   151  LEU151      0.1596
    110  C        -14.9920   22.0620  -12.7420 C.2   151  LEU151      0.2287
    111  O        -13.8830   21.8030  -13.2170 O.2   151  LEU151     -0.2864
    112  CB       -15.6820   19.6930  -12.4380 C.3   151  LEU151      0.0297
    113  CG       -16.7350   18.6860  -12.0230 C.3   151  LEU151      0.0022
    114  CD1      -16.0710   17.3890  -11.5650 C.3   151  LEU151      0.0001
    115  CD2      -17.6090   19.2860  -10.9210 C.3   151  LEU151      0.0001
    116  N        -11.5830   18.2320   -8.3560 N.3   157  VAL157     -0.1245
    117  CA       -11.1150   17.4740   -9.5090 C.3   157  VAL157      0.1561
    118  C         -9.8680   16.6410   -9.1760 C.2   157  VAL157      0.2260
    119  O         -9.7710   15.4790   -9.5690 O.2   157  VAL157     -0.2867
    120  CB       -10.7970   18.3960  -10.6990 C.3   157  VAL157      0.0252
    121  CG1      -10.2550   17.5850  -11.8640 C.3   157  VAL157      0.0019
    122  CG2      -12.0330   19.1310  -11.1150 C.3   157  VAL157      0.0019
    123  N        -11.0920   13.6600   -6.9360 N.3   160  SER160     -0.1202
    124  CA       -11.7690   12.5910   -7.6370 C.3   160  SER160      0.2020
    125  C        -10.8540   11.9320   -8.6630 C.2   160  SER160      0.2619
    126  O        -10.9870   10.7360   -8.9000 O.2   160  SER160     -0.2717
    127  CB       -13.0460   13.0920   -8.3120 C.3   160  SER160      0.2103
    128  OG       -13.6100   12.0600   -9.1160 O.3   160  SER160     -0.2182
    129  N         -9.9250   12.6780   -9.2650 N.am  161  SER161     -0.1951
    130  CA        -8.9890   12.0360  -10.1980 C.3   161  SER161      0.1924
    131  C         -8.1820   10.9520   -9.4720 C.2   161  SER161      0.2314
    132  O         -7.8780    9.9090  -10.0390 O.2   161  SER161     -0.2863
    133  CB        -8.0240   13.0390  -10.8350 C.3   161  SER161      0.2116
    134  OG        -8.6960   13.8490  -11.7970 O.3   161  SER161     -0.2180
    135  N        -11.0070    8.1820   -7.8230 N.3   164  SER164     -0.1217
    136  CA       -11.7880    7.4350   -8.7820 C.3   164  SER164      0.1889
    137  C        -10.8660    6.7470   -9.7500 C.2   164  SER164      0.2288
    138  O        -11.2530    5.7710  -10.3340 O.2   164  SER164     -0.2866
    139  CB       -12.7720    8.3280   -9.5400 C.3   164  SER164      0.2089
    140  OG       -13.5570    9.1010   -8.6430 O.3   164  SER164     -0.2183
    141  N         -9.6720    6.0680  -20.6710 N.3   322  TRP322     -0.1241
    142  CA        -9.8390    7.0580  -19.6300 C.3   322  TRP322      0.1605
    143  C         -8.5370    7.7030  -19.1250 C.2   322  TRP322      0.2264
    144  O         -8.5770    8.7870  -18.5500 O.2   322  TRP322     -0.2867
    145  CB       -10.6010    6.4480  -18.4660 C.3   322  TRP322      0.0550
    146  CG       -12.0900    6.3770  -18.7290 C.ar  322  TRP322      0.0003
    147  CD1      -12.8130    5.2610  -19.0490 C.ar  322  TRP322      0.0946
    148  CD2      -13.0350    7.4680  -18.7080 C.ar  322  TRP322      0.0152
    149  NE1      -14.1530    5.5890  -19.2190 N.ar  322  TRP322     -0.2442
    150  CE2      -14.3090    6.9320  -19.0170 C.ar  322  TRP322      0.0810
    151  CE3      -12.9270    8.8380  -18.4590 C.ar  322  TRP322      0.0012
    152  CZ2      -15.4610    7.7170  -19.0600 C.ar  322  TRP322      0.0191
    153  CZ3      -14.0630    9.6200  -18.5260 C.ar  322  TRP322      0.0001
    154  CH2      -15.3150    9.0610  -18.8290 C.ar  322  TRP322      0.0015
    155  N         -8.1690   11.1940  -20.4920 N.3   325  PHE325     -0.1227
    156  CA        -9.1140   12.0430  -19.8040 C.3   325  PHE325      0.1736
    157  C         -8.5780   12.4330  -18.4290 C.2   325  PHE325      0.2595
    158  O         -8.5620   13.6150  -18.0960 O.2   325  PHE325     -0.2718
    159  CB       -10.4710   11.3370  -19.6820 C.3   325  PHE325      0.0547
    160  CG       -11.5220   12.1590  -19.0200 C.ar  325  PHE325     -0.0202
    161  CD1      -11.6520   12.1570  -17.6400 C.ar  325  PHE325     -0.0042
    162  CD2      -12.4080   12.9010  -19.7730 C.ar  325  PHE325     -0.0042
    163  CE1      -12.6280   12.9100  -17.0240 C.ar  325  PHE325     -0.0003
    164  CE2      -13.3910   13.6360  -19.1670 C.ar  325  PHE325     -0.0003
    165  CZ       -13.5030   13.6490  -17.7860 C.ar  325  PHE325     -0.0000
    166  N         -8.1220   11.4790  -17.6210 N.am  326  PHE326     -0.1976
    167  CA        -7.7340   11.8880  -16.2710 C.3   326  PHE326      0.1639
    168  C         -6.3870   12.6270  -16.2380 C.2   326  PHE326      0.2290
    169  O         -6.1700   13.5120  -15.3980 O.2   326  PHE326     -0.2864
    170  CB        -7.7590   10.6910  -15.3130 C.3   326  PHE326      0.0560
    171  CG        -9.1500   10.3210  -14.9030 C.ar  326  PHE326     -0.0200
    172  CD1       -9.8570   11.1230  -14.0140 C.ar  326  PHE326     -0.0042
    173  CD2       -9.7790    9.2100  -15.4580 C.ar  326  PHE326     -0.0042
    174  CE1      -11.1550   10.8210  -13.6550 C.ar  326  PHE326     -0.0003
    175  CE2      -11.1030    8.8890  -15.0990 C.ar  326  PHE326     -0.0003
    176  CZ       -11.7850    9.6870  -14.1910 C.ar  326  PHE326     -0.0000
    177  N         -7.4210   16.2980  -17.0970 N.3   329  HIS329     -0.1241
    178  CA        -8.2100   16.9590  -16.0850 C.3   329  HIS329      0.1621
    179  C         -7.4340   17.2020  -14.8070 C.2   329  HIS329      0.2264
    180  O         -7.5690   18.2620  -14.2140 O.2   329  HIS329     -0.2867
    181  CB        -9.4600   16.1170  -15.8950 C.3   329  HIS329      0.0745
    182  CG       -10.5510   16.5260  -16.8200 C.ar  329  HIS329      0.0817
    183  ND1      -10.9360   15.7570  -17.8980 N.ar  329  HIS329     -0.2268
    184  CD2      -11.4430   17.5380  -16.7550 C.ar  329  HIS329      0.1154
    185  CE1      -11.9260   16.3560  -18.5320 C.ar  329  HIS329      0.1986
    186  NE2      -12.2810   17.4180  -17.8370 N.ar  329  HIS329     -0.2212
    187  N        -12.7570   13.4340  -23.7220 N.3   349  THR349     -0.1218
    188  CA       -14.0770   13.1630  -23.1540 C.3   349  THR349      0.1862
    189  C        -14.8350   12.1340  -23.9890 C.2   349  THR349      0.2287
    190  O        -15.3090   11.1140  -23.4690 O.2   349  THR349     -0.2866
    191  CB       -14.9070   14.4400  -23.0490 C.3   349  THR349      0.1770
    192  OG1      -14.2320   15.3510  -22.1880 O.3   349  THR349     -0.2211
    193  CG2      -16.2730   14.1380  -22.4750 C.3   349  THR349      0.0375
    194  N        -16.1630    8.3500  -23.1110 N.3   353  TYR353     -0.1241
    195  CA       -17.5380    7.8840  -23.2730 C.3   353  TYR353      0.1605
    196  C        -17.6470    6.7100  -24.2340 C.2   353  TYR353      0.2264
    197  O        -18.5230    5.8640  -24.0530 O.2   353  TYR353     -0.2867
    198  CB       -18.4430    9.0210  -23.7580 C.3   353  TYR353      0.0534
    199  CG       -18.7140   10.0870  -22.7190 C.ar  353  TYR353     -0.0201
    200  CD1      -18.5580    9.8230  -21.3590 C.ar  353  TYR353     -0.0009
    201  CD2      -19.1240   11.3610  -23.1020 C.ar  353  TYR353     -0.0009
    202  CE1      -18.8150   10.7990  -20.4110 C.ar  353  TYR353      0.0417
    203  CE2      -19.3860   12.3450  -22.1660 C.ar  353  TYR353      0.0417
    204  CZ       -19.2290   12.0610  -20.8270 C.ar  353  TYR353      0.1957
    205  OH       -19.4960   13.0530  -19.8980 O.3   353  TYR353     -0.2866
@<TRIPOS>BOND
     1    30    29    2
     2    29    28    1
     3    27    28    1
     4    25    26   ar
     5    25    23   ar
     6    19    18    2
     7    28    31    1
     8    26    24   ar
     9    18    17    1
    10    23    21   ar
    11    24    22   ar
    12   196   197    2
    13   196   195    1
    14    31    32    1
    15   189   190    2
    16   189   188    1
    17    21    22   ar
    18    21    20    1
    19   198   195    1
    20   198   199    1
    21   187   188    1
    22    17    20    1
    23    17    16    1
    24    11    10    2
    25   195   194    1
    26     8     9    1
    27   188   191    1
    28    10    16   am
    29    10     9    1
    30   201   199   ar
    31   201   203   ar
    32   191   193    1
    33   191   192    1
    34     9    12    1
    35   199   200   ar
    36    33    34    1
    37    15    13    1
    38   203   204   ar
    39    34    35    1
    40    34    37    1
    41   107   105    1
    42    12    13    1
    43    35    36    2
    44    13    14    1
    45   200   202   ar
    46     4     3    2
    47     3     2    1
    48   204   202   ar
    49   204   205    1
    50   141   142    1
    51   155   156    1
    52    37    38    1
    53   105   104    2
    54   105   106    1
    55   104   103    1
    56    43    45   ar
    57    43    40   ar
    58    45    46   ar
    59   156   159    1
    60   156   157    1
    61   162   164   ar
    62   162   160   ar
    63   159   160    1
    64   142   143    1
    65   142   145    1
    66     2     1    1
    67     2     5    1
    68    40    38   ar
    69    40    42   ar
    70    38    39   ar
    71   149   147   ar
    72   149   150   ar
    73     6     5    1
    74   164   165   ar
    75   143   144    2
    76   152   150   ar
    77   152   154   ar
    78   147   146   ar
    79   160   161   ar
    80   150   148   ar
    81   103   102    1
    82    46    44   ar
    83   154   153   ar
    84     5     7    1
    85    91    92    1
    86   146   148   ar
    87   146   145    1
    88   148   151   ar
    89   185   183   ar
    90   185   186   ar
    91   153   151   ar
    92   157   158    2
    93   157   166   am
    94    42    44   ar
    95    42    41   ar
    96    39    41   ar
    97   102   101    1
    98    94    93    2
    99    95    92    1
   100    95    96    1
   101    53    52    1
   102   183   182   ar
   103   186   184   ar
   104   165   163   ar
   105    92    93    1
   106   161   163   ar
   107   166   167    1
   108    93    97   am
   109    69    68   ar
   110    54    52    1
   111   177   178    1
   112    70    68   ar
   113    52    51    1
   114   101    98    1
   115   182   184   ar
   116   182   181    1
   117    68    67    1
   118    97    98    1
   119   167   168    1
   120   167   170    1
   121   168   169    2
   122    98    99    1
   123   178   181    1
   124   178   179    1
   125    51    48    1
   126   173   175   ar
   127   173   171   ar
   128    67    64    1
   129   170   171    1
   130   175   176   ar
   131    83    82    1
   132   171   172   ar
   133    64    63    1
   134    64    65    1
   135   179   180    2
   136    48    49    1
   137    48    47    1
   138    99   108   am
   139    99   100    2
   140    50    49    2
   141    82    79    1
   142    49    55   am
   143    60    61    1
   144    60    59    1
   145   108   109    1
   146    79    78    1
   147    79    80    1
   148    66    65    2
   149   176   174   ar
   150    61    62    1
   151   172   174   ar
   152    65    71   am
   153    55    56    1
   154    56    59    1
   155    56    57    1
   156    81    80    2
   157   111   110    2
   158    80    84   am
   159   109   110    1
   160   109   112    1
   161    71    72    1
   162    58    57    2
   163   112   113    1
   164   113   114    1
   165   113   115    1
   166    72    73    1
   167    72    75    1
   168    84    85    1
   169   121   120    1
   170   134   133    1
   171    77    75    1
   172    73    74    2
   173   122   120    1
   174    75    76    1
   175   133   130    1
   176    85    86    1
   177    85    88    1
   178   120   117    1
   179    86    87    2
   180   138   137    2
   181   130   131    1
   182   130   129    1
   183   132   131    2
   184   137   136    1
   185    89    88    1
   186   119   118    2
   187   139   136    1
   188   139   140    1
   189   117   118    1
   190   117   116    1
   191    88    90    1
   192   129   125   am
   193   128   127    1
   194   126   125    2
   195   136   135    1
   196   125   124    1
   197   127   124    1
   198   124   123    1
