@<TRIPOS>MOLECULE
tmp/5wivA10.pdb
 110 106 0 0 0
SMALL
GASTEIGER

@<TRIPOS>ATOM
      1  N         -4.5840   -3.3820  -10.6900 N.3   173  LEU173     -0.1245
      2  CA        -3.5740   -4.0870  -11.4690 C.3   173  LEU173      0.1561
      3  C         -2.7760   -5.0780  -10.6070 C.2   173  LEU173      0.2260
      4  O         -2.4640   -6.1670  -11.0480 O.2   173  LEU173     -0.2867
      5  CB        -2.6290   -3.0970  -12.1560 C.3   173  LEU173      0.0270
      6  CG        -3.2810   -2.1910  -13.2100 C.3   173  LEU173      0.0019
      7  CD1       -2.2440   -1.2230  -13.7490 C.3   173  LEU173      0.0001
      8  CD2       -3.9410   -3.0040  -14.3340 C.3   173  LEU173      0.0001
      9  N         -5.2830   -8.1560   -9.9830 N.3   176  TYR176     -0.1227
     10  CA        -5.4390   -9.0500  -11.1190 C.3   176  TYR176      0.1736
     11  C         -4.1670   -9.8580  -11.2310 C.2   176  TYR176      0.2595
     12  O         -4.2210  -11.0650  -11.4660 O.2   176  TYR176     -0.2718
     13  CB        -5.7200   -8.2960  -12.4240 C.3   176  TYR176      0.0548
     14  CG        -7.1590   -7.8420  -12.5450 C.ar  176  TYR176     -0.0200
     15  CD1       -8.2060   -8.7660  -12.6360 C.ar  176  TYR176     -0.0009
     16  CD2       -7.4770   -6.4880  -12.5240 C.ar  176  TYR176     -0.0009
     17  CE1       -9.5300   -8.3500  -12.7280 C.ar  176  TYR176      0.0417
     18  CE2       -8.7890   -6.0590  -12.6120 C.ar  176  TYR176      0.0417
     19  CZ        -9.8150   -6.9940  -12.7140 C.ar  176  TYR176      0.1957
     20  OH       -11.1160   -6.5400  -12.7960 O.3   176  TYR176     -0.2866
     21  N         -3.0220   -9.2040  -11.0370 N.am  177  TRP177     -0.1976
     22  CA        -1.7480   -9.9030  -11.1890 C.3   177  TRP177      0.1640
     23  C         -1.6330  -11.0510  -10.1880 C.2   177  TRP177      0.2290
     24  O         -1.3090  -12.1740  -10.5620 O.2   177  TRP177     -0.2864
     25  CB        -0.5670   -8.9450  -11.0350 C.3   177  TRP177      0.0576
     26  CG         0.7240   -9.6760  -10.8770 C.ar  177  TRP177      0.0006
     27  CD1        1.5280  -10.1600  -11.8730 C.ar  177  TRP177      0.0946
     28  CD2        1.3510  -10.0380   -9.6410 C.ar  177  TRP177      0.0152
     29  NE1        2.6230  -10.7880  -11.3300 N.ar  177  TRP177     -0.2442
     30  CE2        2.5350  -10.7330   -9.9620 C.ar  177  TRP177      0.0810
     31  CE3        1.0230   -9.8440   -8.2910 C.ar  177  TRP177      0.0012
     32  CZ2        3.3950  -11.2290   -8.9830 C.ar  177  TRP177      0.0191
     33  CZ3        1.8790  -10.3410   -7.3180 C.ar  177  TRP177      0.0001
     34  CH2        3.0490  -11.0230   -7.6700 C.ar  177  TRP177      0.0015
     35  N         -4.1070  -14.0220  -11.0850 N.3   180  PHE180     -0.1241
     36  CA        -3.6920  -14.8940  -12.1720 C.3   180  PHE180      0.1605
     37  C         -2.5290  -15.7840  -11.7580 C.2   180  PHE180      0.2264
     38  O         -2.4760  -16.9270  -12.1590 O.2   180  PHE180     -0.2867
     39  CB        -3.3340  -14.0820  -13.4110 C.3   180  PHE180      0.0534
     40  CG        -4.5250  -13.6810  -14.2250 C.ar  180  PHE180     -0.0203
     41  CD1       -5.0470  -14.5350  -15.1810 C.ar  180  PHE180     -0.0042
     42  CD2       -5.1280  -12.4420  -14.0400 C.ar  180  PHE180     -0.0042
     43  CE1       -6.1420  -14.1700  -15.9380 C.ar  180  PHE180     -0.0003
     44  CE2       -6.2370  -12.0740  -14.7850 C.ar  180  PHE180     -0.0003
     45  CZ        -6.7420  -12.9390  -15.7390 C.ar  180  PHE180     -0.0000
     46  N         -2.4860  -20.0510  -11.3750 N.3   184  GLN184     -0.1245
     47  CA        -1.4210  -20.8120  -12.0100 C.3   184  GLN184      0.1566
     48  C         -0.7990  -21.8140  -11.0450 C.2   184  GLN184      0.2260
     49  O         -0.3680  -22.8890  -11.4510 O.2   184  GLN184     -0.2867
     50  CB        -0.3570  -19.8720  -12.5490 C.3   184  GLN184      0.0367
     51  CG        -0.3950  -19.7360  -14.0460 C.3   184  GLN184      0.0905
     52  CD         0.8820  -19.1410  -14.6020 C.2   184  GLN184      0.2608
     53  OE1        1.6550  -18.5140  -13.8740 O.2   184  GLN184     -0.2717
     54  NE2        1.1250  -19.3550  -15.8960 N.am  184  GLN184     -0.0878
     55  N         -8.4530  -20.0090  -15.3440 N.3   305  ARG305     -0.1245
     56  CA        -7.5430  -18.9280  -15.6990 C.3   305  ARG305      0.1563
     57  C         -7.8200  -18.4460  -17.1270 C.2   305  ARG305      0.2260
     58  O         -7.7600  -17.2570  -17.4010 O.2   305  ARG305     -0.2867
     59  CB        -6.0860  -19.3800  -15.5560 C.3   305  ARG305      0.0307
     60  CG        -5.0820  -18.2450  -15.4160 C.3   305  ARG305      0.0489
     61  CD        -3.6710  -18.8050  -15.3110 C.3   305  ARG305      0.2205
     62  NE        -2.8510  -18.3420  -16.4210 N.pl3 305  ARG305     -0.0865
     63  CZ        -2.0650  -19.1110  -17.1620 C.cat 305  ARG305      0.5346
     64  NH1       -1.9700  -20.4140  -16.9230 N.pl3 305  ARG305      0.1354
     65  NH2       -1.3690  -18.5620  -18.1510 N.pl3 305  ARG305      0.1354
     66  N         -9.6690  -14.4820  -19.1000 N.3   309  ARG309     -0.1245
     67  CA        -8.8820  -13.7200  -20.0740 C.3   309  ARG309      0.1563
     68  C         -9.5710  -12.4480  -20.5550 C.2   309  ARG309      0.2260
     69  O         -8.9140  -11.4900  -20.9450 O.2   309  ARG309     -0.2867
     70  CB        -8.5430  -14.5870  -21.2900 C.3   309  ARG309      0.0307
     71  CG        -7.5730  -13.7800  -22.2000 C.3   309  ARG309      0.0489
     72  CD        -6.9120  -14.6990  -23.2100 C.3   309  ARG309      0.2205
     73  NE        -7.9440  -15.2880  -24.0540 N.pl3 309  ARG309     -0.0865
     74  CZ        -8.4520  -16.5060  -23.9460 C.cat 309  ARG309      0.5346
     75  NH1       -7.9800  -17.3890  -23.0530 N.pl3 309  ARG309      0.1354
     76  NH2       -9.5150  -16.8560  -24.6670 N.pl3 309  ARG309      0.1354
     77  N         -8.6570   -8.7200  -18.3340 N.3   312  PRO312     -0.2116
     78  CA        -7.5930   -7.7590  -18.6500 C.3   312  PRO312      0.1372
     79  C         -7.8890   -6.9330  -19.9030 C.2   312  PRO312      0.2244
     80  O         -7.4380   -5.7960  -19.9960 O.2   312  PRO312     -0.2868
     81  CB        -6.3560   -8.6560  -18.8850 C.3   312  PRO312      0.0268
     82  CG        -6.6610   -9.9300  -18.1910 C.3   312  PRO312      0.0207
     83  CD        -8.1410  -10.1070  -18.2970 C.3   312  PRO312      0.0892
     84  N        -10.2270   -4.2670  -18.6260 N.3   315  VAL315     -0.1231
     85  CA        -9.4420   -3.3250  -17.8340 C.3   315  VAL315      0.1692
     86  C         -8.5310   -2.5060  -18.7490 C.2   315  VAL315      0.2592
     87  O         -8.4970   -1.2810  -18.6590 O.2   315  VAL315     -0.2718
     88  CB        -8.6100   -4.0570  -16.7630 C.3   315  VAL315      0.0266
     89  CG1       -7.6000   -3.1160  -16.1060 C.3   315  VAL315      0.0020
     90  CG2       -9.5310   -4.6610  -15.7330 C.3   315  VAL315      0.0020
     91  N         -7.8320   -3.1800  -19.6590 N.am  316  GLY316     -0.1957
     92  CA        -6.9860   -2.5010  -20.6280 C.3   316  GLY316      0.1869
     93  C         -7.6910   -1.3960  -21.4130 C.2   316  GLY316      0.2309
     94  O         -7.1700   -0.2870  -21.5220 O.2   316  GLY316     -0.2863
     95  N         -8.4400    1.6160  -19.3990 N.3   319  LEU319     -0.1231
     96  CA        -7.2430    2.4210  -19.1710 C.3   319  LEU319      0.1693
     97  C         -6.8750    3.2080  -20.4070 C.2   319  LEU319      0.2591
     98  O         -6.5200    4.3880  -20.3270 O.2   319  LEU319     -0.2718
     99  CB        -6.0640    1.5450  -18.7520 C.3   319  LEU319      0.0284
    100  CG        -6.2970    0.8800  -17.3960 C.3   319  LEU319      0.0019
    101  CD1       -5.0340    0.1780  -16.8950 C.3   319  LEU319      0.0001
    102  CD2       -6.8000    1.9120  -16.3890 C.3   319  LEU319      0.0001
    103  N         -6.9580    2.5640  -21.5620 N.am  320  LEU320     -0.1980
    104  CA        -6.7310    3.2840  -22.8060 C.3   320  LEU320      0.1596
    105  C         -7.7140    4.4260  -22.9870 C.2   320  LEU320      0.2287
    106  O         -7.3310    5.4810  -23.4790 O.2   320  LEU320     -0.2864
    107  CB        -6.8170    2.3470  -24.0150 C.3   320  LEU320      0.0297
    108  CG        -5.6280    1.4120  -24.1890 C.3   320  LEU320      0.0022
    109  CD1       -5.8910    0.4850  -25.3660 C.3   320  LEU320      0.0001
    110  CD2       -4.3400    2.2260  -24.4120 C.3   320  LEU320      0.0001
@<TRIPOS>BOND
     1   109   108    1
     2    76    74    1
     3   110   108    1
     4   108   107    1
     5    73    74    2
     6    73    72    1
     7   107   104    1
     8    74    75    1
     9   106   105    2
    10    72    71    1
    11   105   104    1
    12   104   103    1
    13    71    70    1
    14   103    97   am
    15    94    93    2
    16    93    92    1
    17    70    67    1
    18    69    68    2
    19    92    91    1
    20    68    67    1
    21    97    98    2
    22    97    96    1
    23    67    66    1
    24    80    79    2
    25    79    78    1
    26    91    86   am
    27    95    96    1
    28    96    99    1
    29    81    78    1
    30    81    82    1
    31    99   100    1
    32    86    87    2
    33    86    85    1
    34    78    77    1
    35    84    85    1
    36    77    83    1
    37    83    82    1
    38    65    63    1
    39    85    88    1
    40    58    57    2
    41   100   101    1
    42   100   102    1
    43    63    64    1
    44    63    62    2
    45    57    56    1
    46    88    89    1
    47    88    90    1
    48    62    61    1
    49    43    45   ar
    50    43    41   ar
    51    54    52   am
    52    45    44   ar
    53    56    59    1
    54    56    55    1
    55    59    60    1
    56    60    61    1
    57    41    40   ar
    58    44    42   ar
    59    52    51    1
    60    52    53    2
    61     8     6    1
    62    40    42   ar
    63    40    39    1
    64    51    50    1
    65     7     6    1
    66    39    36    1
    67     6     5    1
    68    20    19    1
    69    17    19   ar
    70    17    15   ar
    71    19    18   ar
    72    15    14   ar
    73    18    16   ar
    74    50    47    1
    75    14    16   ar
    76    14    13    1
    77    13    10    1
    78    36    37    1
    79    36    35    1
    80    38    37    2
    81     5     2    1
    82    47    46    1
    83    47    48    1
    84    27    29   ar
    85    27    26   ar
    86     2     1    1
    87     2     3    1
    88    12    11    2
    89    49    48    2
    90    29    30   ar
    91    11    10    1
    92    11    21   am
    93    22    21    1
    94    22    25    1
    95    22    23    1
    96    10     9    1
    97     4     3    2
    98    25    26    1
    99    26    28   ar
   100    24    23    2
   101    30    28   ar
   102    30    32   ar
   103    28    31   ar
   104    32    34   ar
   105    31    33   ar
   106    34    33   ar
