@<TRIPOS>MOLECULE
tmp/5wivA07.pdb
 100 90 0 0 0
SMALL
GASTEIGER

@<TRIPOS>ATOM
      1  N        -18.8600   21.4650  -37.0220 N.3     2  GLN2       -0.1245
      2  CA       -18.4130   20.8240  -35.7930 C.3     2  GLN2        0.1566
      3  C        -19.6270   20.2810  -35.0430 C.2     2  GLN2        0.2260
      4  O        -19.5380   19.2750  -34.3380 O.2     2  GLN2       -0.2867
      5  CB       -17.6230   21.8030  -34.9190 C.3     2  GLN2        0.0367
      6  CG       -17.1910   21.2440  -33.5750 C.3     2  GLN2        0.0905
      7  CD       -16.1910   20.1370  -33.7200 C.2     2  GLN2        0.2608
      8  OE1      -15.0690   20.3850  -34.2110 O.2     2  GLN2       -0.2717
      9  NE2      -16.5570   18.8950  -33.4250 N.am    2  GLN2       -0.0878
     10  N        -21.0340   16.7660  -36.7000 N.3     5  ALA5       -0.1231
     11  CA       -20.2250   15.6120  -36.3170 C.3     5  ALA5        0.1694
     12  C        -20.5770   15.1430  -34.9110 C.2     5  ALA5        0.2591
     13  O        -20.6410   13.9460  -34.6450 O.2     5  ALA5       -0.2718
     14  CB       -18.7530   15.9440  -36.4000 C.3     5  ALA5        0.0304
     15  N        -20.7920   16.0960  -34.0100 N.am    6  ALA6       -0.1980
     16  CA       -21.1670   15.7860  -32.6370 C.3     6  ALA6        0.1597
     17  C        -22.5090   15.0910  -32.6230 C.2     6  ALA6        0.2287
     18  O        -22.6930   14.0870  -31.9480 O.2     6  ALA6       -0.2864
     19  CB       -21.2220   17.0520  -31.7920 C.3     6  ALA6        0.0319
     20  N        -22.1890   11.6660  -34.4380 N.3     9  GLY9       -0.1225
     21  CA       -21.3330   10.8860  -33.5670 C.3     9  GLY9        0.1811
     22  C        -22.0280   10.5360  -32.2710 C.2     9  GLY9        0.2280
     23  O        -21.8930    9.4220  -31.7600 O.2     9  GLY9       -0.2866
     24  N        -25.0480    7.9950  -32.7960 N.3    12  LEU12      -0.1231
     25  CA       -24.4370    6.6910  -33.0190 C.3    12  LEU12       0.1693
     26  C        -23.8120    6.1220  -31.7430 C.2    12  LEU12       0.2591
     27  O        -23.9260    4.9290  -31.4770 O.2    12  LEU12      -0.2718
     28  CB       -23.3820    6.7720  -34.1180 C.3    12  LEU12       0.0284
     29  CG       -23.9160    6.7930  -35.5480 C.3    12  LEU12       0.0019
     30  CD1      -22.7710    6.6290  -36.5320 C.3    12  LEU12       0.0001
     31  CD2      -24.9560    5.7080  -35.7530 C.3    12  LEU12       0.0001
     32  N        -23.1440    6.9640  -30.9600 N.am   13  LEU13      -0.1980
     33  CA       -22.5890    6.5080  -29.7060 C.3    13  LEU13       0.1596
     34  C        -23.7090    6.0460  -28.7610 C.2    13  LEU13       0.2287
     35  O        -23.6500    4.9540  -28.2130 O.2    13  LEU13      -0.2864
     36  CB       -21.7550    7.6110  -29.0580 C.3    13  LEU13       0.0297
     37  CG       -21.1170    7.2200  -27.7280 C.3    13  LEU13       0.0022
     38  CD1      -20.2130    6.0150  -27.9220 C.3    13  LEU13       0.0001
     39  CD2      -20.3370    8.3930  -27.1370 C.3    13  LEU13       0.0001
     40  N        -25.2930    2.8800  -29.8600 N.3    16  ALA16      -0.1245
     41  CA       -24.3940    1.7320  -29.6630 C.3    16  ALA16       0.1562
     42  C        -24.2280    1.3460  -28.1970 C.2    16  ALA16       0.2260
     43  O        -23.9450    0.1900  -27.8800 O.2    16  ALA16      -0.2867
     44  CB       -23.0220    2.0110  -30.2780 C.3    16  ALA16       0.0290
     45  N        -22.4020   19.6190  -27.0630 N.3    64  GLU64      -0.1245
     46  CA       -21.3420   19.5910  -28.0700 C.3    64  GLU64       0.1567
     47  C        -21.7940   20.2350  -29.3780 C.2    64  GLU64       0.2260
     48  O        -21.0060   20.8440  -30.0860 O.2    64  GLU64      -0.2867
     49  CB       -20.8840   18.1540  -28.3280 C.3    64  GLU64       0.0388
     50  CG       -20.0740   17.5480  -27.2070 C.3    64  GLU64       0.1160
     51  CD       -18.8100   18.3440  -26.9040 C.2    64  GLU64       0.3649
     52  OE1      -17.8030   18.1740  -27.6310 O.co2  64  GLU64      -0.2457
     53  OE2      -18.8210   19.1340  -25.9310 O.co2  64  GLU64      -0.2457
     54  N        -21.4110   23.8040  -29.2850 N.3    67  GLY67      -0.1225
     55  CA       -20.0020   24.1130  -29.1510 C.3    67  GLY67       0.1811
     56  C        -19.5430   24.2770  -27.7130 C.2    67  GLY67       0.2280
     57  O        -18.7260   25.1500  -27.4230 O.2    67  GLY67      -0.2866
     58  N        -10.0130   21.5800  -27.8950 N.3   343  ARG343     -0.1245
     59  CA       -10.4090   20.4950  -28.7980 C.3   343  ARG343      0.1563
     60  C         -9.9230   19.1580  -28.2460 C.2   343  ARG343      0.2260
     61  O        -10.5120   18.1180  -28.5170 O.2   343  ARG343     -0.2867
     62  CB        -9.8730   20.7110  -30.2220 C.3   343  ARG343      0.0307
     63  CG       -10.6870   21.7690  -30.9190 C.3   343  ARG343      0.0489
     64  CD       -12.0010   21.2280  -31.4330 C.3   343  ARG343      0.2205
     65  NE       -11.8660   20.0430  -32.2670 N.pl3 343  ARG343     -0.0865
     66  CZ       -12.4140   18.8600  -31.9840 C.cat 343  ARG343      0.5346
     67  NH1      -13.1250   18.6730  -30.8660 N.pl3 343  ARG343      0.1354
     68  NH2      -12.1990   17.8440  -32.8380 N.pl3 343  ARG343      0.1354
     69  N        -12.2230   18.1200  -25.3190 N.3   346  SER346     -0.1217
     70  CA       -13.3640   17.5090  -25.9870 C.3   346  SER346      0.1889
     71  C        -13.0250   16.0860  -26.4490 C.2   346  SER346      0.2288
     72  O        -13.7750   15.1610  -26.2090 O.2   346  SER346     -0.2866
     73  CB       -13.8120   18.3610  -27.1720 C.3   346  SER346      0.2089
     74  OG       -14.9670   17.8050  -27.7800 O.3   346  SER346     -0.2183
     75  N        -14.9410   12.4050  -25.2880 N.3   350  TRP350     -0.1241
     76  CA       -15.5380   11.4450  -26.2110 C.3   350  TRP350      0.1605
     77  C        -14.8700   10.0900  -26.0810 C.2   350  TRP350      0.2264
     78  O        -15.5480    9.0590  -26.0760 O.2   350  TRP350     -0.2867
     79  CB       -15.4380   11.9280  -27.6650 C.3   350  TRP350      0.0550
     80  CG       -16.4100   13.0000  -28.0310 C.ar  350  TRP350      0.0003
     81  CD1      -16.1780   14.3460  -28.0500 C.ar  350  TRP350      0.0946
     82  CD2      -17.7710   12.8200  -28.4520 C.ar  350  TRP350      0.0152
     83  NE1      -17.3090   15.0140  -28.4540 N.ar  350  TRP350     -0.2442
     84  CE2      -18.3020   14.1020  -28.7060 C.ar  350  TRP350      0.0810
     85  CE3      -18.5940   11.7010  -28.6270 C.ar  350  TRP350      0.0012
     86  CZ2      -19.6240   14.2990  -29.1250 C.ar  350  TRP350      0.0191
     87  CZ3      -19.9060   11.8970  -29.0570 C.ar  350  TRP350      0.0001
     88  CH2      -20.4040   13.1860  -29.3030 C.ar  350  TRP350      0.0015
     89  N        -16.7700    6.6410  -25.2450 N.3   354  VAL354     -0.1245
     90  CA       -16.8630    5.5330  -26.2040 C.3   354  VAL354      0.1561
     91  C        -16.4810    4.2220  -25.5470 C.2   354  VAL354      0.2260
     92  O        -16.8490    3.1560  -26.0390 O.2   354  VAL354     -0.2867
     93  CB       -15.9890    5.6940  -27.4700 C.3   354  VAL354      0.0252
     94  CG1      -16.3140    6.9970  -28.2170 C.3   354  VAL354      0.0019
     95  CG2      -14.5280    5.5520  -27.1380 C.3   354  VAL354      0.0019
     96  N        -19.3350    1.9140  -25.0780 N.3   357  ALA357     -0.1245
     97  CA       -19.8570    1.0930  -26.1760 C.3   357  ALA357      0.1562
     98  C        -18.9820   -0.1360  -26.4280 C.2   357  ALA357      0.2260
     99  O        -19.3810   -1.0440  -27.1530 O.2   357  ALA357     -0.2867
    100  CB       -19.9840    1.9250  -27.4500 C.3   357  ALA357      0.0290
@<TRIPOS>BOND
     1     1     2    1
     2    10    11    1
     3    30    29    1
     4    14    11    1
     5    11    12    1
     6     2     3    1
     7     2     5    1
     8    31    29    1
     9    29    28    1
    10     3     4    2
    11     5     6    1
    12    12    13    2
    13    12    15   am
    14    20    21    1
    15     8     7    2
    16    28    25    1
    17    15    16    1
    18     7     6    1
    19     7     9   am
    20    21    22    1
    21    25    24    1
    22    25    26    1
    23    68    66    1
    24    16    17    1
    25    16    19    1
    26    17    18    2
    27    22    23    2
    28    65    66    2
    29    65    64    1
    30    66    67    1
    31    26    27    2
    32    26    32   am
    33    64    63    1
    34    32    33    1
    35    63    62    1
    36    44    41    1
    37    62    59    1
    38    48    47    2
    39    40    41    1
    40    33    36    1
    41    33    34    1
    42    41    42    1
    43    47    46    1
    44    88    86   ar
    45    88    87   ar
    46    54    55    1
    47    55    56    1
    48    86    84   ar
    49    36    37    1
    50    87    85   ar
    51    59    60    1
    52    59    58    1
    53    34    35    2
    54    84    83   ar
    55    84    82   ar
    56    85    82   ar
    57    61    60    2
    58    83    81   ar
    59    82    80   ar
    60    49    46    1
    61    49    50    1
    62    94    93    1
    63    42    43    2
    64    46    45    1
    65    81    80   ar
    66    80    79    1
    67    38    37    1
    68    74    73    1
    69    37    39    1
    70    56    57    2
    71    79    76    1
    72    52    51   ar
    73    93    95    1
    74    93    90    1
    75   100    97    1
    76    50    51    1
    77    73    70    1
    78    99    98    2
    79    51    53   ar
    80    71    72    2
    81    71    70    1
    82    98    97    1
    83    76    77    1
    84    76    75    1
    85    90    91    1
    86    90    89    1
    87    97    96    1
    88    77    78    2
    89    92    91    2
    90    70    69    1
