@<TRIPOS>MOLECULE
tmp/5wivA13.pdb
 100 95 0 0 0
SMALL
GASTEIGER

@<TRIPOS>ATOM
      1  N         -9.6450    7.2270   -9.9260 N.3   165  PHE165     -0.1227
      2  CA        -8.8480    6.6540  -11.0040 C.3   165  PHE165      0.1736
      3  C         -7.3930    6.3270  -10.6550 C.2   165  PHE165      0.2595
      4  O         -7.0030    5.1800  -10.7370 O.2   165  PHE165     -0.2718
      5  CB        -8.8750    7.5960  -12.2100 C.3   165  PHE165      0.0547
      6  CG        -8.1920    7.0460  -13.4170 C.ar  165  PHE165     -0.0202
      7  CD1       -8.8310    6.1150  -14.2210 C.ar  165  PHE165     -0.0042
      8  CD2       -6.9090    7.4630  -13.7530 C.ar  165  PHE165     -0.0042
      9  CE1       -8.1970    5.6090  -15.3330 C.ar  165  PHE165     -0.0003
     10  CE2       -6.2720    6.9500  -14.8610 C.ar  165  PHE165     -0.0003
     11  CZ        -6.9180    6.0370  -15.6590 C.ar  165  PHE165     -0.0000
     12  N         -6.5860    7.3200  -10.2820 N.am  166  PHE166     -0.1976
     13  CA        -5.1500    7.0630  -10.1700 C.3   166  PHE166      0.1639
     14  C         -4.7940    6.1440   -9.0000 C.2   166  PHE166      0.2290
     15  O         -3.7340    5.5210   -9.0010 O.2   166  PHE166     -0.2864
     16  CB        -4.3590    8.3700  -10.0650 C.3   166  PHE166      0.0560
     17  CG        -4.2790    9.1170  -11.3580 C.ar  166  PHE166     -0.0200
     18  CD1       -3.6730    8.5470  -12.4590 C.ar  166  PHE166     -0.0042
     19  CD2       -4.8550   10.3700  -11.4930 C.ar  166  PHE166     -0.0042
     20  CE1       -3.6290    9.2210  -13.6740 C.ar  166  PHE166     -0.0003
     21  CE2       -4.8040   11.0530  -12.7060 C.ar  166  PHE166     -0.0003
     22  CZ        -4.1940   10.4770  -13.7940 C.ar  166  PHE166     -0.0000
     23  N         -6.3970    2.2150   -9.8620 N.3   169  CYS169     -0.1221
     24  CA        -5.7770    1.5570  -10.9960 C.3   169  CYS169      0.1794
     25  C         -4.5800    0.6900  -10.6100 C.2   169  CYS169      0.2443
     26  O         -4.5610   -0.4610  -10.9620 O.2   169  CYS169     -0.2733
     27  CB        -5.3880    2.5820  -12.0660 C.3   169  CYS169      0.0970
     28  SG        -6.8370    3.0990  -13.0280 S.3   169  CYS169     -0.0800
     29  N         -3.5920    1.2240   -9.8760 N.am  170  PRO170     -0.2729
     30  CA        -2.4890    0.3160   -9.5370 C.3   170  PRO170      0.1401
     31  C         -2.9170   -0.8440   -8.6340 C.2   170  PRO170      0.2269
     32  O         -2.3820   -1.9270   -8.7550 O.2   170  PRO170     -0.2865
     33  CB        -1.4990    1.2340   -8.8100 C.3   170  PRO170      0.0296
     34  CG        -2.3540    2.3090   -8.2490 C.3   170  PRO170      0.0237
     35  CD        -3.3690    2.5640   -9.3160 C.3   170  PRO170      0.0939
     36  N         -4.5840   -3.3820  -10.6900 N.3   173  LEU173     -0.1245
     37  CA        -3.5740   -4.0870  -11.4690 C.3   173  LEU173      0.1561
     38  C         -2.7760   -5.0780  -10.6070 C.2   173  LEU173      0.2260
     39  O         -2.4640   -6.1670  -11.0480 O.2   173  LEU173     -0.2867
     40  CB        -2.6290   -3.0970  -12.1560 C.3   173  LEU173      0.0270
     41  CG        -3.2810   -2.1910  -13.2100 C.3   173  LEU173      0.0019
     42  CD1       -2.2440   -1.2230  -13.7490 C.3   173  LEU173      0.0001
     43  CD2       -3.9410   -3.0040  -14.3340 C.3   173  LEU173      0.0001
     44  N         -8.4400    1.6160  -19.3990 N.3   319  LEU319     -0.1245
     45  CA        -7.2430    2.4210  -19.1710 C.3   319  LEU319      0.1561
     46  C         -6.8750    3.2080  -20.4070 C.2   319  LEU319      0.2260
     47  O         -6.5200    4.3880  -20.3270 O.2   319  LEU319     -0.2867
     48  CB        -6.0640    1.5450  -18.7520 C.3   319  LEU319      0.0270
     49  CG        -6.2970    0.8800  -17.3960 C.3   319  LEU319      0.0019
     50  CD1       -5.0340    0.1780  -16.8950 C.3   319  LEU319      0.0001
     51  CD2       -6.8000    1.9120  -16.3890 C.3   319  LEU319      0.0001
     52  N         -7.3940    7.0600  -19.3330 N.3   323  THR323     -0.1218
     53  CA        -6.1450    7.6620  -18.8720 C.3   323  THR323      0.1862
     54  C         -5.9490    9.0570  -19.4980 C.2   323  THR323      0.2287
     55  O         -5.5890    9.9860  -18.7880 O.2   323  THR323     -0.2866
     56  CB        -4.8980    6.7750  -19.1690 C.3   323  THR323      0.1770
     57  OG1       -5.0270    5.5140  -18.4920 O.3   323  THR323     -0.2211
     58  CG2       -3.6240    7.4400  -18.6700 C.3   323  THR323      0.0375
     59  N         -5.5040   12.3340  -17.1740 N.3   327  VAL327     -0.1245
     60  CA        -4.2880   13.1180  -17.2150 C.3   327  VAL327      0.1561
     61  C         -4.6230   14.5820  -17.5460 C.2   327  VAL327      0.2260
     62  O         -4.1070   15.5170  -16.9080 O.2   327  VAL327     -0.2867
     63  CB        -3.2890   12.5350  -18.2160 C.3   327  VAL327      0.0252
     64  CG1       -2.1600   13.5180  -18.4720 C.3   327  VAL327      0.0019
     65  CG2       -2.7410   11.2010  -17.6820 C.3   327  VAL327      0.0019
     66  N         -6.5840   16.2540  -14.4010 N.3   330  ILE330     -0.1231
     67  CA        -5.8070   16.5020  -13.1970 C.3   330  ILE330      0.1692
     68  C         -4.7380   17.5610  -13.4900 C.2   330  ILE330      0.2592
     69  O         -4.4220   18.3560  -12.6200 O.2   330  ILE330     -0.2718
     70  CB        -5.1630   15.2130  -12.6050 C.3   330  ILE330      0.0266
     71  CG1       -4.8220   15.4410  -11.1310 C.3   330  ILE330      0.0019
     72  CG2       -3.9430   14.7410  -13.3930 C.3   330  ILE330      0.0020
     73  CD1       -4.1620   14.2560  -10.4600 C.3   330  ILE330      0.0001
     74  N         -4.2200   17.6030  -14.7140 N.am  331  THR331     -0.1953
     75  CA        -3.2240   18.6150  -15.0720 C.3   331  THR331      0.1897
     76  C         -3.8120   20.0250  -14.9740 C.2   331  THR331      0.2313
     77  O         -3.2610   20.8850  -14.2860 O.2   331  THR331     -0.2863
     78  CB        -2.6660   18.3980  -16.4950 C.3   331  THR331      0.1794
     79  OG1       -1.9220   17.1750  -16.5350 O.3   331  THR331     -0.2208
     80  CG2       -1.7230   19.5240  -16.8700 C.3   331  THR331      0.0378
     81  N         -4.4300   20.9220  -11.3990 N.3   334  LEU334     -0.1231
     82  CA        -3.1910   21.1930  -10.6520 C.3   334  LEU334      0.1693
     83  C         -2.4850   22.4590  -11.1220 C.2   334  LEU334      0.2592
     84  O         -1.8010   23.1220  -10.3450 O.2   334  LEU334     -0.2718
     85  CB        -2.2020   20.0260  -10.7680 C.3   334  LEU334      0.0284
     86  CG        -2.5630   18.7630   -9.9770 C.3   334  LEU334      0.0019
     87  CD1       -1.6950   17.5950  -10.4400 C.3   334  LEU334      0.0001
     88  CD2       -2.4070   19.0170   -8.4690 C.3   334  LEU334      0.0001
     89  N         -2.6300   22.7540  -12.4110 N.am  335  CYS335     -0.1970
     90  CA        -1.8020   23.7500  -13.0770 C.3   335  CYS335      0.1712
     91  C         -2.6290   24.5370  -14.0900 C.2   335  CYS335      0.2296
     92  O         -2.6980   24.1650  -15.2620 O.2   335  CYS335     -0.2864
     93  CB        -0.6030   23.0740  -13.7710 C.3   335  CYS335      0.0983
     94  SG         0.5600   24.2310  -14.5870 S.3   335  CYS335     -0.0798
     95  N         -1.0270   25.3780  -17.2440 N.3   338  CYS338     -0.1235
     96  CA        -0.7630   24.2790  -18.1670 C.3   338  CYS338      0.1677
     97  C         -1.9610   24.1620  -19.1030 C.2   338  CYS338      0.2270
     98  O         -2.8370   23.3330  -18.9130 O.2   338  CYS338     -0.2867
     99  CB        -0.4990   22.9530  -17.4190 C.3   338  CYS338      0.0956
    100  SG         0.8800   23.0110  -16.2350 S.3   338  CYS338     -0.0801
@<TRIPOS>BOND
     1    46    47    2
     2    46    45    1
     3    54    53    1
     4    54    55    2
     5    44    45    1
     6    52    53    1
     7    45    48    1
     8    56    53    1
     9    56    58    1
    10    56    57    1
    11    97    98    2
    12    97    96    1
    13    48    49    1
    14    64    63    1
    15    63    65    1
    16    63    60    1
    17    96    99    1
    18    96    95    1
    19    61    60    1
    20    61    62    2
    21    99   100    1
    22    49    50    1
    23    49    51    1
    24    60    59    1
    25    80    78    1
    26    79    78    1
    27    78    75    1
    28   100    94    1
    29    11     9   ar
    30    11    10   ar
    31     9     7   ar
    32    92    91    2
    33    75    76    1
    34    75    74    1
    35    76    77    2
    36    10     8   ar
    37    74    68   am
    38    94    93    1
    39    66    67    1
    40    43    41    1
    41     7     6   ar
    42    91    90    1
    43    22    20   ar
    44    22    21   ar
    45    93    90    1
    46     8     6   ar
    47    42    41    1
    48    20    18   ar
    49    68    67    1
    50    68    69    2
    51     6     5    1
    52    72    70    1
    53    41    40    1
    54    67    70    1
    55    90    89    1
    56    28    27    1
    57    21    19   ar
    58    70    71    1
    59    18    17   ar
    60    89    83   am
    61     5     2    1
    62    40    37    1
    63    27    24    1
    64    19    17   ar
    65    37    36    1
    66    37    38    1
    67    81    82    1
    68    17    16    1
    69    71    73    1
    70    83    82    1
    71    83    84    2
    72    39    38    2
    73     2     3    1
    74     2     1    1
    75    24    25    1
    76    24    23    1
    77    26    25    2
    78    85    82    1
    79    85    86    1
    80     4     3    2
    81     3    12   am
    82    25    29   am
    83    87    86    1
    84    12    13    1
    85    13    16    1
    86    13    14    1
    87    86    88    1
    88    29    30    1
    89    29    35    1
    90    30    33    1
    91    30    31    1
    92    35    34    1
    93    15    14    2
    94    33    34    1
    95    32    31    2
