@<TRIPOS>MOLECULE
tmp/5wiyA00.pdb
 91 85 0 0 0
SMALL
GASTEIGER

@<TRIPOS>ATOM
      1  N        437.5710   64.6760  117.8530 N.3    90  ARG90      -0.1245
      2  CA       436.5450   65.5050  118.4980 C.3    90  ARG90       0.1563
      3  C        435.8130   64.7200  119.5890 C.2    90  ARG90       0.2260
      4  O        434.6000   64.8230  119.7720 O.2    90  ARG90      -0.2867
      5  CB       435.5860   66.0870  117.4690 C.3    90  ARG90       0.0307
      6  CG       436.3170   66.9450  116.4500 C.3    90  ARG90       0.0489
      7  CD       435.3600   67.7280  115.5690 C.3    90  ARG90       0.2205
      8  NE       436.0650   68.6430  114.6670 N.pl3  90  ARG90      -0.0865
      9  CZ       436.0190   69.9720  114.7610 C.cat  90  ARG90       0.5346
     10  NH1      435.2740   70.5380  115.7110 N.pl3  90  ARG90       0.1354
     11  NH2      436.6840   70.7360  113.8930 N.pl3  90  ARG90       0.1354
     12  N        432.2190   66.3000  118.5850 N.3   137  GLY137     -0.1225
     13  CA       432.2110   67.6370  119.1660 C.3   137  GLY137      0.1811
     14  C        431.3360   67.7260  120.3990 C.2   137  GLY137      0.2280
     15  O        430.6760   68.7510  120.6240 O.2   137  GLY137     -0.2866
     16  N        427.4900   66.8310  117.3650 N.3   153  PHE153     -0.1241
     17  CA       427.1560   66.6900  115.9500 C.3   153  PHE153      0.1605
     18  C        427.0400   65.2030  115.6190 C.2   153  PHE153      0.2264
     19  O        427.9280   64.4250  115.9860 O.2   153  PHE153     -0.2867
     20  CB       428.2350   67.3650  115.0820 C.3   153  PHE153      0.0534
     21  CG       427.9450   67.3420  113.5980 C.ar  153  PHE153     -0.0203
     22  CD1      426.7750   67.9050  113.0970 C.ar  153  PHE153     -0.0042
     23  CD2      428.8520   66.7930  112.7020 C.ar  153  PHE153     -0.0042
     24  CE1      426.5050   67.9020  111.7290 C.ar  153  PHE153     -0.0003
     25  CE2      428.5940   66.7880  111.3410 C.ar  153  PHE153     -0.0003
     26  CZ       427.4130   67.3430  110.8500 C.ar  153  PHE153     -0.0000
     27  N        423.3790   69.2220  114.1180 N.3   158  ARG158     -0.1245
     28  CA       423.9330   69.7060  115.3690 C.3   158  ARG158      0.1563
     29  C        422.8740   69.5500  116.4440 C.2   158  ARG158      0.2260
     30  O        421.6790   69.5250  116.1470 O.2   158  ARG158     -0.2867
     31  CB       424.3600   71.1730  115.2610 C.3   158  ARG158      0.0307
     32  CG       425.7690   71.3970  114.7610 C.3   158  ARG158      0.0489
     33  CD       425.8720   71.4120  113.2780 C.3   158  ARG158      0.2205
     34  NE       427.2690   71.3750  112.8630 N.pl3 158  ARG158     -0.0865
     35  CZ       427.6750   71.4580  111.5970 C.cat 158  ARG158      0.5346
     36  NH1      426.7780   71.5950  110.6230 N.pl3 158  ARG158      0.1354
     37  NH2      428.9820   71.4030  111.3130 N.pl3 158  ARG158      0.1354
     38  N        427.4550   72.2840  118.8510 N.3   183  SER183     -0.1202
     39  CA       428.5420   71.3290  118.7430 C.3   183  SER183      0.2020
     40  C        429.8660   72.0550  118.9470 C.2   183  SER183      0.2619
     41  O        429.9860   73.2580  118.6720 O.2   183  SER183     -0.2717
     42  CB       428.5340   70.5690  117.4070 C.3   183  SER183      0.2103
     43  OG       429.0140   71.3470  116.3430 O.3   183  SER183     -0.2182
     44  N        430.8380   71.3240  119.4960 N.am  184  GLY184     -0.1956
     45  CA       432.1300   71.9160  119.8040 C.3   184  GLY184      0.1869
     46  C        432.0500   73.0140  120.8380 C.2   184  GLY184      0.2309
     47  O        432.8160   73.9740  120.7640 O.2   184  GLY184     -0.2863
     48  N        428.9230   75.8050  118.0290 N.3   200  TYR200     -0.1241
     49  CA       428.4690   76.1430  116.6930 C.3   200  TYR200      0.1605
     50  C        427.0920   75.5180  116.5520 C.2   200  TYR200      0.2264
     51  O        426.9040   74.3500  116.9190 O.2   200  TYR200     -0.2867
     52  CB       429.4330   75.5830  115.6490 C.3   200  TYR200      0.0534
     53  CG       429.1140   75.9030  114.2060 C.ar  200  TYR200     -0.0201
     54  CD1      429.1660   77.2040  113.7400 C.ar  200  TYR200     -0.0009
     55  CD2      428.7820   74.8900  113.2960 C.ar  200  TYR200     -0.0009
     56  CE1      428.8900   77.5030  112.4220 C.ar  200  TYR200      0.0417
     57  CE2      428.4920   75.1830  111.9720 C.ar  200  TYR200      0.0417
     58  CZ       428.5570   76.4930  111.5460 C.ar  200  TYR200      0.1957
     59  OH       428.2840   76.8260  110.2380 O.3   200  TYR200     -0.2866
     60  N        429.0530   80.5730  115.0280 N.3   205  GLN205     -0.1245
     61  CA       429.6620   80.3110  116.3220 C.3   205  GLN205      0.1566
     62  C        428.9560   81.1280  117.3900 C.2   205  GLN205      0.2260
     63  O        428.4970   82.2460  117.1470 O.2   205  GLN205     -0.2867
     64  CB       431.1500   80.6580  116.3290 C.3   205  GLN205      0.0367
     65  CG       432.0110   79.7910  115.4620 C.3   205  GLN205      0.0905
     66  CD       431.8750   80.1390  114.0120 C.2   205  GLN205      0.2608
     67  OE1      431.4060   81.2300  113.6680 O.2   205  GLN205     -0.2717
     68  NE2      432.2590   79.2140  113.1420 N.am  205  GLN205     -0.0878
     69  N        433.8680   78.3270  118.8700 N.3   230  SER230     -0.1202
     70  CA       433.6100   76.8960  118.7950 C.3   230  SER230      0.2020
     71  C        434.9370   76.1670  118.9490 C.2   230  SER230      0.2618
     72  O        435.9940   76.7130  118.6230 O.2   230  SER230     -0.2717
     73  CB       432.9710   76.5170  117.4700 C.3   230  SER230      0.2103
     74  OG       433.9080   76.7430  116.4350 O.3   230  SER230     -0.2182
     75  N        434.8830   74.9330  119.4430 N.am  231  ALA231     -0.1979
     76  CA       436.0910   74.1280  119.6390 C.3   231  ALA231      0.1597
     77  C        437.0390   74.8050  120.6200 C.2   231  ALA231      0.2287
     78  O        438.2570   74.7980  120.4430 O.2   231  ALA231     -0.2864
     79  CB       436.8110   73.8480  118.3180 C.3   231  ALA231      0.0319
     80  N        437.5400   79.0030  117.6210 N.3   247  TYR247     -0.1241
     81  CA       437.4020   79.6150  116.3060 C.3   247  TYR247      0.1605
     82  C        436.1070   80.4110  116.2770 C.2   247  TYR247      0.2264
     83  O        435.0900   79.9760  116.8350 O.2   247  TYR247     -0.2867
     84  CB       437.4320   78.5580  115.2130 C.3   247  TYR247      0.0534
     85  CG       437.2540   79.0570  113.7960 C.ar  247  TYR247     -0.0201
     86  CD1      438.2390   79.8190  113.1750 C.ar  247  TYR247     -0.0009
     87  CD2      436.1440   78.6880  113.0480 C.ar  247  TYR247     -0.0009
     88  CE1      438.0880   80.2540  111.8640 C.ar  247  TYR247      0.0417
     89  CE2      435.9860   79.1080  111.7460 C.ar  247  TYR247      0.0417
     90  CZ       436.9560   79.8840  111.1570 C.ar  247  TYR247      0.1957
     91  OH       436.7890   80.2910  109.8530 O.3   247  TYR247     -0.2866
@<TRIPOS>BOND
     1    91    90    1
     2    59    58    1
     3    36    35    1
     4    26    25   ar
     5    26    24   ar
     6    90    89   ar
     7    90    88   ar
     8    37    35    1
     9    25    23   ar
    10    58    57   ar
    11    58    56   ar
    12    35    34    2
    13    24    22   ar
    14    89    87   ar
    15    88    86   ar
    16    57    55   ar
    17    56    54   ar
    18    23    21   ar
    19    34    33    1
    20    87    85   ar
    21    22    21   ar
    22    68    66   am
    23    86    85   ar
    24    33    32    1
    25    55    53   ar
    26    21    20    1
    27    67    66    2
    28    54    53   ar
    29    85    84    1
    30    11     9    1
    31    66    65    1
    32    27    28    1
    33    53    52    1
    34     8     9    2
    35     8     7    1
    36     9    10    1
    37    32    31    1
    38    60    61    1
    39    20    17    1
    40    84    81    1
    41    31    28    1
    42    28    29    1
    43    65    64    1
    44     7     6    1
    45    18    17    1
    46    18    19    2
    47    52    49    1
    48    17    16    1
    49    30    29    2
    50    82    81    1
    51    82    83    2
    52    81    80    1
    53    61    64    1
    54    61    62    1
    55    43    42    1
    56    74    73    1
    57     6     5    1
    58    50    49    1
    59    50    51    2
    60    49    48    1
    61    63    62    2
    62    42    39    1
    63     5     2    1
    64    73    70    1
    65     1     2    1
    66    79    76    1
    67     2     3    1
    68    12    13    1
    69    72    71    2
    70    41    40    2
    71    39    38    1
    72    39    40    1
    73    70    69    1
    74    70    71    1
    75    40    44   am
    76    71    75   am
    77    13    14    1
    78    75    76    1
    79    44    45    1
    80     3     4    2
    81    76    77    1
    82    45    46    1
    83    14    15    2
    84    78    77    2
    85    47    46    2
