@<TRIPOS>MOLECULE
tmp/5wj1A01.pdb
 84 81 0 0 0
SMALL
GASTEIGER

@<TRIPOS>ATOM
      1  N         69.4750  -76.5460   -4.7030 N.3   266  MET266     -0.1230
      2  CA        70.6080  -77.2550   -5.2940 C.3   266  MET266      0.1702
      3  C         71.9440  -76.5970   -4.9620 C.2   266  MET266      0.2592
      4  O         72.8920  -77.2730   -4.5690 O.2   266  MET266     -0.2718
      5  CB        70.4340  -77.3530   -6.8150 C.3   266  MET266      0.0401
      6  CG        71.6300  -77.9480   -7.5430 C.3   266  MET266      0.0596
      7  SD        71.3140  -78.2970   -9.2880 S.3   266  MET266     -0.1393
      8  CE        70.2910  -79.7660   -9.1740 C.3   266  MET266      0.0692
      9  N         72.0140  -75.2800   -5.1160 N.am  267  HIS267     -0.1976
     10  CA        73.2190  -74.5480   -4.7510 C.3   267  HIS267      0.1656
     11  C         72.9650  -73.6190   -3.5700 C.2   267  HIS267      0.2291
     12  O         73.6480  -72.6090   -3.4050 O.2   267  HIS267     -0.2864
     13  CB        73.7520  -73.7580   -5.9450 C.3   267  HIS267      0.0771
     14  CG        74.2950  -74.6210   -7.0410 C.ar  267  HIS267      0.0820
     15  ND1       75.3020  -75.5390   -6.8330 N.ar  267  HIS267     -0.2267
     16  CD2       73.9780  -74.7010   -8.3550 C.ar  267  HIS267      0.1154
     17  CE1       75.5790  -76.1510   -7.9710 C.ar  267  HIS267      0.1986
     18  NE2       74.7910  -75.6600   -8.9100 N.ar  267  HIS267     -0.2212
     19  N         61.9260  -78.5710   -8.2900 N.3   291  ASP291     -0.1225
     20  CA        62.8880  -79.5940   -7.8820 C.3   291  ASP291      0.1805
     21  C         64.3200  -79.0590   -7.7470 C.2   291  ASP291      0.2597
     22  O         65.1830  -79.7360   -7.1880 O.2   291  ASP291     -0.2718
     23  CB        62.8500  -80.7830   -8.8540 C.3   291  ASP291      0.1424
     24  CG        63.7140  -80.5770  -10.0850 C.2   291  ASP291      0.3668
     25  OD1       63.7940  -79.4390  -10.5930 O.co2 291  ASP291     -0.2456
     26  OD2       64.3120  -81.5680  -10.5500 O.co2 291  ASP291     -0.2456
     27  N         64.5720  -77.8500   -8.2470 N.am  292  ARG292     -0.1979
     28  CA        65.8600  -77.1940   -8.0040 C.3   292  ARG292      0.1597
     29  C         65.9870  -76.8510   -6.5180 C.2   292  ARG292      0.2287
     30  O         67.0880  -76.7880   -5.9730 O.2   292  ARG292     -0.2864
     31  CB        66.0230  -75.9210   -8.8440 C.3   292  ARG292      0.0334
     32  CG        66.0120  -76.1050  -10.3620 C.3   292  ARG292      0.0492
     33  CD        67.1050  -77.0370  -10.8600 C.3   292  ARG292      0.2205
     34  NE        66.6300  -78.4120  -10.9720 N.pl3 292  ARG292     -0.0865
     35  CZ        67.3260  -79.4030  -11.5160 C.cat 292  ARG292      0.5346
     36  NH1       68.5340  -79.1740  -12.0140 N.pl3 292  ARG292      0.1354
     37  NH2       66.8110  -80.6230  -11.5710 N.pl3 292  ARG292      0.1354
     38  N         74.9900  -68.1980  -10.0380 N.3   405  MET405     -0.1245
     39  CA        74.9150  -68.7620   -8.6970 C.3   405  MET405      0.1570
     40  C         75.7640  -67.9730   -7.7120 C.2   405  MET405      0.2261
     41  O         75.3480  -67.7370   -6.5790 O.2   405  MET405     -0.2867
     42  CB        75.3450  -70.2310   -8.7110 C.3   405  MET405      0.0387
     43  CG        74.4940  -71.1310   -9.5980 C.3   405  MET405      0.0595
     44  SD        72.7720  -71.2890   -9.0700 S.3   405  MET405     -0.1393
     45  CE        71.9640  -69.9850  -10.0050 C.3   405  MET405      0.0692
     46  N         79.1030  -73.7490  -16.1450 N.3   485  MET485     -0.1230
     47  CA        78.2180  -74.6840  -15.4660 C.3   485  MET485      0.1702
     48  C         78.2190  -76.0490  -16.1480 C.2   485  MET485      0.2592
     49  O         78.1590  -77.0820  -15.4800 O.2   485  MET485     -0.2718
     50  CB        76.7970  -74.1280  -15.3960 C.3   485  MET485      0.0401
     51  CG        75.8230  -75.0500  -14.6880 C.3   485  MET485      0.0596
     52  SD        74.5850  -74.1540  -13.7420 S.3   485  MET485     -0.1393
     53  CE        75.6030  -73.4190  -12.4650 C.3   485  MET485      0.0692
     54  N         78.2930  -76.0520  -17.4750 N.am  486  VAL486     -0.1980
     55  CA        78.3620  -77.3070  -18.2190 C.3   486  VAL486      0.1595
     56  C         79.6980  -77.9830  -17.9510 C.2   486  VAL486      0.2287
     57  O         79.7690  -79.2000  -17.7730 O.2   486  VAL486     -0.2864
     58  CB        78.1670  -77.1020  -19.7290 C.3   486  VAL486      0.0276
     59  CG1       78.0810  -78.4480  -20.4310 C.3   486  VAL486      0.0022
     60  CG2       76.9050  -76.3080  -19.9880 C.3   486  VAL486      0.0022
     61  N         79.5830  -79.8080  -14.5580 N.3   489  TRP489     -0.1241
     62  CA        78.8900  -81.0900  -14.6220 C.3   489  TRP489      0.1605
     63  C         79.7160  -82.1340  -15.3770 C.2   489  TRP489      0.2264
     64  O         79.6530  -83.3240  -15.0670 O.2   489  TRP489     -0.2867
     65  CB        77.5130  -80.9210  -15.2710 C.3   489  TRP489      0.0550
     66  CG        76.4730  -80.3990  -14.3210 C.ar  489  TRP489      0.0003
     67  CD1       76.5150  -79.2280  -13.6200 C.ar  489  TRP489      0.0946
     68  CD2       75.2370  -81.0330  -13.9680 C.ar  489  TRP489      0.0152
     69  NE1       75.3830  -79.0940  -12.8520 N.ar  489  TRP489     -0.2442
     70  CE2       74.5820  -80.1890  -13.0480 C.ar  489  TRP489      0.0810
     71  CE3       74.6200  -82.2330  -14.3400 C.ar  489  TRP489      0.0012
     72  CZ2       73.3420  -80.5060  -12.4920 C.ar  489  TRP489      0.0191
     73  CZ3       73.3880  -82.5450  -13.7900 C.ar  489  TRP489      0.0001
     74  CH2       72.7620  -81.6840  -12.8780 C.ar  489  TRP489      0.0015
     75  N         71.1280  -83.6870   -8.7840 N.3   568  SER568     -0.1202
     76  CA        69.7850  -83.7080   -9.3480 C.3   568  SER568      0.2020
     77  C         68.9290  -84.8300   -8.7650 C.2   568  SER568      0.2619
     78  O         69.3160  -85.9990   -8.7920 O.2   568  SER568     -0.2717
     79  CB        69.8650  -83.8490  -10.8670 C.3   568  SER568      0.2103
     80  OG        68.5760  -83.8110  -11.4490 O.3   568  SER568     -0.2182
     81  N         67.7670  -84.4640   -8.2310 N.am  569  GLY569     -0.1956
     82  CA        66.8570  -85.4280   -7.6360 C.3   569  GLY569      0.1869
     83  C         67.4090  -86.0690   -6.3760 C.2   569  GLY569      0.2309
     84  O         66.9760  -87.1490   -5.9730 O.2   569  GLY569     -0.2863
@<TRIPOS>BOND
     1    59    58    1
     2    60    58    1
     3    58    55    1
     4    55    56    1
     5    55    54    1
     6    56    57    2
     7    54    48   am
     8    48    49    2
     9    48    47    1
    10    46    47    1
    11    47    50    1
    12    50    51    1
    13    63    64    2
    14    63    62    1
    15    65    62    1
    16    65    66    1
    17    51    52    1
    18    62    61    1
    19    71    68   ar
    20    71    73   ar
    21    66    68   ar
    22    66    67   ar
    23    68    70   ar
    24    73    74   ar
    25    52    53    1
    26    67    69   ar
    27    70    69   ar
    28    70    72   ar
    29    74    72   ar
    30    36    35    1
    31    37    35    1
    32    35    34    2
    33    80    79    1
    34    34    33    1
    35    79    76    1
    36    33    32    1
    37    25    24   ar
    38    26    24   ar
    39    32    31    1
    40    24    23    1
    41    38    39    1
    42    45    44    1
    43    43    44    1
    44    43    42    1
    45    76    75    1
    46    76    77    1
    47     7     8    1
    48     7     6    1
    49    18    16   ar
    50    18    17   ar
    51    23    20    1
    52    31    28    1
    53    78    77    2
    54    77    81   am
    55    42    39    1
    56    39    40    1
    57    16    14   ar
    58    19    20    1
    59    27    28    1
    60    27    21   am
    61    81    82    1
    62    28    29    1
    63    17    15   ar
    64    20    21    1
    65    21    22    2
    66    40    41    2
    67    82    83    1
    68     6     5    1
    69    14    15   ar
    70    14    13    1
    71     5     2    1
    72    29    30    2
    73    83    84    2
    74    13    10    1
    75     2     3    1
    76     2     1    1
    77     9     3   am
    78     9    10    1
    79     3     4    2
    80    10    11    1
    81    11    12    2
