@<TRIPOS>MOLECULE
tmp/5wj9B00.pdb
 100 95 0 0 0
SMALL
GASTEIGER

@<TRIPOS>ATOM
      1  N        149.0490  168.1030  130.7000 N.3   382  CYS382     -0.1235
      2  CA       149.2160  168.3370  132.1420 C.3   382  CYS382      0.1677
      3  C        148.3890  169.5080  132.6950 C.2   382  CYS382      0.2270
      4  O        147.8940  169.4280  133.8220 O.2   382  CYS382     -0.2867
      5  CB       150.7040  168.5480  132.4590 C.3   382  CYS382      0.0956
      6  SG       151.0930  169.0330  134.1510 S.3   382  CYS382     -0.0801
      7  N        144.6380  168.3760  133.1660 N.3   385  VAL385     -0.1231
      8  CA       144.5990  167.3990  134.2580 C.3   385  VAL385      0.1692
      9  C        144.8540  168.0830  135.6060 C.2   385  VAL385      0.2591
     10  O        144.1950  167.7540  136.5860 O.2   385  VAL385     -0.2718
     11  CB       145.6140  166.2490  134.0360 C.3   385  VAL385      0.0266
     12  CG1      145.6580  165.3090  135.2370 C.3   385  VAL385      0.0020
     13  CG2      145.2660  165.4710  132.7740 C.3   385  VAL385      0.0020
     14  N        145.8100  169.0150  135.6500 N.am  386  ALA386     -0.1980
     15  CA       146.0880  169.8110  136.8590 C.3   386  ALA386      0.1597
     16  C        144.9060  170.7080  137.2370 C.2   386  ALA386      0.2287
     17  O        144.6030  170.8940  138.4180 O.2   386  ALA386     -0.2864
     18  CB       147.3370  170.6580  136.6620 C.3   386  ALA386      0.0319
     19  N        142.6530  168.4430  138.8100 N.3   389  TYR389     -0.1227
     20  CA       143.3430  168.0910  140.0530 C.3   389  TYR389      0.1736
     21  C        143.0940  169.1080  141.1600 C.2   389  TYR389      0.2595
     22  O        142.6880  168.7280  142.2500 O.2   389  TYR389     -0.2718
     23  CB       144.8510  167.9520  139.8190 C.3   389  TYR389      0.0548
     24  CG       145.5960  167.3870  140.9960 C.ar  389  TYR389     -0.0200
     25  CD1      145.6070  166.0170  141.2380 C.ar  389  TYR389     -0.0009
     26  CD2      146.2790  168.2170  141.8800 C.ar  389  TYR389     -0.0009
     27  CE1      146.2900  165.4830  142.3110 C.ar  389  TYR389      0.0417
     28  CE2      146.9660  167.6940  142.9630 C.ar  389  TYR389      0.0417
     29  CZ       146.9620  166.3250  143.1710 C.ar  389  TYR389      0.1957
     30  OH       147.6340  165.7830  144.2280 O.3   389  TYR389     -0.2866
     31  N        143.3300  170.3880  140.8630 N.am  390  LEU390     -0.1980
     32  CA       143.1070  171.4830  141.8250 C.3   390  LEU390      0.1596
     33  C        141.6500  171.6120  142.2680 C.2   390  LEU390      0.2287
     34  O        141.3820  172.0550  143.3860 O.2   390  LEU390     -0.2864
     35  CB       143.5740  172.8210  141.2440 C.3   390  LEU390      0.0297
     36  CG       145.0810  172.9700  141.0550 C.3   390  LEU390      0.0022
     37  CD1      145.3760  174.1410  140.1320 C.3   390  LEU390      0.0001
     38  CD2      145.7900  173.1350  142.3930 C.3   390  LEU390      0.0001
     39  N        147.2690  167.2410  148.2510 N.3   414  SER414     -0.1217
     40  CA       148.0770  167.0820  147.0440 C.3   414  SER414      0.1889
     41  C        149.0140  165.8690  147.1100 C.2   414  SER414      0.2288
     42  O        149.4030  165.3390  146.0720 O.2   414  SER414     -0.2866
     43  CB       148.8850  168.3440  146.7500 C.3   414  SER414      0.2089
     44  OG       149.4380  168.2840  145.4480 O.3   414  SER414     -0.2183
     45  N        147.7770  162.4500  144.8640 N.3   418  PHE418     -0.1241
     46  CA       148.8520  161.9750  143.9980 C.3   418  PHE418      0.1605
     47  C        149.1900  160.5170  144.2740 C.2   418  PHE418      0.2264
     48  O        149.4400  159.7570  143.3400 O.2   418  PHE418     -0.2867
     49  CB       150.0920  162.8490  144.1690 C.3   418  PHE418      0.0534
     50  CG       151.1830  162.5740  143.1760 C.ar  418  PHE418     -0.0203
     51  CD1      150.8990  162.3760  141.8290 C.ar  418  PHE418     -0.0042
     52  CD2      152.5070  162.5470  143.5810 C.ar  418  PHE418     -0.0042
     53  CE1      151.9100  162.1420  140.9120 C.ar  418  PHE418     -0.0003
     54  CE2      153.5260  162.3190  142.6670 C.ar  418  PHE418     -0.0003
     55  CZ       153.2260  162.1200  141.3290 C.ar  418  PHE418     -0.0000
     56  N        146.3470  158.3550  142.5660 N.3   421  ILE421     -0.1245
     57  CA       146.4370  158.0960  141.1110 C.3   421  ILE421      0.1561
     58  C        147.4870  157.0550  140.6850 C.2   421  ILE421      0.2260
     59  O        147.5290  156.6740  139.5140 O.2   421  ILE421     -0.2867
     60  CB       146.6050  159.3860  140.2640 C.3   421  ILE421      0.0252
     61  CG1      147.9300  160.1030  140.5350 C.3   421  ILE421      0.0019
     62  CG2      145.4460  160.3310  140.5120 C.3   421  ILE421      0.0019
     63  CD1      148.2580  161.1440  139.4880 C.3   421  ILE421      0.0001
     64  N        141.3180  159.6020  136.9790 N.3   458  PHE458     -0.1241
     65  CA       142.7700  159.7090  136.7850 C.3   458  PHE458      0.1605
     66  C        143.5270  158.3930  136.5780 C.2   458  PHE458      0.2264
     67  O        144.3990  158.3450  135.7010 O.2   458  PHE458     -0.2867
     68  CB       143.4160  160.5770  137.8780 C.3   458  PHE458      0.0534
     69  CG       143.1580  162.0650  137.7300 C.ar  458  PHE458     -0.0203
     70  CD1      142.4890  162.5990  136.6230 C.ar  458  PHE458     -0.0042
     71  CD2      143.6260  162.9460  138.6930 C.ar  458  PHE458     -0.0042
     72  CE1      142.2720  163.9600  136.5080 C.ar  458  PHE458     -0.0003
     73  CE2      143.4140  164.3090  138.5730 C.ar  458  PHE458     -0.0003
     74  CZ       142.7360  164.8160  137.4850 C.ar  458  PHE458     -0.0000
     75  N        142.4950  159.2460  132.4970 N.3   462  VAL462     -0.1231
     76  CA       143.4950  160.3160  132.3050 C.3   462  VAL462      0.1692
     77  C        144.9320  159.7850  132.2080 C.2   462  VAL462      0.2591
     78  O        145.6800  160.2210  131.3310 O.2   462  VAL462     -0.2718
     79  CB       143.3510  161.4010  133.4070 C.3   462  VAL462      0.0266
     80  CG1      144.6180  162.2350  133.6050 C.3   462  VAL462      0.0020
     81  CG2      142.1530  162.2940  133.1090 C.3   462  VAL462      0.0020
     82  N        145.3230  158.8770  133.1060 N.am  463  LEU463     -0.1980
     83  CA       146.6610  158.2540  133.0520 C.3   463  LEU463      0.1596
     84  C        146.9360  157.6100  131.6880 C.2   463  LEU463      0.2287
     85  O        148.0110  157.8060  131.1160 O.2   463  LEU463     -0.2864
     86  CB       146.8370  157.2280  134.1820 C.3   463  LEU463      0.0297
     87  CG       148.0700  156.3080  134.1920 C.3   463  LEU463      0.0022
     88  CD1      148.5930  156.1130  135.6070 C.3   463  LEU463      0.0001
     89  CD2      147.7810  154.9540  133.5520 C.3   463  LEU463      0.0001
     90  N        148.2860  159.8720  129.2390 N.3   466  PHE466     -0.1241
     91  CA       149.6850  160.1820  129.5890 C.3   466  PHE466      0.1605
     92  C        150.6440  159.0470  129.1950 C.2   466  PHE466      0.2264
     93  O        151.7630  159.3040  128.7440 O.2   466  PHE466     -0.2867
     94  CB       149.8180  160.4970  131.0890 C.3   466  PHE466      0.0534
     95  CG       150.9870  161.3850  131.4240 C.ar  466  PHE466     -0.0203
     96  CD1      152.2820  160.8770  131.4590 C.ar  466  PHE466     -0.0042
     97  CD2      150.7950  162.7340  131.7060 C.ar  466  PHE466     -0.0042
     98  CE1      153.3620  161.6950  131.7620 C.ar  466  PHE466     -0.0003
     99  CE2      151.8720  163.5560  132.0140 C.ar  466  PHE466     -0.0003
    100  CZ       153.1570  163.0360  132.0430 C.ar  466  PHE466     -0.0000
@<TRIPOS>BOND
     1    93    92    2
     2    92    91    1
     3    90    91    1
     4    91    94    1
     5     1     2    1
     6    94    95    1
     7    85    84    2
     8    78    77    2
     9    95    96   ar
    10    95    97   ar
    11    96    98   ar
    12    84    83    1
    13    97    99   ar
    14    98   100   ar
    15    99   100   ar
    16     2     5    1
    17     2     3    1
    18    77    76    1
    19    77    82   am
    20    76    75    1
    21    76    79    1
    22     5     6    1
    23     3     4    2
    24    13    11    1
    25    83    82    1
    26    83    86    1
    27    81    79    1
    28     7     8    1
    29    79    80    1
    30    89    87    1
    31    11     8    1
    32    11    12    1
    33    86    87    1
    34    87    88    1
    35     8     9    1
    36     9    14   am
    37     9    10    2
    38    14    15    1
    39    67    66    2
    40    72    70   ar
    41    72    74   ar
    42    66    65    1
    43    70    69   ar
    44    18    15    1
    45    65    64    1
    46    65    68    1
    47    15    16    1
    48    16    17    2
    49    74    73   ar
    50    69    68    1
    51    69    71   ar
    52    73    71   ar
    53    19    20    1
    54    63    61    1
    55    59    58    2
    56    23    20    1
    57    23    24    1
    58    20    21    1
    59    37    36    1
    60    60    62    1
    61    60    61    1
    62    60    57    1
    63    58    57    1
    64    31    21   am
    65    31    32    1
    66    53    55   ar
    67    53    51   ar
    68    24    25   ar
    69    24    26   ar
    70    36    35    1
    71    36    38    1
    72    57    56    1
    73    21    22    2
    74    25    27   ar
    75    35    32    1
    76    55    54   ar
    77    32    33    1
    78    51    50   ar
    79    26    28   ar
    80    33    34    2
    81    27    29   ar
    82    54    52   ar
    83    28    29   ar
    84    29    30    1
    85    50    52   ar
    86    50    49    1
    87    48    47    2
    88    46    49    1
    89    46    47    1
    90    46    45    1
    91    44    43    1
    92    42    41    2
    93    43    40    1
    94    40    41    1
    95    40    39    1
