@<TRIPOS>MOLECULE
tmp/5wjjA00.pdb
 170 161 0 0 0
SMALL
GASTEIGER

@<TRIPOS>ATOM
      1  N          9.9360  -10.8620    3.6170 N.3    26  VAL26      -0.1245
      2  CA         9.9240   -9.4070    3.7350 C.3    26  VAL26       0.1561
      3  C          9.4500   -8.8260    2.4050 C.2    26  VAL26       0.2260
      4  O          8.5440   -7.9910    2.3580 O.2    26  VAL26      -0.2867
      5  CB        11.3160   -8.8580    4.1090 C.3    26  VAL26       0.0252
      6  CG1       11.3840   -7.3470    3.9360 C.3    26  VAL26       0.0019
      7  CG2       11.6750   -9.2400    5.5370 C.3    26  VAL26       0.0019
      8  N         15.1640   -6.8100   -7.4150 N.3    31  TYR31      -0.1241
      9  CA        16.3200   -7.0170   -6.5200 C.3    31  TYR31       0.1605
     10  C         16.6190   -8.4460   -6.0690 C.2    31  TYR31       0.2264
     11  O         17.6540   -8.6630   -5.4120 O.2    31  TYR31      -0.2867
     12  CB        16.1850   -6.1460   -5.2500 C.3    31  TYR31       0.0534
     13  CG        14.9160   -6.3100   -4.4150 C.ar   31  TYR31      -0.0201
     14  CD1       14.8000   -7.3120   -3.4190 C.ar   31  TYR31      -0.0009
     15  CD2       13.8430   -5.4270   -4.5770 C.ar   31  TYR31      -0.0009
     16  CE1       13.6360   -7.4260   -2.6540 C.ar   31  TYR31       0.0417
     17  CE2       12.6840   -5.5420   -3.8160 C.ar   31  TYR31       0.0417
     18  CZ        12.5790   -6.5400   -2.8590 C.ar   31  TYR31       0.1957
     19  OH        11.3980   -6.6030   -2.1240 O.3    31  TYR31      -0.2866
     20  N         13.9400  -10.9510   -0.2040 N.3    34  VAL34      -0.1245
     21  CA        14.4420  -10.6960    1.1400 C.3    34  VAL34       0.1561
     22  C         13.5510  -11.3840    2.1460 C.2    34  VAL34       0.2260
     23  O         12.3160  -11.3480    2.0260 O.2    34  VAL34      -0.2867
     24  CB        14.4910   -9.1910    1.4760 C.3    34  VAL34       0.0252
     25  CG1       14.9930   -8.9550    2.9100 C.3    34  VAL34       0.0019
     26  CG2       15.3750   -8.4710    0.4850 C.3    34  VAL34       0.0019
     27  N         13.2970  -12.0650    6.5890 N.3    36  ALA36      -0.1245
     28  CA        13.7800  -11.7610    7.9080 C.3    36  ALA36       0.1562
     29  C         14.1740  -13.0870    8.5480 C.2    36  ALA36       0.2260
     30  O         13.5900  -14.1390    8.2420 O.2    36  ALA36      -0.2867
     31  CB        12.7040  -11.0730    8.7140 C.3    36  ALA36       0.0290
     32  N         18.0890   -9.8600   14.9380 N.3    45  ARG45      -0.1245
     33  CA        17.1350  -10.0200   13.8550 C.3    45  ARG45       0.1563
     34  C         17.8050   -9.4920   12.6070 C.2    45  ARG45       0.2260
     35  O         18.3200   -8.3930   12.6140 O.2    45  ARG45      -0.2867
     36  CB        15.8390   -9.2390   14.1080 C.3    45  ARG45       0.0307
     37  CG        15.0440   -9.6980   15.3280 C.3    45  ARG45       0.0489
     38  CD        13.5370   -9.6710   15.0540 C.3    45  ARG45       0.2205
     39  NE        13.2130  -10.6460   14.0070 N.pl3  45  ARG45      -0.0865
     40  CZ        12.1440  -10.6410   13.1990 C.cat  45  ARG45       0.5346
     41  NH1       12.0340  -11.6010   12.2710 N.pl3  45  ARG45       0.1354
     42  NH2       11.1980   -9.7040   13.2780 N.pl3  45  ARG45       0.1354
     43  N         18.0320   -9.3080    8.0820 N.3    47  ALA47      -0.1245
     44  CA        17.4640   -9.4690    6.7600 C.3    47  ALA47       0.1562
     45  C         18.4670  -10.2260    5.9160 C.2    47  ALA47       0.2260
     46  O         19.6710   -9.9290    5.9550 O.2    47  ALA47      -0.2867
     47  CB        17.1850   -8.1250    6.1360 C.3    47  ALA47       0.0290
     48  N         19.0920  -11.3520    1.9600 N.3    49  LYS49      -0.1245
     49  CA        18.6980  -11.1270    0.5770 C.3    49  LYS49       0.1561
     50  C         19.2830  -12.1960   -0.2980 C.2    49  LYS49       0.2260
     51  O         20.4910  -12.3960   -0.2890 O.2    49  LYS49      -0.2867
     52  CB        19.1880   -9.7840    0.0810 C.3    49  LYS49       0.0271
     53  CG        18.8920   -9.5720   -1.3960 C.3    49  LYS49       0.0035
     54  CD        18.7500   -8.1050   -1.7340 C.3    49  LYS49       0.0206
     55  CE        20.0020   -7.3120   -1.4840 C.3    49  LYS49       0.1093
     56  NZ        19.7130   -5.8690   -1.7490 N.3    49  LYS49      -0.1314
     57  N         29.2980   -3.1400   -0.5950 N.3    71  LEU71      -0.1245
     58  CA        28.7840   -3.5130    0.7260 C.3    71  LEU71       0.1561
     59  C         29.9010   -3.9080    1.6560 C.2    71  LEU71       0.2260
     60  O         29.8890   -3.5350    2.8370 O.2    71  LEU71      -0.2867
     61  CB        27.7700   -4.6410    0.5960 C.3    71  LEU71       0.0270
     62  CG        26.3560   -4.2210    0.2430 C.3    71  LEU71       0.0019
     63  CD1       25.5580   -5.4350   -0.2050 C.3    71  LEU71       0.0001
     64  CD2       25.6810   -3.5130    1.4120 C.3    71  LEU71       0.0001
     65  N         24.4380    1.4110    5.3550 N.3    80  ILE80      -0.1245
     66  CA        24.1550   -0.0200    5.3450 C.3    80  ILE80       0.1561
     67  C         25.4310   -0.7920    5.0600 C.2    80  ILE80       0.2260
     68  O         26.1920   -0.4340    4.1560 O.2    80  ILE80      -0.2867
     69  CB        23.0730   -0.4140    4.2960 C.3    80  ILE80       0.0252
     70  CG1       22.6790   -1.8890    4.4600 C.3    80  ILE80       0.0019
     71  CG2       23.5200   -0.1500    2.8660 C.3    80  ILE80       0.0019
     72  CD1       21.9510   -2.1290    5.7410 C.3    80  ILE80       0.0001
     73  N         27.3640   -5.0410    5.7380 N.3    82  LEU82      -0.1245
     74  CA        27.1380   -6.4840    5.7510 C.3    82  LEU82       0.1561
     75  C         27.4670   -7.0850    7.0790 C.2    82  LEU82       0.2260
     76  O         28.5440   -6.8450    7.6220 O.2    82  LEU82      -0.2867
     77  CB        28.0440   -7.1740    4.7490 C.3    82  LEU82       0.0270
     78  CG        27.5780   -7.2180    3.3190 C.3    82  LEU82       0.0019
     79  CD1       28.6780   -7.8900    2.5130 C.3    82  LEU82       0.0001
     80  CD2       26.2510   -7.9480    3.1750 C.3    82  LEU82       0.0001
     81  N         23.0650  -12.1500    0.9600 N.3   100  LEU100     -0.1231
     82  CA        23.6230  -11.0700    1.7580 C.3   100  LEU100      0.1693
     83  C         22.8250  -10.9280    3.0350 C.2   100  LEU100      0.2592
     84  O         21.6070  -11.0370    3.0010 O.2   100  LEU100     -0.2718
     85  CB        23.5390   -9.7730    0.9610 C.3   100  LEU100      0.0284
     86  CG        24.2320   -9.7980   -0.4020 C.3   100  LEU100      0.0019
     87  CD1       24.0030   -8.4810   -1.1350 C.3   100  LEU100      0.0001
     88  CD2       25.7070  -10.1370   -0.3180 C.3   100  LEU100      0.0001
     89  N         23.5110  -10.6660    4.1410 N.am  101  VAL101     -0.1966
     90  CA        22.8590  -10.4990    5.4510 C.3   101  VAL101      0.1727
     91  C         23.1850   -9.1340    6.0390 C.2   101  VAL101      0.2617
     92  O         24.3360   -8.7290    6.0670 O.2   101  VAL101     -0.2715
     93  CB        23.2950  -11.6040    6.4380 C.3   101  VAL101      0.0290
     94  CG1       22.5190  -11.4990    7.7440 C.3   101  VAL101      0.0023
     95  CG2       23.1210  -12.9830    5.8200 C.3   101  VAL101      0.0023
     96  N         22.1680   -8.4450    6.5430 N.am  102  THR102     -0.1937
     97  CA        22.3880   -7.1990    7.2800 C.3   102  THR102      0.2028
     98  C         21.3580   -7.1350    8.4020 C.2   102  THR102      0.2642
     99  O         20.5050   -8.0040    8.5250 O.2   102  THR102     -0.2714
    100  CB        22.2960   -5.9810    6.3330 C.3   102  THR102      0.1808
    101  OG1       22.8380   -4.8050    6.9620 O.3   102  THR102     -0.2208
    102  CG2       20.8510   -5.7210    5.9010 C.3   102  THR102      0.0379
    103  N         21.4440   -6.0980    9.2160 N.am  103  HIS103     -0.1959
    104  CA        20.4470   -5.9150   10.2840 C.3   103  HIS103      0.1787
    105  C         19.0650   -5.7440    9.6880 C.2   103  HIS103      0.2620
    106  O         18.8980   -5.0580    8.6870 O.2   103  HIS103     -0.2715
    107  CB        20.7250   -4.6620   11.0970 C.3   103  HIS103      0.0785
    108  CG        22.0210   -4.7000   11.8250 C.ar  103  HIS103      0.0821
    109  ND1       22.1330   -5.2150   13.0920 N.ar  103  HIS103     -0.2267
    110  CD2       23.2610   -4.2900   11.4680 C.ar  103  HIS103      0.1154
    111  CE1       23.3880   -5.1040   13.4960 C.ar  103  HIS103      0.1986
    112  NE2       24.0900   -4.5390   12.5330 N.ar  103  HIS103     -0.2212
    113  N         18.0660   -6.3350   10.3240 N.am  104  LEU104     -0.1963
    114  CA        16.7000   -6.1610    9.8640 C.3   104  LEU104      0.1728
    115  C         16.2840   -4.7290   10.2010 C.2   104  LEU104      0.2616
    116  O         16.4630   -4.2790   11.3480 O.2   104  LEU104     -0.2715
    117  CB        15.7920   -7.1530   10.5690 C.3   104  LEU104      0.0311
    118  CG        14.3470   -7.1550   10.1230 C.3   104  LEU104      0.0022
    119  CD1       14.2180   -7.5500    8.6580 C.3   104  LEU104      0.0001
    120  CD2       13.5570   -8.0890   11.0210 C.3   104  LEU104      0.0001
    121  N         15.7350   -4.0230    9.2180 N.am  105  MET105     -0.1963
    122  CA        15.2720   -2.6610    9.4190 C.3   105  MET105      0.1736
    123  C         13.7920   -2.6160    9.1420 C.2   105  MET105      0.2617
    124  O         13.3120   -3.2530    8.2220 O.2   105  MET105     -0.2715
    125  CB        16.0440   -1.7020    8.5320 C.3   105  MET105      0.0427
    126  CG        17.5270   -1.7110    8.8570 C.3   105  MET105      0.0599
    127  SD        18.5220   -0.7960    7.7090 S.3   105  MET105     -0.1393
    128  CE        18.4570   -1.8290    6.2580 C.3   105  MET105      0.0692
    129  N         13.0670   -1.8960    9.9740 N.am  106  GLY106     -0.1955
    130  CA        11.6140   -1.9310    9.9620 C.3   106  GLY106      0.1869
    131  C         10.9470   -0.6190    9.6370 C.2   106  GLY106      0.2309
    132  O          9.7280   -0.5700    9.5520 O.2   106  GLY106     -0.2863
    133  N         18.4750    1.2790   -1.4320 N.3   165  PHE165     -0.1227
    134  CA        17.2130    0.6430   -1.7740 C.3   165  PHE165      0.1736
    135  C         16.1620    1.1390   -0.7980 C.2   165  PHE165      0.2596
    136  O         16.4980    1.7110    0.2320 O.2   165  PHE165     -0.2718
    137  CB        17.3310   -0.8830   -1.6600 C.3   165  PHE165      0.0547
    138  CG        17.8470   -1.3510   -0.3220 C.ar  165  PHE165     -0.0202
    139  CD1       19.2000   -1.4930   -0.1050 C.ar  165  PHE165     -0.0042
    140  CD2       16.9700   -1.6560    0.7170 C.ar  165  PHE165     -0.0042
    141  CE1       19.6930   -1.9150    1.1200 C.ar  165  PHE165     -0.0003
    142  CE2       17.4450   -2.0820    1.9420 C.ar  165  PHE165     -0.0003
    143  CZ        18.8110   -2.2030    2.1470 C.ar  165  PHE165     -0.0000
    144  N         14.9020    0.9370   -1.1500 N.am  166  GLY166     -0.1942
    145  CA        13.7870    1.2010   -0.2430 C.3   166  GLY166      0.2014
    146  C         13.4020   -0.0830    0.4460 C.2   166  GLY166      0.2639
    147  O         13.5270   -1.1530   -0.1330 O.2   166  GLY166     -0.2714
    148  N         12.9040    0.0200    1.6740 N.am  167  LEU167     -0.1963
    149  CA        12.4330   -1.1680    2.3960 C.3   167  LEU167      0.1728
    150  C         11.1580   -1.7020    1.7310 C.2   167  LEU167      0.2616
    151  O         10.4680   -0.9660    1.0260 O.2   167  LEU167     -0.2715
    152  CB        12.1690   -0.8120    3.8600 C.3   167  LEU167      0.0311
    153  CG        13.3580   -0.2680    4.6540 C.3   167  LEU167      0.0022
    154  CD1       12.9060    0.1150    6.0540 C.3   167  LEU167      0.0001
    155  CD2       14.4800   -1.2940    4.6960 C.3   167  LEU167      0.0001
    156  N         10.8550   -2.9840    1.9340 N.am  168  ALA168     -0.1977
    157  CA         9.6840   -3.6030    1.3120 C.3   168  ALA168      0.1597
    158  C          8.4150   -3.1130    1.9830 C.2   168  ALA168      0.2287
    159  O          8.3390   -3.0900    3.2000 O.2   168  ALA168     -0.2864
    160  CB         9.7620   -5.1180    1.4260 C.3   168  ALA168      0.0319
    161  N          4.6220   -3.4700    3.2460 N.3   170  HIS170     -0.1241
    162  CA         3.7260   -4.5530    3.6720 C.3   170  HIS170      0.1621
    163  C          2.6620   -4.8100    2.6070 C.2   170  HIS170      0.2264
    164  O          2.1330   -3.8660    2.0190 O.2   170  HIS170     -0.2867
    165  CB         3.0400   -4.2060    4.9960 C.3   170  HIS170      0.0745
    166  CG         3.9140   -4.3930    6.1950 C.ar  170  HIS170      0.0817
    167  ND1        3.4060   -4.6380    7.4510 N.ar  170  HIS170     -0.2268
    168  CD2        5.2620   -4.4010    6.3250 C.ar  170  HIS170      0.1154
    169  CE1        4.4010   -4.7690    8.3090 C.ar  170  HIS170      0.1986
    170  NE2        5.5380   -4.6340    7.6510 N.ar  170  HIS170     -0.2212
@<TRIPOS>BOND
     1     8     9    1
     2     9    10    1
     3     9    12    1
     4    10    11    2
     5    12    13    1
     6    15    13   ar
     7    15    17   ar
     8    13    14   ar
     9    17    18   ar
    10    14    16   ar
    11    18    16   ar
    12    18    19    1
    13   134   137    1
    14   134   133    1
    15   134   135    1
    16    56    55    1
    17    54    55    1
    18    54    53    1
    19   137   138    1
    20    53    52    1
    21   144   135   am
    22   144   145    1
    23    87    86    1
    24   135   136    2
    25    57    58    1
    26    86    88    1
    27    86    85    1
    28   138   139   ar
    29   138   140   ar
    30    50    51    2
    31    50    49    1
    32   145   146    1
    33    63    62    1
    34    20    21    1
    35   147   146    2
    36   139   141   ar
    37    52    49    1
    38    62    61    1
    39    62    64    1
    40   146   148   am
    41    26    24    1
    42    49    48    1
    43    61    58    1
    44   140   142   ar
    45    58    59    1
    46    81    82    1
    47    85    82    1
    48   151   150    2
    49   141   143   ar
    50    21    24    1
    51    21    22    1
    52   157   160    1
    53   157   156    1
    54   157   158    1
    55    24    25    1
    56    59    60    2
    57   148   149    1
    58   150   156   am
    59   150   149    1
    60    82    83    1
    61   142   143   ar
    62   158   159    2
    63   164   163    2
    64    23    22    2
    65     4     3    2
    66   149   152    1
    67     3     2    1
    68    79    78    1
    69   163   162    1
    70    71    69    1
    71    84    83    2
    72    83    89   am
    73    80    78    1
    74   161   162    1
    75    78    77    1
    76     1     2    1
    77   162   165    1
    78     2     5    1
    79   152   153    1
    80     6     5    1
    81     5     7    1
    82    89    90    1
    83    68    67    2
    84    69    70    1
    85    69    66    1
    86    70    72    1
    87   153   155    1
    88   153   154    1
    89    77    74    1
    90   165   166    1
    91    67    66    1
    92    66    65    1
    93    90    91    1
    94    90    93    1
    95    73    74    1
    96    74    75    1
    97    95    93    1
    98   102   100    1
    99    45    46    2
   100    45    44    1
   101    91    92    2
   102    91    96   am
   103    47    44    1
   104   166   168   ar
   105   166   167   ar
   106   128   127    1
   107   168   170   ar
   108   100   101    1
   109   100    97    1
   110    93    94    1
   111    96    97    1
   112    27    28    1
   113    44    43    1
   114    75    76    2
   115    97    98    1
   116   167   169   ar
   117   170   169   ar
   118   127   126    1
   119    28    29    1
   120    28    31    1
   121   124   123    2
   122    30    29    2
   123    98    99    2
   124    98   103   am
   125   125   126    1
   126   125   122    1
   127   119   118    1
   128   106   105    2
   129   123   122    1
   130   123   129   am
   131   103   104    1
   132   121   122    1
   133   121   115   am
   134   132   131    2
   135   131   130    1
   136   105   104    1
   137   105   113   am
   138   114   115    1
   139   114   113    1
   140   114   117    1
   141   130   129    1
   142   118   117    1
   143   118   120    1
   144   115   116    2
   145   104   107    1
   146   107   108    1
   147   110   108   ar
   148   110   112   ar
   149   108   109   ar
   150    41    40    1
   151   112   111   ar
   152    34    35    2
   153    34    33    1
   154   109   111   ar
   155    40    42    1
   156    40    39    2
   157    33    36    1
   158    33    32    1
   159    39    38    1
   160    36    37    1
   161    38    37    1
