@<TRIPOS>MOLECULE
tmp/5wk2B00.pdb
 97 100 0 0 0
SMALL
GASTEIGER

@<TRIPOS>ATOM
      1  N         27.3300  -14.2550  -14.2210 N.3    32  TYR32      -0.1227
      2  CA        26.3040  -13.7600  -13.2960 C.3    32  TYR32       0.1736
      3  C         26.9330  -13.2420  -12.0180 C.2    32  TYR32       0.2595
      4  O         27.9210  -13.7900  -11.5170 O.2    32  TYR32      -0.2718
      5  CB        25.3230  -14.8730  -12.9070 C.3    32  TYR32       0.0548
      6  CG        24.5520  -15.5260  -14.0480 C.ar   32  TYR32      -0.0200
      7  CD1       25.1850  -16.4420  -14.8970 C.ar   32  TYR32      -0.0009
      8  CD2       23.2030  -15.2240  -14.2680 C.ar   32  TYR32      -0.0009
      9  CE1       24.4780  -17.0410  -15.9440 C.ar   32  TYR32       0.0417
     10  CE2       22.4920  -15.8160  -15.3070 C.ar   32  TYR32       0.0417
     11  CZ        23.1410  -16.7220  -16.1380 C.ar   32  TYR32       0.1957
     12  OH        22.4350  -17.3080  -17.1680 O.3    32  TYR32      -0.2866
     13  N         26.3560  -12.1710  -11.4800 N.am   33  TRP33      -0.1976
     14  CA        26.7950  -11.6640  -10.1920 C.3    33  TRP33       0.1640
     15  C         26.3360  -12.6010   -9.0500 C.2    33  TRP33       0.2290
     16  O         25.3130  -13.2850   -9.1700 O.2    33  TRP33      -0.2864
     17  CB        26.2510  -10.2510   -9.9460 C.3    33  TRP33       0.0576
     18  CG        26.7740   -9.1370  -10.8480 C.ar   33  TRP33       0.0006
     19  CD1       26.5900   -9.0150  -12.2030 C.ar   33  TRP33       0.0946
     20  CD2       27.5540   -8.0050  -10.4440 C.ar   33  TRP33       0.0152
     21  NE1       27.2160   -7.8680  -12.6620 N.ar   33  TRP33      -0.2442
     22  CE2       27.8130   -7.2340  -11.6020 C.ar   33  TRP33       0.0810
     23  CE3       28.0650   -7.5620   -9.2160 C.ar   33  TRP33       0.0012
     24  CZ2       28.5570   -6.0500  -11.5600 C.ar   33  TRP33       0.0191
     25  CZ3       28.8060   -6.3810   -9.1790 C.ar   33  TRP33       0.0001
     26  CH2       29.0430   -5.6420  -10.3450 C.ar   33  TRP33       0.0015
     27  N         30.3860   -4.6550   -4.9020 N.3    59  ARG59      -0.1245
     28  CA        29.5570   -3.5830   -4.3440 C.3    59  ARG59       0.1563
     29  C         29.0550   -4.0030   -2.9710 C.2    59  ARG59       0.2260
     30  O         28.4030   -5.0280   -2.8480 O.2    59  ARG59      -0.2867
     31  CB        28.3390   -3.2750   -5.2260 C.3    59  ARG59       0.0307
     32  CG        28.5790   -3.2640   -6.7370 C.3    59  ARG59       0.0489
     33  CD        29.4400   -2.0860   -7.2190 C.3    59  ARG59       0.2205
     34  NE        29.7170   -2.2240   -8.6520 N.pl3  59  ARG59      -0.0865
     35  CZ        28.9660   -1.7100   -9.6310 C.cat  59  ARG59       0.5346
     36  NH1       27.8700   -1.0060   -9.3530 N.pl3  59  ARG59       0.1354
     37  NH2       29.3190   -1.9040  -10.8950 N.pl3  59  ARG59       0.1354
     38  N         22.4730  -13.4780   -8.8250 N.3    99  VAL99      -0.1231
     39  CA        21.6470  -12.4540   -9.4700 C.3    99  VAL99       0.1692
     40  C         21.2520  -12.9610  -10.8610 C.2    99  VAL99       0.2593
     41  O         22.1100  -13.4040  -11.6400 O.2    99  VAL99      -0.2718
     42  CB        22.3910  -11.1040   -9.5650 C.3    99  VAL99       0.0266
     43  CG1       21.5140  -10.0610  -10.2710 C.3    99  VAL99       0.0020
     44  CG2       22.8220  -10.6130   -8.1690 C.3    99  VAL99       0.0020
     45  N         19.9620  -12.8910  -11.1570 N.am  100  GLY100     -0.1943
     46  CA        19.4430  -13.3490  -12.4490 C.3   100  GLY100      0.1998
     47  C         19.9690  -12.5770  -13.6450 C.2   100  GLY100      0.2481
     48  O         20.6860  -11.5790  -13.5070 O.2   100  GLY100     -0.2729
     49  N         19.6150  -13.0390  -14.8510 N.am  101  PRO101     -0.2715
     50  CA        20.1770  -12.4960  -16.0950 C.3   101  PRO101      0.1536
     51  C         19.6720  -11.1420  -16.6310 C.2   101  PRO101      0.2598
     52  O         20.2300  -10.6610  -17.6290 O.2   101  PRO101     -0.2715
     53  CB        19.8620  -13.6010  -17.1080 C.3   101  PRO101      0.0310
     54  CG        18.5860  -14.1770  -16.6240 C.3   101  PRO101      0.0237
     55  CD        18.6680  -14.1390  -15.1070 C.3   101  PRO101      0.0939
     56  N         18.6600  -10.5310  -16.0150 N.am  102  ALA102     -0.1964
     57  CA        18.1010   -9.2600  -16.5430 C.3   102  ALA102      0.1728
     58  C         19.1750   -8.1900  -16.8340 C.2   102  ALA102      0.2616
     59  O         20.2440   -8.1870  -16.2160 O.2   102  ALA102     -0.2715
     60  CB        17.0240   -8.7090  -15.6280 C.3   102  ALA102      0.0334
     61  N         18.8880   -7.2880  -17.7750 N.am  103  ASP103     -0.1957
     62  CA        19.9230   -6.3800  -18.3190 C.3   103  ASP103      0.1840
     63  C         20.4080   -5.2570  -17.3910 C.2   103  ASP103      0.2622
     64  O         21.4900   -4.7110  -17.6180 O.2   103  ASP103     -0.2715
     65  CB        19.4830   -5.7770  -19.6610 C.3   103  ASP103      0.1450
     66  CG        19.5400   -6.7740  -20.8170 C.2   103  ASP103      0.3671
     67  OD1       20.4780   -7.6070  -20.8790 O.co2 103  ASP103     -0.2456
     68  OD2       18.6320   -6.7180  -21.6750 O.co2 103  ASP103     -0.2456
     69  N         19.6330   -4.9080  -16.3640 N.am  104  VAL104     -0.1963
     70  CA        20.1250   -3.9660  -15.3400 C.3   104  VAL104      0.1727
     71  C         20.4700   -4.7410  -14.0600 C.2   104  VAL104      0.2616
     72  O         21.5310   -5.3550  -13.9980 O.2   104  VAL104     -0.2715
     73  CB        19.1920   -2.7510  -15.0820 C.3   104  VAL104      0.0290
     74  CG1       19.8710   -1.7380  -14.1700 C.3   104  VAL104      0.0023
     75  CG2       18.8130   -2.0630  -16.4060 C.3   104  VAL104      0.0023
     76  N         19.6040   -4.7260  -13.0460 N.am  105  TRP105     -0.1960
     77  CA        19.7830   -5.6750  -11.9560 C.3   105  TRP105      0.1771
     78  C         18.6370   -6.6670  -12.0000 C.2   105  TRP105      0.2619
     79  O         17.7010   -6.5140  -12.7920 O.2   105  TRP105     -0.2715
     80  CB        19.8510   -4.9650  -10.6010 C.3   105  TRP105      0.0590
     81  CG        21.0110   -4.0240  -10.4950 C.ar  105  TRP105      0.0006
     82  CD1       20.9560   -2.6540  -10.4700 C.ar  105  TRP105      0.0946
     83  CD2       22.3980   -4.3740  -10.3980 C.ar  105  TRP105      0.0152
     84  NE1       22.2200   -2.1340  -10.3640 N.ar  105  TRP105     -0.2442
     85  CE2       23.1290   -3.1630  -10.3190 C.ar  105  TRP105      0.0810
     86  CE3       23.0950   -5.5970  -10.3730 C.ar  105  TRP105      0.0012
     87  CZ2       24.5330   -3.1350  -10.2140 C.ar  105  TRP105      0.0191
     88  CZ3       24.4810   -5.5770  -10.2690 C.ar  105  TRP105      0.0001
     89  CH2       25.1900   -4.3450  -10.1900 C.ar  105  TRP105      0.0015
     90  N         18.7020   -7.6880  -11.1510 N.am  106  ASP106     -0.1971
     91  CA        17.6840   -8.7270  -11.1660 C.3   106  ASP106      0.1709
     92  C         17.5150   -9.2670   -9.7650 C.2   106  ASP106      0.2293
     93  O         18.3270   -8.9810   -8.8730 O.2   106  ASP106     -0.2864
     94  CB        18.0890   -9.8560  -12.1360 C.3   106  ASP106      0.1436
     95  CG        16.8910  -10.5950  -12.7450 C.2   106  ASP106      0.3671
     96  OD1       15.7240  -10.3660  -12.3440 O.co2 106  ASP106     -0.2456
     97  OD2       17.1380  -11.4260  -13.6490 O.co2 106  ASP106     -0.2456
@<TRIPOS>BOND
     1    68    66   ar
     2    67    66   ar
     3    66    65    1
     4    65    62    1
     5    62    61    1
     6    62    63    1
     7    61    58   am
     8    52    51    2
     9    64    63    2
    10    63    69   am
    11    12    11    1
    12    53    54    1
    13    53    50    1
    14    58    57    1
    15    58    59    2
    16    51    50    1
    17    51    56   am
    18    54    55    1
    19    57    56    1
    20    57    60    1
    21    75    73    1
    22    69    70    1
    23    11     9   ar
    24    11    10   ar
    25    50    49    1
    26     9     7   ar
    27    70    73    1
    28    70    71    1
    29    10     8   ar
    30    55    49    1
    31    73    74    1
    32     7     6   ar
    33    49    47   am
    34     8     6   ar
    35     1     2    1
    36    71    72    2
    37    71    76   am
    38     6     5    1
    39    97    95   ar
    40    47    48    2
    41    47    46    1
    42     2     5    1
    43     2     3    1
    44    76    77    1
    45    79    78    2
    46    95    96   ar
    47    95    94    1
    48    21    19   ar
    49    21    22   ar
    50    46    45    1
    51    19    18   ar
    52    94    91    1
    53     3     4    2
    54     3    13   am
    55    78    77    1
    56    78    90   am
    57    77    80    1
    58    41    40    2
    59    22    24   ar
    60    22    20   ar
    61    24    26   ar
    62    13    14    1
    63    91    90    1
    64    91    92    1
    65    45    40   am
    66    37    35    1
    67    40    39    1
    68    18    20   ar
    69    18    17    1
    70    80    81    1
    71    81    82   ar
    72    81    83   ar
    73    82    84   ar
    74    20    23   ar
    75    83    86   ar
    76    83    85   ar
    77    86    88   ar
    78    84    85   ar
    79    26    25   ar
    80    85    87   ar
    81    43    42    1
    82    88    89   ar
    83    87    89   ar
    84    14    17    1
    85    14    15    1
    86    92    93    2
    87    35    36    1
    88    35    34    2
    89    42    39    1
    90    42    44    1
    91    39    38    1
    92    23    25   ar
    93    16    15    2
    94    34    33    1
    95    33    32    1
    96    32    31    1
    97    31    28    1
    98    27    28    1
    99    28    29    1
   100    29    30    2
