@<TRIPOS>MOLECULE
tmp/5wkaB00.pdb
 84 79 0 0 0
SMALL
GASTEIGER

@<TRIPOS>ATOM
      1  N         83.2600   10.6060  478.6610 N.3   221  LEU221     -0.1245
      2  CA        84.4860   11.0800  478.0380 C.3   221  LEU221      0.1561
      3  C         84.5660   12.6000  478.0210 C.2   221  LEU221      0.2260
      4  O         83.6450   13.2820  477.5700 O.2   221  LEU221     -0.2867
      5  CB        84.6000   10.5180  476.6230 C.3   221  LEU221      0.0270
      6  CG        84.6450    8.9880  476.6120 C.3   221  LEU221      0.0019
      7  CD1       84.5480    8.4400  475.2020 C.3   221  LEU221      0.0001
      8  CD2       85.9080    8.4900  477.3030 C.3   221  LEU221      0.0001
      9  N         85.0450    9.2300  470.0920 N.3   237  ALA237     -0.1245
     10  CA        85.1600    8.1670  471.0790 C.3   237  ALA237      0.1562
     11  C         83.8330    7.9640  471.8000 C.2   237  ALA237      0.2260
     12  O         83.4540    6.8380  472.1150 O.2   237  ALA237     -0.2867
     13  CB        86.2690    8.4810  472.0700 C.3   237  ALA237      0.0290
     14  N         81.6910    4.5310  471.8350 N.3   241  GLN241     -0.1245
     15  CA        81.4690    3.9490  473.1510 C.3   241  GLN241      0.1566
     16  C         79.9840    3.8640  473.4890 C.2   241  GLN241      0.2260
     17  O         79.5230    2.8730  474.0560 O.2   241  GLN241     -0.2867
     18  CB        82.2000    4.7640  474.2220 C.3   241  GLN241      0.0367
     19  CG        82.2060    4.1330  475.6040 C.3   241  GLN241      0.0905
     20  CD        83.1790    2.9780  475.7100 C.2   241  GLN241      0.2608
     21  OE1       82.8260    1.8270  475.4540 O.2   241  GLN241     -0.2717
     22  NE2       84.4160    3.2800  476.0900 N.am  241  GLN241     -0.0878
     23  N         85.2090    3.9930  485.2970 N.3   293  GLY293     -0.1210
     24  CA        85.9080    5.2610  485.3670 C.3   293  GLY293      0.1940
     25  C         85.8030    6.0170  484.0610 C.2   293  GLY293      0.2454
     26  O         85.6280    5.4130  483.0030 O.2   293  GLY293     -0.2732
     27  N         85.9070    7.3520  484.1260 N.am  294  PRO294     -0.2717
     28  CA        85.8300    8.1760  482.9190 C.3   294  PRO294      0.1535
     29  C         87.1240    8.1300  482.1200 C.2   294  PRO294      0.2599
     30  O         87.9440    7.2310  482.3090 O.2   294  PRO294     -0.2715
     31  CB        85.5810    9.5760  483.4760 C.3   294  PRO294      0.0310
     32  CG        86.2900    9.5630  484.7850 C.3   294  PRO294      0.0237
     33  CD        86.1130    8.1680  485.3360 C.3   294  PRO294      0.0939
     34  N         87.3000    9.1010  481.2350 N.am  295  GLY295     -0.1955
     35  CA        88.5050    9.1920  480.4390 C.3   295  GLY295      0.1869
     36  C         88.6480   10.5720  479.8380 C.2   295  GLY295      0.2309
     37  O         87.7420   11.0630  479.1660 O.2   295  GLY295     -0.2863
     38  N         89.9580   12.8220  477.0840 N.3   297  VAL297     -0.1245
     39  CA        90.2440   12.4930  475.6910 C.3   297  VAL297      0.1561
     40  C         90.7720   13.6830  474.8940 C.2   297  VAL297      0.2260
     41  O         90.2570   14.7970  475.0010 O.2   297  VAL297     -0.2867
     42  CB        88.9800   11.9400  474.9900 C.3   297  VAL297      0.0252
     43  CG1       89.2410   11.6860  473.5110 C.3   297  VAL297      0.0019
     44  CG2       88.5060   10.6690  475.6790 C.3   297  VAL297      0.0019
     45  N         89.9980    5.6880  465.6800 N.3   318  LEU318     -0.1245
     46  CA        89.1050    6.7130  466.2060 C.3   318  LEU318      0.1561
     47  C         89.7790    8.0810  466.2050 C.2   318  LEU318      0.2260
     48  O         89.1220    9.1050  466.4000 O.2   318  LEU318     -0.2867
     49  CB        88.6520    6.3550  467.6230 C.3   318  LEU318      0.0270
     50  CG        87.4930    5.3660  467.7510 C.3   318  LEU318      0.0019
     51  CD1       87.3500    4.8920  469.1890 C.3   318  LEU318      0.0001
     52  CD2       86.2000    6.0030  467.2640 C.3   318  LEU318      0.0001
     53  N         91.9550    9.3800  468.4090 N.3   320  CYS320     -0.1221
     54  CA        91.8780   10.0060  469.7230 C.3   320  CYS320      0.1808
     55  C         92.7440    9.2620  470.7330 C.2   320  CYS320      0.2601
     56  O         92.9040    8.0440  470.6510 O.2   320  CYS320     -0.2717
     57  CB        90.4290   10.0600  470.2120 C.3   320  CYS320      0.0970
     58  SG        89.7090    8.4480  470.6030 S.3   320  CYS320     -0.0800
     59  N         93.3040   10.0030  471.6830 N.am  321  ILE321     -0.1965
     60  CA        94.1330    9.4090  472.7220 C.3   321  ILE321      0.1727
     61  C         93.5830    9.7220  474.1080 C.2   321  ILE321      0.2616
     62  O         92.9530   10.7590  474.3190 O.2   321  ILE321     -0.2715
     63  CB        95.5930    9.8990  472.6350 C.3   321  ILE321      0.0290
     64  CG1       95.6670   11.4100  472.8590 C.3   321  ILE321      0.0022
     65  CG2       96.2050    9.5230  471.2930 C.3   321  ILE321      0.0023
     66  CD1       97.0740   11.9560  472.8840 C.3   321  ILE321      0.0001
     67  N         93.8140    8.8110  475.0460 N.am  322  GLY322     -0.1955
     68  CA        93.4440    9.0350  476.4300 C.3   322  GLY322      0.1869
     69  C         94.6150    9.6370  477.1770 C.2   322  GLY322      0.2309
     70  O         95.7660    9.2860  476.9190 O.2   322  GLY322     -0.2863
     71  N         92.8090    2.1880  485.5070 N.3   335  TRP335     -0.1241
     72  CA        91.6740    3.0640  485.2460 C.3   335  TRP335      0.1605
     73  C         91.5630    4.1530  486.3070 C.2   335  TRP335      0.2264
     74  O         91.6960    3.8800  487.5000 O.2   335  TRP335     -0.2867
     75  CB        90.3770    2.2560  485.1950 C.3   335  TRP335      0.0550
     76  CG        90.4120    1.1020  484.2430 C.ar  335  TRP335      0.0003
     77  CD1       91.1610    0.9950  483.1060 C.ar  335  TRP335      0.0946
     78  CD2       89.6700   -0.1180  484.3500 C.ar  335  TRP335      0.0152
     79  NE1       90.9270   -0.2140  482.4970 N.ar  335  TRP335     -0.2442
     80  CE2       90.0150   -0.9160  483.2410 C.ar  335  TRP335      0.0810
     81  CE3       88.7450   -0.6120  485.2760 C.ar  335  TRP335      0.0012
     82  CZ2       89.4690   -2.1810  483.0330 C.ar  335  TRP335      0.0191
     83  CZ3       88.2040   -1.8680  485.0670 C.ar  335  TRP335      0.0001
     84  CH2       88.5680   -2.6380  483.9550 C.ar  335  TRP335      0.0015
@<TRIPOS>BOND
     1    45    46    1
     2    47    46    1
     3    47    48    2
     4    46    49    1
     5    52    50    1
     6    49    50    1
     7    50    51    1
     8    53    54    1
     9    54    57    1
    10    54    55    1
    11     9    10    1
    12    57    58    1
    13    56    55    2
    14    55    59   am
    15    10    11    1
    16    10    13    1
    17    65    63    1
    18    59    60    1
    19    11    12    2
    20    14    15    1
    21    63    60    1
    22    63    64    1
    23    60    61    1
    24    64    66    1
    25    15    16    1
    26    15    18    1
    27    16    17    2
    28    43    42    1
    29    61    62    2
    30    61    67   am
    31    18    19    1
    32    40    41    2
    33    40    39    1
    34    42    44    1
    35    42    39    1
    36    67    68    1
    37     7     6    1
    38    21    20    2
    39    19    20    1
    40    39    38    1
    41    20    22   am
    42    68    69    1
    43     6     5    1
    44     6     8    1
    45     5     2    1
    46    70    69    2
    47     4     3    2
    48     3     2    1
    49     2     1    1
    50    37    36    2
    51    36    35    1
    52    35    34    1
    53    34    29   am
    54    29    30    2
    55    29    28    1
    56    79    77   ar
    57    79    80   ar
    58    28    31    1
    59    28    27    1
    60    26    25    2
    61    82    80   ar
    62    82    84   ar
    63    77    76   ar
    64    80    78   ar
    65    31    32    1
    66    84    83   ar
    67    25    27   am
    68    25    24    1
    69    27    33    1
    70    76    78   ar
    71    76    75    1
    72    78    81   ar
    73    32    33    1
    74    83    81   ar
    75    75    72    1
    76    72    71    1
    77    72    73    1
    78    23    24    1
    79    73    74    2
