@<TRIPOS>MOLECULE
tmp/5wkcA03.pdb
 86 81 0 0 0
SMALL
GASTEIGER

@<TRIPOS>ATOM
      1  N         32.2150  478.9990   51.3350 N.3    31  GLY31      -0.1210
      2  CA        32.2670  478.1310   52.4960 C.3    31  GLY31       0.1956
      3  C         33.5040  477.2580   52.4180 C.2    31  GLY31       0.2612
      4  O         34.1680  477.2150   51.3810 O.2    31  GLY31      -0.2717
      5  N         33.8020  476.5560   53.5060 N.am   32  GLY32      -0.1942
      6  CA        35.0290  475.7870   53.6310 C.3    32  GLY32       0.2014
      7  C         35.4080  474.8870   52.4670 C.2    32  GLY32       0.2638
      8  O         36.5220  474.9670   51.9570 O.2    32  GLY32      -0.2714
      9  N         34.4800  474.0400   52.0360 N.am   33  ALA33      -0.1977
     10  CA        34.7790  473.0280   51.0250 C.3    33  ALA33       0.1597
     11  C         35.0620  473.6210   49.6460 C.2    33  ALA33       0.2287
     12  O         35.7930  473.0330   48.8470 O.2    33  ALA33      -0.2864
     13  CB        33.6340  472.0350   50.9350 C.3    33  ALA33       0.0319
     14  N         36.2740  476.7120   49.1040 N.3    35  LEU35      -0.1245
     15  CA        37.2810  477.7390   49.2480 C.3    35  LEU35       0.1561
     16  C         38.3720  477.7660   48.1930 C.2    35  LEU35       0.2260
     17  O         38.7350  478.8110   47.7620 O.2    35  LEU35      -0.2867
     18  CB        37.8930  477.7150   50.6330 C.3    35  LEU35       0.0270
     19  CG        37.8160  478.9700   51.4750 C.3    35  LEU35       0.0019
     20  CD1       36.5840  479.7770   51.2020 C.3    35  LEU35       0.0001
     21  CD2       37.8870  478.6770   52.9360 C.3    35  LEU35       0.0001
     22  N         29.7620  472.8450   50.5510 N.3    79  SER79      -0.1217
     23  CA        29.2300  471.5270   50.8860 C.3    79  SER79       0.1889
     24  C         28.1500  471.5980   51.9540 C.2    79  SER79       0.2288
     25  O         27.8060  472.6810   52.4290 O.2    79  SER79      -0.2866
     26  CB        30.3540  470.6080   51.3690 C.3    79  SER79       0.2089
     27  OG        30.8170  471.0060   52.6480 O.3    79  SER79      -0.2183
     28  N         33.4800  467.7870   50.7930 N.3   107  VAL107     -0.1231
     29  CA        34.5740  467.4990   51.7130 C.3   107  VAL107      0.1678
     30  C         35.6810  466.7690   50.9500 C.2   107  VAL107      0.2434
     31  O         35.4170  466.1970   49.8920 O.2   107  VAL107     -0.2733
     32  CB        34.0770  466.6590   52.9200 C.3   107  VAL107      0.0265
     33  CG1       32.8310  467.3010   53.5250 C.3   107  VAL107      0.0020
     34  CG2       33.7760  465.2250   52.5040 C.3   107  VAL107      0.0020
     35  N         36.9280  466.8150   51.4580 N.am  108  PRO108     -0.2729
     36  CA        38.0340  466.1140   50.7930 C.3   108  PRO108      0.1401
     37  C         37.6980  464.6510   50.5270 C.2   108  PRO108      0.2269
     38  O         36.9410  464.0640   51.3000 O.2   108  PRO108     -0.2865
     39  CB        39.1810  466.2320   51.7980 C.3   108  PRO108      0.0296
     40  CG        38.8910  467.4670   52.5490 C.3   108  PRO108      0.0237
     41  CD        37.3910  467.5700   52.6370 C.3   108  PRO108      0.0939
     42  N         39.2850  462.1200   51.0190 N.3   110  SER110     -0.1202
     43  CA        39.7290  461.3190   52.1530 C.3   110  SER110      0.2020
     44  C         38.7190  461.3190   53.3010 C.2   110  SER110      0.2618
     45  O         38.8690  460.5710   54.2660 O.2   110  SER110     -0.2717
     46  CB        41.0730  461.8320   52.6600 C.3   110  SER110      0.2103
     47  OG        40.9580  463.1710   53.1090 O.3   110  SER110     -0.2182
     48  N         37.6980  462.1630   53.2000 N.am  111  ALA111     -0.1979
     49  CA        36.7120  462.2870   54.2640 C.3   111  ALA111      0.1597
     50  C         35.3280  461.8540   53.7990 C.2   111  ALA111      0.2287
     51  O         34.4110  461.7010   54.6060 O.2   111  ALA111     -0.2864
     52  CB        36.6710  463.7140   54.7800 C.3   111  ALA111      0.0319
     53  N         31.6700  463.2310   57.7020 N.3   116  ALA116     -0.1231
     54  CA        32.5690  464.3050   58.0920 C.3   116  ALA116      0.1694
     55  C         31.8290  465.6180   58.3110 C.2   116  ALA116      0.2592
     56  O         30.6440  465.7390   58.0070 O.2   116  ALA116     -0.2718
     57  CB        33.6530  464.4850   57.0390 C.3   116  ALA116      0.0304
     58  N         32.5270  466.6010   58.8180 N.am  117  PHE117     -0.1962
     59  CA        31.9890  467.9140   59.0150 C.3   117  PHE117      0.1771
     60  C         31.4420  468.4200   57.6910 C.2   117  PHE117      0.2619
     61  O         32.0290  468.2510   56.6730 O.2   117  PHE117     -0.2715
     62  CB        33.0960  468.7820   59.5590 C.3   117  PHE117      0.0574
     63  CG        32.7910  470.2300   59.6120 C.ar  117  PHE117     -0.0200
     64  CD1       31.8750  470.7260   60.4800 C.ar  117  PHE117     -0.0042
     65  CD2       33.4780  471.0970   58.8130 C.ar  117  PHE117     -0.0042
     66  CE1       31.6490  472.0640   60.5350 C.ar  117  PHE117     -0.0003
     67  CE2       33.2580  472.4320   58.8640 C.ar  117  PHE117     -0.0003
     68  CZ        32.3400  472.9180   59.7270 C.ar  117  PHE117     -0.0000
     69  N         30.2740  469.0300   57.7340 N.am  118  GLN118     -0.1977
     70  CA        29.5820  469.5320   56.5540 C.3   118  GLN118      0.1601
     71  C         29.5040  468.5930   55.3690 C.2   118  GLN118      0.2287
     72  O         29.5510  468.9910   54.2700 O.2   118  GLN118     -0.2864
     73  CB        30.1110  470.8780   56.1170 C.3   118  GLN118      0.0394
     74  CG        30.2840  471.8150   57.2560 C.3   118  GLN118      0.0908
     75  CD        30.1770  473.2580   56.8410 C.2   118  GLN118      0.2608
     76  OE1       29.2720  473.9460   57.2190 O.2   118  GLN118     -0.2717
     77  NE2       31.1130  473.6980   56.0840 N.am  118  GLN118     -0.0878
     78  N         37.1260  469.2330   47.9580 N.3   167  LYS167     -0.1245
     79  CA        38.0740  470.3040   48.2430 C.3   167  LYS167      0.1561
     80  C         39.4960  469.9980   47.7750 C.2   167  LYS167      0.2260
     81  O         40.1810  470.8760   47.2440 O.2   167  LYS167     -0.2867
     82  CB        38.0880  470.6080   49.7410 C.3   167  LYS167      0.0271
     83  CG        38.9980  471.7640   50.1110 C.3   167  LYS167      0.0035
     84  CD        38.9380  472.0700   51.5910 C.3   167  LYS167      0.0206
     85  CE        39.9570  473.1290   51.9490 C.3   167  LYS167      0.1093
     86  NZ        39.9420  473.4560   53.3940 N.3   167  LYS167     -0.1314
@<TRIPOS>BOND
     1    81    80    2
     2    17    16    2
     3    80    79    1
     4    78    79    1
     5    16    15    1
     6    79    82    1
     7    12    11    2
     8    14    15    1
     9    15    18    1
    10    11    10    1
    11    82    83    1
    12    31    30    2
    13    83    84    1
    14    37    36    1
    15    37    38    2
    16    22    23    1
    17    18    19    1
    18    28    29    1
    19    36    35    1
    20    36    39    1
    21    23    26    1
    22    23    24    1
    23    13    10    1
    24    30    35   am
    25    30    29    1
    26    42    43    1
    27    10     9    1
    28    20    19    1
    29     1     2    1
    30    26    27    1
    31     4     3    2
    32    35    41    1
    33    19    21    1
    34    84    85    1
    35    29    32    1
    36    39    40    1
    37    85    86    1
    38    24    25    2
    39     8     7    2
    40     9     7   am
    41    43    46    1
    42    43    44    1
    43     3     2    1
    44     3     5   am
    45     7     6    1
    46    34    32    1
    47    40    41    1
    48    46    47    1
    49    32    33    1
    50    48    44   am
    51    48    49    1
    52    44    45    2
    53     5     6    1
    54    50    49    1
    55    50    51    2
    56    49    52    1
    57    72    71    2
    58    71    70    1
    59    77    75   am
    60    73    70    1
    61    73    74    1
    62    70    69    1
    63    61    60    2
    64    75    76    2
    65    75    74    1
    66    57    54    1
    67    60    69   am
    68    60    59    1
    69    53    54    1
    70    56    55    2
    71    54    55    1
    72    55    58   am
    73    65    67   ar
    74    65    63   ar
    75    58    59    1
    76    67    68   ar
    77    59    62    1
    78    62    63    1
    79    63    64   ar
    80    68    66   ar
    81    64    66   ar
