@<TRIPOS>MOLECULE
tmp/5wkcA04.pdb
 71 68 0 0 0
SMALL
GASTEIGER

@<TRIPOS>ATOM
      1  N         27.6140  481.3880   47.0510 N.3    29  TYR29      -0.1228
      2  CA        27.9070  481.7250   48.4400 C.3    29  TYR29       0.1721
      3  C         29.0430  480.8200   48.9060 C.2    29  TYR29       0.2437
      4  O         28.9710  479.6050   48.7410 O.2    29  TYR29      -0.2733
      5  CB        26.6610  481.5440   49.3170 C.3    29  TYR29       0.0547
      6  CG        26.5970  482.4390   50.5400 C.ar   29  TYR29      -0.0200
      7  CD1       27.3800  482.1830   51.6590 C.ar   29  TYR29      -0.0009
      8  CD2       25.7420  483.5340   50.5770 C.ar   29  TYR29      -0.0009
      9  CE1       27.3220  482.9990   52.7770 C.ar   29  TYR29       0.0417
     10  CE2       25.6740  484.3520   51.6900 C.ar   29  TYR29       0.0417
     11  CZ        26.4640  484.0790   52.7880 C.ar   29  TYR29       0.1957
     12  OH        26.3970  484.8930   53.8950 O.3    29  TYR29      -0.2866
     13  N         30.1050  481.4080   49.4750 N.am   30  PRO30      -0.2718
     14  CA        31.3100  480.6400   49.8110 C.3    30  PRO30       0.1535
     15  C         31.1870  479.8000   51.0790 C.2    30  PRO30       0.2599
     16  O         30.1950  479.8800   51.8010 O.2    30  PRO30      -0.2715
     17  CB        32.3710  481.7260   49.9920 C.3    30  PRO30       0.0310
     18  CG        31.6010  482.9160   50.4350 C.3    30  PRO30       0.0237
     19  CD        30.2800  482.8490   49.7260 C.3    30  PRO30       0.0939
     20  N         32.2150  478.9990   51.3350 N.am   31  GLY31      -0.1941
     21  CA        32.2670  478.1310   52.4960 C.3    31  GLY31       0.2014
     22  C         33.5040  477.2580   52.4180 C.2    31  GLY31       0.2639
     23  O         34.1680  477.2150   51.3810 O.2    31  GLY31      -0.2714
     24  N         33.8020  476.5560   53.5060 N.am   32  GLY32      -0.1954
     25  CA        35.0290  475.7870   53.6310 C.3    32  GLY32       0.1869
     26  C         35.4080  474.8870   52.4670 C.2    32  GLY32       0.2309
     27  O         36.5220  474.9670   51.9570 O.2    32  GLY32      -0.2863
     28  N         21.5200  480.4330   49.8180 N.3    55  GLU55      -0.1245
     29  CA        21.7930  479.6550   48.6050 C.3    55  GLU55       0.1567
     30  C         20.5380  479.3970   47.7670 C.2    55  GLU55       0.2260
     31  O         20.6270  479.2730   46.5430 O.2    55  GLU55      -0.2867
     32  CB        22.4490  478.3130   48.9450 C.3    55  GLU55       0.0388
     33  CG        23.8780  478.4080   49.4180 C.3    55  GLU55       0.1160
     34  CD        23.9760  478.7140   50.8900 C.2    55  GLU55       0.3649
     35  OE1       22.9210  478.8500   51.5460 O.co2  55  GLU55      -0.2457
     36  OE2       25.1100  478.8120   51.3930 O.co2  55  GLU55      -0.2457
     37  N         28.9130  475.9290   48.7390 N.3    78  THR78      -0.1218
     38  CA        29.7840  475.0360   49.4930 C.3    78  THR78       0.1862
     39  C         29.0880  473.7070   49.7960 C.2    78  THR78       0.2287
     40  O         27.9720  473.4650   49.3440 O.2    78  THR78      -0.2866
     41  CB        30.2570  475.6920   50.8090 C.3    78  THR78       0.1770
     42  OG1       31.3670  474.9600   51.3400 O.3    78  THR78      -0.2211
     43  CG2       29.1290  475.7360   51.8400 C.3    78  THR78       0.0375
     44  N         25.2510  472.1540   54.1760 N.3    81  PRO81      -0.2102
     45  CA        24.0560  473.0040   54.1770 C.3    81  PRO81       0.1504
     46  C         24.0010  473.9290   52.9640 C.2    81  PRO81       0.2576
     47  O         22.9120  474.3340   52.5610 O.2    81  PRO81      -0.2718
     48  CB        24.1980  473.8060   55.4720 C.3    81  PRO81       0.0282
     49  CG        25.6750  473.8650   55.7070 C.3    81  PRO81       0.0208
     50  CD        26.2000  472.5350   55.2370 C.3    81  PRO81       0.0893
     51  N         25.1570  474.2590   52.3970 N.am   82  GLY82      -0.1957
     52  CA        25.1970  475.0720   51.1960 C.3    82  GLY82       0.1869
     53  C         24.5400  474.3240   50.0540 C.2    82  GLY82       0.2309
     54  O         23.7620  474.8860   49.2820 O.2    82  GLY82      -0.2863
     55  N         20.7040  473.5480   50.6120 N.3    85  ASN85      -0.1240
     56  CA        19.9130  474.7600   50.4170 C.3    85  ASN85       0.1653
     57  C         19.5830  475.0610   48.9540 C.2    85  ASN85       0.2266
     58  O         18.7700  475.9410   48.6780 O.2    85  ASN85      -0.2867
     59  CB        20.6240  475.9710   51.0310 C.3    85  ASN85       0.1155
     60  CG        20.3490  476.1160   52.5160 C.2    85  ASN85       0.2627
     61  OD1       19.4830  475.4350   53.0680 O.2    85  ASN85      -0.2716
     62  ND2       21.0680  477.0220   53.1660 N.am   85  ASN85      -0.0877
     63  N         30.2740  469.0300   57.7340 N.3   118  GLN118     -0.1245
     64  CA        29.5820  469.5320   56.5540 C.3   118  GLN118      0.1566
     65  C         29.5040  468.5930   55.3690 C.2   118  GLN118      0.2260
     66  O         29.5510  468.9910   54.2700 O.2   118  GLN118     -0.2867
     67  CB        30.1110  470.8780   56.1170 C.3   118  GLN118      0.0367
     68  CG        30.2840  471.8150   57.2560 C.3   118  GLN118      0.0905
     69  CD        30.1770  473.2580   56.8410 C.2   118  GLN118      0.2608
     70  OE1       29.2720  473.9460   57.2190 O.2   118  GLN118     -0.2717
     71  NE2       31.1130  473.6980   56.0840 N.am  118  GLN118     -0.0878
@<TRIPOS>BOND
     1    31    30    2
     2     1     2    1
     3    30    29    1
     4     2     3    1
     5     2     5    1
     6    29    32    1
     7    29    28    1
     8    58    57    2
     9    37    38    1
    10     4     3    2
    11     3    13   am
    12    32    33    1
    13    57    56    1
    14    54    53    2
    15     5     6    1
    16    40    39    2
    17    33    34    1
    18    13    19    1
    19    13    14    1
    20    38    39    1
    21    38    41    1
    22    19    18    1
    23    14    17    1
    24    14    15    1
    25    17    18    1
    26    53    52    1
    27    56    55    1
    28    56    59    1
    29     6     8   ar
    30     6     7   ar
    31     8    10   ar
    32    41    42    1
    33    41    43    1
    34    34    36   ar
    35    34    35   ar
    36    59    60    1
    37    15    20   am
    38    15    16    2
    39    52    51    1
    40    20    21    1
    41    23    22    2
    42     7     9   ar
    43    10    11   ar
    44    27    26    2
    45    51    46   am
    46    22    21    1
    47    22    24   am
    48    26    25    1
    49    60    61    2
    50    60    62   am
    51    47    46    2
    52     9    11   ar
    53    11    12    1
    54    46    45    1
    55    24    25    1
    56    44    45    1
    57    44    50    1
    58    45    48    1
    59    66    65    2
    60    50    49    1
    61    65    64    1
    62    48    49    1
    63    71    69   am
    64    67    64    1
    65    67    68    1
    66    64    63    1
    67    69    70    2
    68    69    68    1
