@<TRIPOS>MOLECULE
tmp/5wkcB02.pdb
 163 156 0 0 0
SMALL
GASTEIGER

@<TRIPOS>ATOM
      1  N         33.2380  460.8260  125.6760 N.3    58  GLN58      -0.1245
      2  CA        32.6480  461.9980  125.0400 C.3    58  GLN58       0.1566
      3  C         33.1400  462.0870  123.6000 C.2    58  GLN58       0.2260
      4  O         32.3820  462.4370  122.6940 O.2    58  GLN58      -0.2867
      5  CB        32.9900  463.2870  125.8000 C.3    58  GLN58       0.0367
      6  CG        32.3950  464.5400  125.1540 C.3    58  GLN58       0.0905
      7  CD        32.8290  465.8360  125.8200 C.2    58  GLN58       0.2608
      8  OE1       33.6540  465.8390  126.7320 O.2    58  GLN58      -0.2717
      9  NE2       32.2680  466.9480  125.3600 N.am   58  GLN58      -0.0878
     10  N         26.5550  464.3140  127.3100 N.3    90  THR90      -0.1218
     11  CA        26.6480  465.5230  126.4960 C.3    90  THR90       0.1862
     12  C         26.4850  465.2300  124.9910 C.2    90  THR90       0.2287
     13  O         25.7130  465.9170  124.3220 O.2    90  THR90      -0.2866
     14  CB        27.9760  466.2780  126.7560 C.3    90  THR90       0.1770
     15  OG1       27.9910  466.7650  128.1030 O.3    90  THR90      -0.2211
     16  CG2       28.1270  467.4500  125.8030 C.3    90  THR90       0.0375
     17  N         32.3990  475.7980  118.7980 N.3   408  VAL408     -0.1231
     18  CA        31.3050  476.7220  119.0610 C.3   408  VAL408      0.1692
     19  C         31.8190  478.1140  119.4050 C.2   408  VAL408      0.2593
     20  O         32.7050  478.2720  120.2430 O.2   408  VAL408     -0.2718
     21  CB        30.4110  476.2070  120.2000 C.3   408  VAL408      0.0266
     22  CG1       29.3370  477.2280  120.5460 C.3   408  VAL408      0.0020
     23  CG2       29.7830  474.8800  119.8010 C.3   408  VAL408      0.0020
     24  N         31.2670  479.1250  118.7440 N.am  409  GLY409     -0.1942
     25  CA        31.6500  480.4970  119.0080 C.3   409  GLY409      0.2014
     26  C         31.7480  481.3360  117.7500 C.2   409  GLY409      0.2639
     27  O         31.0500  481.0860  116.7660 O.2   409  GLY409     -0.2714
     28  N         32.6300  482.3300  117.7870 N.am  410  GLN410     -0.1963
     29  CA        32.7830  483.2690  116.6820 C.3   410  GLN410      0.1733
     30  C         33.2840  482.5820  115.4230 C.2   410  GLN410      0.2616
     31  O         32.7430  482.7970  114.3360 O.2   410  GLN410     -0.2715
     32  CB        33.7360  484.4000  117.0740 C.3   410  GLN410      0.0408
     33  CG        33.2010  485.3140  118.1590 C.3   410  GLN410      0.0908
     34  CD        34.1320  486.4770  118.4420 C.2   410  GLN410      0.2608
     35  OE1       35.3340  486.2930  118.6270 O.2   410  GLN410     -0.2717
     36  NE2       33.5800  487.6840  118.4650 N.am  410  GLN410     -0.0878
     37  N         34.3210  481.7600  115.5760 N.am  411  HIS411     -0.1973
     38  CA        34.9020  481.0190  114.4590 C.3   411  HIS411      0.1656
     39  C         33.8380  480.1880  113.7460 C.2   411  HIS411      0.2291
     40  O         33.8690  480.0260  112.5260 O.2   411  HIS411     -0.2864
     41  CB        36.0320  480.1100  114.9450 C.3   411  HIS411      0.0771
     42  CG        35.5620  478.9850  115.8140 C.ar  411  HIS411      0.0820
     43  ND1       35.3460  479.1300  117.1680 N.ar  411  HIS411     -0.2267
     44  CD2       35.2420  477.7030  115.5170 C.ar  411  HIS411      0.1154
     45  CE1       34.9200  477.9830  117.6680 C.ar  411  HIS411      0.1986
     46  NE2       34.8500  477.1010  116.6870 N.ar  411  HIS411     -0.2212
     47  N         31.7290  482.6560  111.7470 N.3   414  TRP414     -0.1241
     48  CA        32.5190  483.1400  110.6230 C.3   414  TRP414      0.1605
     49  C         32.6850  482.0550  109.5540 C.2   414  TRP414      0.2264
     50  O         32.6750  482.3450  108.3590 O.2   414  TRP414     -0.2867
     51  CB        33.8820  483.6420  111.1110 C.3   414  TRP414      0.0550
     52  CG        33.8070  485.0090  111.7430 C.ar  414  TRP414      0.0003
     53  CD1       33.0220  486.0540  111.3420 C.ar  414  TRP414      0.0946
     54  CD2       34.5290  485.4710  112.8940 C.ar  414  TRP414      0.0152
     55  NE1       33.2170  487.1370  112.1650 N.ar  414  TRP414     -0.2442
     56  CE2       34.1380  486.8070  113.1260 C.ar  414  TRP414      0.0810
     57  CE3       35.4720  484.8870  113.7480 C.ar  414  TRP414      0.0012
     58  CZ2       34.6560  487.5690  114.1740 C.ar  414  TRP414      0.0191
     59  CZ3       35.9860  485.6440  114.7890 C.ar  414  TRP414      0.0001
     60  CH2       35.5770  486.9710  114.9930 C.ar  414  TRP414      0.0015
     61  N         25.0340  473.4880  121.1290 N.3   434  GLY434     -0.1210
     62  CA        26.2260  474.3100  121.0000 C.3   434  GLY434      0.1956
     63  C         27.3740  473.8400  121.8740 C.2   434  GLY434      0.2613
     64  O         27.8500  474.5770  122.7360 O.2   434  GLY434     -0.2717
     65  N         27.8340  472.6170  121.6280 N.am  435  THR435     -0.1938
     66  CA        28.8390  471.9820  122.4730 C.3   435  THR435      0.2028
     67  C         30.2720  472.2960  122.0590 C.2   435  THR435      0.2642
     68  O         30.7260  471.8380  121.0160 O.2   435  THR435     -0.2714
     69  CB        28.6760  470.4460  122.4660 C.3   435  THR435      0.1808
     70  OG1       27.3300  470.0950  122.8210 O.3   435  THR435     -0.2208
     71  CG2       29.6480  469.8010  123.4400 C.3   435  THR435      0.0379
     72  N         30.9870  473.0680  122.8740 N.am  436  MET436     -0.1976
     73  CA        32.4260  473.2490  122.6660 C.3   436  MET436      0.1605
     74  C         33.1370  471.9020  122.7330 C.2   436  MET436      0.2287
     75  O         32.7960  471.0580  123.5640 O.2   436  MET436     -0.2864
     76  CB        33.0250  474.1970  123.7070 C.3   436  MET436      0.0413
     77  CG        32.6400  475.6510  123.5420 C.3   436  MET436      0.0598
     78  SD        33.1260  476.6300  124.9760 S.3   436  MET436     -0.1393
     79  CE        34.9130  476.5380  124.9000 C.3   436  MET436      0.0692
     80  N         37.8960  476.8540  117.4050 N.3   460  GLY460     -0.1210
     81  CA        38.3430  477.9620  118.2270 C.3   460  GLY460      0.1956
     82  C         39.3430  477.4480  119.2440 C.2   460  GLY460      0.2612
     83  O         39.3870  476.2470  119.5100 O.2   460  GLY460     -0.2717
     84  N         40.1460  478.3400  119.8150 N.am  461  ASP461     -0.1959
     85  CA        41.1620  477.9060  120.7660 C.3   461  ASP461      0.1840
     86  C         40.5290  477.3610  122.0480 C.2   461  ASP461      0.2622
     87  O         40.9660  476.3360  122.5690 O.2   461  ASP461     -0.2715
     88  CB        42.1480  479.0400  121.0870 C.3   461  ASP461      0.1450
     89  CG        41.4610  480.3090  121.5560 C.2   461  ASP461      0.3671
     90  OD1       40.5130  480.7680  120.8880 O.co2 461  ASP461     -0.2456
     91  OD2       41.8800  480.8550  122.5970 O.co2 461  ASP461     -0.2456
     92  N         39.4920  478.0260  122.5490 N.am  462  ALA462     -0.1963
     93  CA        38.8400  477.5590  123.7680 C.3   462  ALA462      0.1728
     94  C         38.1020  476.2410  123.5300 C.2   462  ALA462      0.2616
     95  O         38.1910  475.3230  124.3470 O.2   462  ALA462     -0.2715
     96  CB        37.8920  478.6090  124.3060 C.3   462  ALA462      0.0334
     97  N         37.3840  476.1480  122.4120 N.am  463  SER463     -0.1950
     98  CA        36.6640  474.9220  122.0600 C.3   463  SER463      0.1924
     99  C         37.6120  473.7390  121.8940 C.2   463  SER463      0.2314
    100  O         37.3320  472.6400  122.3710 O.2   463  SER463     -0.2863
    101  CB        35.8550  475.1080  120.7720 C.3   463  SER463      0.2116
    102  OG        34.7390  475.9560  120.9770 O.3   463  SER463     -0.2180
    103  N         38.8220  471.7890  124.9530 N.3   466  MET466     -0.1245
    104  CA        37.8800  470.8890  125.6150 C.3   466  MET466      0.1570
    105  C         38.1550  469.4170  125.3200 C.2   466  MET466      0.2261
    106  O         38.0620  468.5770  126.2110 O.2   466  MET466     -0.2867
    107  CB        36.4420  471.2250  125.2090 C.3   466  MET466      0.0387
    108  CG        35.9340  472.5460  125.7630 C.3   466  MET466      0.0595
    109  SD        34.7600  472.3270  127.1110 S.3   466  MET466     -0.1393
    110  CE        34.6350  474.0100  127.7220 C.3   466  MET466      0.0692
    111  N         41.5760  478.9170  114.8120 N.3   486  LEU486     -0.1245
    112  CA        41.5530  480.3730  114.7950 C.3   486  LEU486      0.1561
    113  C         41.7940  480.8590  116.2120 C.2   486  LEU486      0.2260
    114  O         40.8600  480.9680  117.0070 O.2   486  LEU486     -0.2867
    115  CB        40.2250  480.9100  114.2610 C.3   486  LEU486      0.0270
    116  CG        39.8390  480.5140  112.8370 C.3   486  LEU486      0.0019
    117  CD1       38.6460  481.3310  112.3660 C.3   486  LEU486      0.0001
    118  CD2       41.0200  480.6870  111.8970 C.3   486  LEU486      0.0001
    119  N         42.3650  483.3640  118.9090 N.3   488  ASN488     -0.1240
    120  CA        42.2620  484.7530  119.3360 C.3   488  ASN488      0.1653
    121  C         42.5440  484.8580  120.8300 C.2   488  ASN488      0.2266
    122  O         42.3220  485.9000  121.4430 O.2   488  ASN488     -0.2867
    123  CB        40.8840  485.3300  118.9980 C.3   488  ASN488      0.1155
    124  CG        39.7480  484.3950  119.3670 C.2   488  ASN488      0.2627
    125  OD1       39.9020  483.5160  120.2120 O.2   488  ASN488     -0.2716
    126  ND2       38.5970  484.5820  118.7320 N.am  488  ASN488     -0.0877
    127  N         41.0860  483.7860  123.3830 N.3   490  GLU490     -0.1231
    128  CA        39.9140  484.1860  124.1470 C.3   490  GLU490      0.1699
    129  C         38.7250  483.2870  123.8450 C.2   490  GLU490      0.2592
    130  O         38.6820  482.6080  122.8150 O.2   490  GLU490     -0.2718
    131  CB        39.5420  485.6370  123.8370 C.3   490  GLU490      0.0402
    132  CG        39.1380  485.8430  122.3860 C.3   490  GLU490      0.1161
    133  CD        38.7600  487.2780  122.0610 C.2   490  GLU490      0.3649
    134  OE1       38.2880  488.0020  122.9630 O.co2 490  GLU490     -0.2457
    135  OE2       38.9370  487.6800  120.8920 O.co2 490  GLU490     -0.2457
    136  N         37.7600  483.2860  124.7560 N.am  491  GLN491     -0.1966
    137  CA        36.4360  482.7700  124.4480 C.3   491  GLN491      0.1733
    138  C         35.6850  483.9050  123.7620 C.2   491  GLN491      0.2617
    139  O         34.9470  484.6590  124.3980 O.2   491  GLN491     -0.2715
    140  CB        35.7330  482.2920  125.7140 C.3   491  GLN491      0.0408
    141  CG        36.5260  481.2250  126.4490 C.3   491  GLN491      0.0908
    142  CD        36.1820  481.1410  127.9180 C.2   491  GLN491      0.2608
    143  OE1       35.0380  481.3470  128.3160 O.2   491  GLN491     -0.2717
    144  NE2       37.1810  480.8450  128.7380 N.am  491  GLN491     -0.0878
    145  N         35.9080  484.0250  122.4560 N.am  492  GLY492     -0.1940
    146  CA        35.5270  485.2060  121.7010 C.3   492  GLY492      0.2014
    147  C         34.0530  485.5520  121.6930 C.2   492  GLY492      0.2639
    148  O         33.6870  486.7270  121.7680 O.2   492  GLY492     -0.2714
    149  N         33.2020  484.5370  121.5960 N.am  493  MET493     -0.1963
    150  CA        31.7670  484.7740  121.5490 C.3   493  MET493      0.1736
    151  C         31.2930  485.3620  122.8760 C.2   493  MET493      0.2616
    152  O         30.4200  486.2280  122.9080 O.2   493  MET493     -0.2715
    153  CB        31.0230  483.4720  121.2390 C.3   493  MET493      0.0427
    154  CG        29.5190  483.6190  121.0230 C.3   493  MET493      0.0599
    155  SD        29.0580  483.9500  119.3090 S.3   493  MET493     -0.1393
    156  CE        29.0910  485.7410  119.2740 C.3   493  MET493      0.0692
    157  N         31.8950  484.9070  123.9690 N.am  494  VAL494     -0.1977
    158  CA        31.5350  485.4090  125.2880 C.3   494  VAL494      0.1596
    159  C         32.0940  486.8150  125.5240 C.2   494  VAL494      0.2287
    160  O         31.4120  487.6600  126.1080 O.2   494  VAL494     -0.2864
    161  CB        32.0180  484.4630  126.3990 C.3   494  VAL494      0.0276
    162  CG1       31.3710  484.8290  127.7170 C.3   494  VAL494      0.0022
    163  CG2       31.6730  483.0350  126.0450 C.3   494  VAL494      0.0022
@<TRIPOS>BOND
     1    50    49    2
     2    49    48    1
     3    48    51    1
     4    48    47    1
     5    51    52    1
     6    53    52   ar
     7    53    55   ar
     8    52    54   ar
     9   118   116    1
    10    55    56   ar
    11   117   116    1
    12    40    39    2
    13   116   115    1
    14    54    56   ar
    15    54    57   ar
    16    56    58   ar
    17    39    38    1
    18    57    59   ar
    19    58    60   ar
    20   115   112    1
    21    31    30    2
    22    38    41    1
    23    38    37    1
    24    59    60   ar
    25   112   111    1
    26   112   113    1
    27    41    42    1
    28    30    37   am
    29    30    29    1
    30    44    42   ar
    31    44    46   ar
    32    42    43   ar
    33   113   114    2
    34    29    32    1
    35    29    28    1
    36    46    45   ar
    37    27    26    2
    38    32    33    1
    39    43    45   ar
    40    80    81    1
    41    26    28   am
    42    26    25    1
    43    33    34    1
    44    81    82    1
    45    34    36   am
    46    34    35    2
    47   126   124   am
    48    24    25    1
    49    24    19   am
    50    17    18    1
    51   119   120    1
    52   123   120    1
    53   123   124    1
    54    18    19    1
    55    18    21    1
    56    82    83    2
    57    82    84   am
    58   156   155    1
    59   155   154    1
    60   120   121    1
    61   124   125    2
    62    19    20    2
    63    23    21    1
    64    84    85    1
    65    21    22    1
    66    85    88    1
    67    85    86    1
    68   101   102    1
    69   101    98    1
    70   121   122    2
    71    90    89   ar
    72   135   133   ar
    73    62    61    1
    74    62    63    1
    75    68    67    2
    76   154   153    1
    77    88    89    1
    78   153   150    1
    79   150   149    1
    80   150   151    1
    81    89    91   ar
    82   149   147   am
    83    65    63   am
    84    65    66    1
    85   147   146    1
    86   147   148    2
    87   146   145    1
    88    63    64    2
    89    99    98    1
    90    99   100    2
    91    86    92   am
    92    86    87    2
    93    67    66    1
    94    67    72   am
    95    98    97    1
    96   133   132    1
    97   133   134   ar
    98   132   131    1
    99    97    94   am
   100   145   138   am
   101    69    66    1
   102    69    70    1
   103    69    71    1
   104    92    93    1
   105    73    74    1
   106    73    72    1
   107    73    76    1
   108     4     3    2
   109    74    75    2
   110   130   129    2
   111   151   152    2
   112   151   157   am
   113   127   128    1
   114    94    93    1
   115    94    95    2
   116    77    76    1
   117    77    78    1
   118     3     2    1
   119   138   139    2
   120   138   137    1
   121    93    96    1
   122   131   128    1
   123   129   128    1
   124   129   136   am
   125   157   158    1
   126    13    12    2
   127   137   136    1
   128   137   140    1
   129    79    78    1
   130   103   104    1
   131    12    11    1
   132     2     1    1
   133     2     5    1
   134     6     5    1
   135     6     7    1
   136   107   104    1
   137   107   108    1
   138   158   159    1
   139   158   161    1
   140   105   104    1
   141   105   106    2
   142     9     7   am
   143   159   160    2
   144   140   141    1
   145   108   109    1
   146    16    14    1
   147     7     8    2
   148   163   161    1
   149   161   162    1
   150   141   142    1
   151    11    14    1
   152    11    10    1
   153    14    15    1
   154   109   110    1
   155   142   143    2
   156   142   144   am
