@<TRIPOS>MOLECULE
tmp/5wkcA02.pdb
 155 150 0 0 0
SMALL
GASTEIGER

@<TRIPOS>ATOM
      1  N          3.8200  482.5720   43.9730 N.3   401  VAL401     -0.1231
      2  CA         2.8950  481.4840   43.7070 C.3   401  VAL401      0.1692
      3  C          1.5780  481.7060   44.4480 C.2   401  VAL401      0.2593
      4  O          1.5680  481.9920   45.6450 O.2   401  VAL401     -0.2718
      5  CB         3.5170  480.1290   44.1040 C.3   401  VAL401      0.0266
      6  CG1        2.4960  479.0010   44.0050 C.3   401  VAL401      0.0020
      7  CG2        4.7230  479.8360   43.2260 C.3   401  VAL401      0.0020
      8  N          0.4690  481.5920   43.7230 N.am  402  GLY402     -0.1942
      9  CA        -0.8440  481.7950   44.3100 C.3   402  GLY402      0.2014
     10  C         -1.8000  482.5460   43.4040 C.2   402  GLY402      0.2639
     11  O         -1.6850  482.4990   42.1780 O.2   402  GLY402     -0.2714
     12  N         -2.7490  483.2440   44.0170 N.am  403  GLN403     -0.1963
     13  CA        -3.7710  483.9720   43.2770 C.3   403  GLN403      0.1733
     14  C         -3.1840  485.1100   42.4500 C.2   403  GLN403      0.2616
     15  O         -3.5750  485.3150   41.3010 O.2   403  GLN403     -0.2715
     16  CB        -4.8250  484.5170   44.2360 C.3   403  GLN403      0.0408
     17  CG        -5.6320  483.4380   44.9270 C.3   403  GLN403      0.0908
     18  CD        -6.7240  484.0120   45.7990 C.2   403  GLN403      0.2608
     19  OE1       -6.4820  484.9110   46.6020 O.2   403  GLN403     -0.2717
     20  NE2       -7.9400  483.5010   45.6400 N.am  403  GLN403     -0.0878
     21  N         -2.2440  485.8450   43.0360 N.am  404  HIS404     -0.1973
     22  CA        -1.6020  486.9580   42.3450 C.3   404  HIS404      0.1656
     23  C         -0.9200  486.4670   41.0690 C.2   404  HIS404      0.2291
     24  O         -0.8870  487.1670   40.0580 O.2   404  HIS404     -0.2864
     25  CB        -0.5820  487.6430   43.2570 C.3   404  HIS404      0.0771
     26  CG         0.5910  486.7760   43.5920 C.ar  404  HIS404      0.0820
     27  ND1        0.5660  485.8500   44.6110 N.ar  404  HIS404     -0.2267
     28  CD2        1.8130  486.6710   43.0180 C.ar  404  HIS404      0.1154
     29  CE1        1.7270  485.2220   44.6620 C.ar  404  HIS404      0.1986
     30  NE2        2.5010  485.7030   43.7060 N.ar  404  HIS404     -0.2212
     31  N         -3.6530  485.8290   38.4350 N.3   407  TRP407     -0.1241
     32  CA        -4.1770  487.1140   37.9970 C.3   407  TRP407      0.1605
     33  C         -3.1670  487.8370   37.1180 C.2   407  TRP407      0.2264
     34  O         -3.5420  488.5250   36.1690 O.2   407  TRP407     -0.2867
     35  CB        -4.5590  487.9710   39.2020 C.3   407  TRP407      0.0550
     36  CG        -5.8350  487.5320   39.8470 C.ar  407  TRP407      0.0003
     37  CD1       -6.9480  487.0480   39.2160 C.ar  407  TRP407      0.0946
     38  CD2       -6.1300  487.5160   41.2470 C.ar  407  TRP407      0.0152
     39  NE1       -7.9200  486.7440   40.1400 N.ar  407  TRP407     -0.2442
     40  CE2       -7.4430  487.0220   41.3950 C.ar  407  TRP407      0.0810
     41  CE3       -5.4130  487.8770   42.3930 C.ar  407  TRP407      0.0012
     42  CZ2       -8.0530  486.8800   42.6400 C.ar  407  TRP407      0.0191
     43  CZ3       -6.0200  487.7340   43.6290 C.ar  407  TRP407      0.0001
     44  CH2       -7.3270  487.2400   43.7430 C.ar  407  TRP407      0.0015
     45  N          6.7350  473.0510   39.9200 N.3   426  LEU426     -0.1231
     46  CA         6.9250  472.8840   41.3530 C.3   426  LEU426      0.1693
     47  C          6.1000  473.9110   42.1210 C.2   426  LEU426      0.2593
     48  O          5.6020  473.6260   43.2080 O.2   426  LEU426     -0.2718
     49  CB         8.4050  473.0060   41.7270 C.3   426  LEU426      0.0284
     50  CG         8.7680  472.4880   43.1210 C.3   426  LEU426      0.0019
     51  CD1        8.4770  470.9990   43.2310 C.3   426  LEU426      0.0001
     52  CD2       10.2240  472.7780   43.4690 C.3   426  LEU426      0.0001
     53  N          5.9580  475.1060   41.5520 N.am  427  GLY427     -0.1942
     54  CA         5.1650  476.1530   42.1730 C.3   427  GLY427      0.2014
     55  C          5.7550  476.6180   43.4910 C.2   427  GLY427      0.2640
     56  O          5.1140  476.5250   44.5400 O.2   427  GLY427     -0.2714
     57  N          6.9780  477.1320   43.4320 N.am  428  THR428     -0.1936
     58  CA         7.7170  477.5010   44.6290 C.3   428  THR428      0.2028
     59  C          7.4470  478.9280   45.0820 C.2   428  THR428      0.2642
     60  O          7.8170  479.8780   44.3970 O.2   428  THR428     -0.2714
     61  CB         9.2350  477.3500   44.4100 C.3   428  THR428      0.1808
     62  OG1        9.5200  476.0440   43.8930 O.3   428  THR428     -0.2208
     63  CG2        9.9810  477.5520   45.7200 C.3   428  THR428      0.0379
     64  N          6.8050  479.0740   46.2360 N.am  429  MET429     -0.1976
     65  CA         6.6750  480.3790   46.8740 C.3   429  MET429      0.1605
     66  C          8.0520  480.9510   47.1760 C.2   429  MET429      0.2287
     67  O          8.9500  480.2210   47.5980 O.2   429  MET429     -0.2864
     68  CB         5.8730  480.2790   48.1670 C.3   429  MET429      0.0413
     69  CG         4.4220  479.9110   47.9850 C.3   429  MET429      0.0598
     70  SD         3.6630  479.5680   49.5800 S.3   429  MET429     -0.1393
     71  CE         3.7860  481.1580   50.3930 C.3   429  MET429      0.0692
     72  N          2.9920  487.8490   45.9790 N.3   453  GLY453     -0.1210
     73  CA         1.9880  487.7630   47.0240 C.3   453  GLY453      0.1956
     74  C          2.6450  488.0290   48.3600 C.2   453  GLY453      0.2612
     75  O          3.8690  487.9550   48.4750 O.2   453  GLY453     -0.2717
     76  N          1.8480  488.3400   49.3760 N.am  454  ASP454     -0.1959
     77  CA         2.4200  488.6680   50.6740 C.3   454  ASP454      0.1840
     78  C          3.0450  487.4330   51.3360 C.2   454  ASP454      0.2622
     79  O          4.1550  487.5120   51.8690 O.2   454  ASP454     -0.2715
     80  CB         1.3670  489.3140   51.5860 C.3   454  ASP454      0.1450
     81  CG         0.0840  488.5100   51.6740 C.2   454  ASP454      0.3671
     82  OD1       -0.4240  488.0660   50.6230 O.co2 454  ASP454     -0.2456
     83  OD2       -0.4220  488.3340   52.8010 O.co2 454  ASP454     -0.2456
     84  N          2.3590  486.2940   51.2830 N.am  455  ALA455     -0.1963
     85  CA         2.9090  485.0670   51.8640 C.3   455  ALA455      0.1728
     86  C          4.1530  484.5960   51.1090 C.2   455  ALA455      0.2616
     87  O          5.1530  484.2340   51.7280 O.2   455  ALA455     -0.2715
     88  CB         1.8610  483.9660   51.8900 C.3   455  ALA455      0.0334
     89  N          4.0850  484.5940   49.7780 N.am  456  SER456     -0.1950
     90  CA         5.2190  484.1920   48.9430 C.3   456  SER456      0.1924
     91  C          6.4390  485.0690   49.1940 C.2   456  SER456      0.2314
     92  O          7.5590  484.5730   49.3170 O.2   456  SER456     -0.2863
     93  CB         4.8540  484.2490   47.4570 C.3   456  SER456      0.2116
     94  OG         3.7720  483.3890   47.1550 O.3   456  SER456     -0.2180
     95  N          8.7390  484.4610   52.1540 N.3   459  MET459     -0.1245
     96  CA         9.6110  483.2920   52.1070 C.3   459  MET459      0.1570
     97  C         11.0690  483.6780   51.8630 C.2   459  MET459      0.2261
     98  O         11.9720  483.1620   52.5210 O.2   459  MET459     -0.2867
     99  CB         9.1400  482.3150   51.0260 C.3   459  MET459      0.0387
    100  CG         7.8700  481.5540   51.3860 C.3   459  MET459      0.0595
    101  SD         8.1990  479.8250   51.7800 S.3   459  MET459     -0.1393
    102  CE         6.5920  479.2780   52.3560 C.3   459  MET459      0.0692
    103  N          0.8770  492.2760   46.0640 N.3   479  LEU479     -0.1245
    104  CA        -0.5710  492.2540   46.2120 C.3   479  LEU479      0.1561
    105  C         -0.8930  491.7080   47.5920 C.2   479  LEU479      0.2260
    106  O         -0.9220  490.4930   47.7980 O.2   479  LEU479     -0.2867
    107  CB        -1.2330  491.4060   45.1240 C.3   479  LEU479      0.0270
    108  CG        -1.1430  491.9540   43.7000 C.3   479  LEU479      0.0019
    109  CD1       -1.9570  491.1000   42.7430 C.3   479  LEU479      0.0001
    110  CD2       -1.6040  493.4040   43.6540 C.3   479  LEU479      0.0001
    111  N         -3.1390  490.7050   50.3850 N.3   481  ASN481     -0.1240
    112  CA        -4.4730  490.3490   50.8580 C.3   481  ASN481      0.1653
    113  C         -4.4200  489.7540   52.2650 C.2   481  ASN481      0.2266
    114  O         -5.4120  489.2210   52.7600 O.2   481  ASN481     -0.2867
    115  CB        -5.1560  489.3760   49.8870 C.3   481  ASN481      0.1155
    116  CG        -4.2470  488.2320   49.4580 C.2   481  ASN481      0.2627
    117  OD1       -3.2340  487.9500   50.0980 O.2   481  ASN481     -0.2716
    118  ND2       -4.6150  487.5610   48.3720 N.am  481  ASN481     -0.0877
    119  N         -3.1870  487.1200   53.4560 N.3   483  GLU483     -0.1231
    120  CA        -3.6100  485.7320   53.4760 C.3   483  GLU483      0.1699
    121  C         -2.8330  484.9200   52.4610 C.2   483  GLU483      0.2592
    122  O         -2.2730  485.4630   51.5090 O.2   483  GLU483     -0.2718
    123  CB        -5.1100  485.6160   53.1770 C.3   483  GLU483      0.0402
    124  CG        -5.4690  486.0490   51.7630 C.3   483  GLU483      0.1161
    125  CD        -6.9470  485.9130   51.4420 C.2   483  GLU483      0.3649
    126  OE1       -7.6000  484.9750   51.9520 O.co2 483  GLU483     -0.2457
    127  OE2       -7.4550  486.7550   50.6730 O.co2 483  GLU483     -0.2457
    128  N         -2.8050  483.6130   52.6780 N.am  484  GLN484     -0.1966
    129  CA        -2.3890  482.6770   51.6520 C.3   484  GLN484      0.1733
    130  C         -3.5910  482.4410   50.7490 C.2   484  GLN484      0.2617
    131  O         -4.2990  481.4430   50.8850 O.2   484  GLN484     -0.2715
    132  CB        -1.8900  481.3840   52.2850 C.3   484  GLN484      0.0408
    133  CG        -0.6660  481.5950   53.1600 C.3   484  GLN484      0.0908
    134  CD        -0.5070  480.5110   54.1980 C.2   484  GLN484      0.2608
    135  OE1       -0.7680  479.3390   53.9320 O.2   484  GLN484     -0.2717
    136  NE2       -0.0920  480.8980   55.3980 N.am  484  GLN484     -0.0878
    137  N         -3.8170  483.3840   49.8390 N.am  485  GLY485     -0.1940
    138  CA        -5.0430  483.4490   49.0590 C.3   485  GLY485      0.2014
    139  C         -5.4670  482.1870   48.3330 C.2   485  GLY485      0.2639
    140  O         -6.6320  481.8010   48.3890 O.2   485  GLY485     -0.2714
    141  N         -4.5280  481.5430   47.6500 N.am  486  MET486     -0.1963
    142  CA        -4.8510  480.3610   46.8610 C.3   486  MET486      0.1736
    143  C         -5.2910  479.2150   47.7660 C.2   486  MET486      0.2616
    144  O         -6.1230  478.3910   47.3800 O.2   486  MET486     -0.2715
    145  CB        -3.6440  479.9420   46.0150 C.3   486  MET486      0.0427
    146  CG        -3.8970  478.7990   45.0380 C.3   486  MET486      0.0599
    147  SD        -4.3900  479.3360   43.3860 S.3   486  MET486     -0.1393
    148  CE        -6.1540  479.5670   43.6030 C.3   486  MET486      0.0692
    149  N         -4.7500  479.1720   48.9790 N.am  487  VAL487     -0.1977
    150  CA        -5.1500  478.1350   49.9200 C.3   487  VAL487      0.1596
    151  C         -6.5090  478.4420   50.5440 C.2   487  VAL487      0.2287
    152  O         -7.3500  477.5460   50.6670 O.2   487  VAL487     -0.2864
    153  CB        -4.1120  477.9320   51.0320 C.3   487  VAL487      0.0276
    154  CG1       -4.4040  476.6360   51.7740 C.3   487  VAL487      0.0022
    155  CG2       -2.7180  477.8860   50.4430 C.3   487  VAL487      0.0022
@<TRIPOS>BOND
     1    34    33    2
     2    33    32    1
     3    32    31    1
     4    32    35    1
     5    35    36    1
     6    37    36   ar
     7    37    39   ar
     8    36    38   ar
     9    45    46    1
    10    24    23    2
    11    39    40   ar
    12    23    22    1
    13    38    40   ar
    14    38    41   ar
    15    15    14    2
    16    46    49    1
    17    46    47    1
    18    40    42   ar
    19    53    47   am
    20    53    54    1
    21    49    50    1
    22    47    48    2
    23    54    55    1
    24    11    10    2
    25    22    21    1
    26    22    25    1
    27    41    43   ar
    28    14    21   am
    29    14    13    1
    30    42    44   ar
    31   109   108    1
    32    28    26   ar
    33    28    30   ar
    34    50    51    1
    35    50    52    1
    36     7     5    1
    37    25    26    1
    38    13    12    1
    39    13    16    1
    40   147   148    1
    41   147   146    1
    42    10    12   am
    43    10     9    1
    44    57    55   am
    45    57    58    1
    46    55    56    2
    47    26    27   ar
    48    43    44   ar
    49   110   108    1
    50   108   107    1
    51    30    29   ar
    52     2     1    1
    53     2     5    1
    54     2     3    1
    55     8     9    1
    56     8     3   am
    57    62    61    1
    58     6     5    1
    59    16    17    1
    60    60    59    2
    61    61    58    1
    62    61    63    1
    63     3     4    2
    64    27    29   ar
    65    58    59    1
    66    17    18    1
    67   146   145    1
    68    59    64   am
    69   107   104    1
    70    20    18   am
    71    18    19    2
    72    72    73    1
    73   145   142    1
    74   103   104    1
    75   104   105    1
    76    64    65    1
    77   142   141    1
    78   142   143    1
    79    65    66    1
    80    65    68    1
    81    73    74    1
    82    94    93    1
    83    66    67    2
    84   144   143    2
    85    93    90    1
    86   105   106    2
    87   141   139   am
    88   143   149   am
    89    69    68    1
    90    69    70    1
    91   139   140    2
    92   139   138    1
    93    74    75    2
    94    74    76   am
    95   118   116   am
    96    90    91    1
    97    90    89    1
    98   149   150    1
    99   138   137    1
   100    91    92    2
   101    76    77    1
   102   116   115    1
   103   116   117    2
   104    70    71    1
   105    89    86   am
   106   137   130   am
   107   115   112    1
   108   150   151    1
   109   150   153    1
   110   111   112    1
   111   155   153    1
   112   151   152    2
   113    82    81   ar
   114   127   125   ar
   115    77    78    1
   116    77    80    1
   117   130   131    2
   118   130   129    1
   119   112   113    1
   120    99   100    1
   121    99    96    1
   122   153   154    1
   123    86    87    2
   124    86    85    1
   125    84    78   am
   126    84    85    1
   127    78    79    2
   128   100   101    1
   129   125   124    1
   130   125   126   ar
   131   122   121    2
   132    80    81    1
   133   129   132    1
   134   129   128    1
   135    81    83   ar
   136   124   123    1
   137   101   102    1
   138    97    96    1
   139    97    98    2
   140    85    88    1
   141    96    95    1
   142   113   114    2
   143   132   133    1
   144   121   128   am
   145   121   120    1
   146   133   134    1
   147   123   120    1
   148   119   120    1
   149   135   134    2
   150   134   136   am
