@<TRIPOS>MOLECULE
tmp/5wkgA04.pdb
 84 86 0 0 0
SMALL
GASTEIGER

@<TRIPOS>ATOM
      1  N         19.4140   11.0360   22.5800 N.3     3  GLY3       -0.1210
      2  CA        18.1600   10.5560   21.9880 C.3     3  GLY3        0.1940
      3  C         17.5920   11.5260   20.9580 C.2     3  GLY3        0.2453
      4  O         18.2790   12.4840   20.6010 O.2     3  GLY3       -0.2732
      5  N         16.3590   11.3030   20.4360 N.am    4  PRO4       -0.2728
      6  CA        15.7800   12.2510   19.4730 C.3     4  PRO4        0.1401
      7  C         15.7200   13.6970   19.9560 C.2     4  PRO4        0.2269
      8  O         15.5630   13.9750   21.1700 O.2     4  PRO4       -0.2865
      9  CB        14.3540   11.7310   19.2630 C.3     4  PRO4        0.0296
     10  CG        14.4530   10.2500   19.5840 C.3     4  PRO4        0.0237
     11  CD        15.4190   10.1930   20.7300 C.3     4  PRO4        0.0939
     12  N         12.4190   11.6290   15.5820 N.3    30  ASP30      -0.1225
     13  CA        13.4860   11.2600   14.6460 C.3    30  ASP30       0.1805
     14  C         12.9950    9.9770   13.9290 C.2    30  ASP30       0.2598
     15  O         11.9690   10.0310   13.2580 O.2    30  ASP30      -0.2718
     16  CB        14.8910   11.1040   15.2940 C.3    30  ASP30       0.1424
     17  CG        15.5890   12.3750   15.7870 C.2    30  ASP30       0.3668
     18  OD1       15.0780   13.4840   15.5190 O.co2  30  ASP30      -0.2456
     19  OD2       16.6820   12.2570   16.3830 O.co2  30  ASP30      -0.2456
     20  N         13.6450    8.8350   14.1410 N.am   31  ASP31      -0.1960
     21  CA        13.2630    7.5640   13.5040 C.3    31  ASP31       0.1840
     22  C         12.3300    6.7100   14.3430 C.2    31  ASP31       0.2621
     23  O         12.0850    5.5880   13.9510 O.2    31  ASP31      -0.2715
     24  CB        14.5170    6.6770   13.2440 C.3    31  ASP31       0.1450
     25  CG        15.6700    7.3220   12.5240 C.2    31  ASP31       0.3671
     26  OD1       15.4720    7.7710   11.3690 O.co2  31  ASP31      -0.2456
     27  OD2       16.7750    7.3530   13.0950 O.co2  31  ASP31      -0.2456
     28  N         11.9290    7.1600   15.5340 N.am   32  LEU32      -0.1977
     29  CA        11.1140    6.3560   16.4640 C.3    32  LEU32       0.1596
     30  C          9.6620    6.7550   16.3440 C.2    32  LEU32       0.2287
     31  O          9.3190    7.9240   16.5420 O.2    32  LEU32      -0.2864
     32  CB        11.6400    6.4830   17.9170 C.3    32  LEU32       0.0297
     33  CG        13.1970    6.4140   18.0740 C.3    32  LEU32       0.0022
     34  CD1       13.6330    6.6760   19.4720 C.3    32  LEU32       0.0001
     35  CD2       13.7940    5.0320   17.5790 C.3    32  LEU32       0.0001
     36  N         21.3770    1.4060   21.5530 N.3   209  TYR209     -0.1228
     37  CA        20.5150    2.5550   21.6860 C.3   209  TYR209      0.1721
     38  C         21.1730    3.5220   22.7120 C.2   209  TYR209      0.2437
     39  O         21.6050    3.0610   23.7670 O.2   209  TYR209     -0.2733
     40  CB        19.0500    2.1820   22.0840 C.3   209  TYR209      0.0547
     41  CG        18.1800    3.4190   22.1430 C.ar  209  TYR209     -0.0200
     42  CD1       17.5240    3.8870   21.0060 C.ar  209  TYR209     -0.0009
     43  CD2       18.1470    4.2190   23.2870 C.ar  209  TYR209     -0.0009
     44  CE1       16.8160    5.0900   21.0190 C.ar  209  TYR209      0.0417
     45  CE2       17.4950    5.4550   23.2890 C.ar  209  TYR209      0.0417
     46  CZ        16.7990    5.8660   22.1620 C.ar  209  TYR209      0.1957
     47  OH        16.1050    7.0530   22.1500 O.3   209  TYR209     -0.2866
     48  N         21.2810    4.8370   22.4320 N.am  210  PRO210     -0.2718
     49  CA        20.7940    5.5800   21.2480 C.3   210  PRO210      0.1535
     50  C         21.6120    5.2670   19.9770 C.2   210  PRO210      0.2598
     51  O         22.5390    4.4490   20.0060 O.2   210  PRO210     -0.2715
     52  CB        20.8640    7.0510   21.7070 C.3   210  PRO210      0.0310
     53  CG        20.9830    6.9970   23.2030 C.3   210  PRO210      0.0237
     54  CD        21.8120    5.7740   23.4340 C.3   210  PRO210      0.0939
     55  N         21.1960    5.8440   18.8440 N.am  211  LYS211     -0.1964
     56  CA        21.7830    5.6550   17.5260 C.3   211  LYS211      0.1713
     57  C         23.2920    6.0080   17.4230 C.2   211  LYS211      0.2458
     58  O         23.9390    5.2360   16.7330 O.2   211  LYS211     -0.2730
     59  CB        21.0070    6.4490   16.4610 C.3   211  LYS211      0.0311
     60  CG        21.0150    5.8180   15.0690 C.3   211  LYS211      0.0038
     61  CD        20.0420    6.5570   14.1360 C.3   211  LYS211      0.0206
     62  CE        20.1470    6.0010   12.7350 C.3   211  LYS211      0.1093
     63  NZ        19.0240    6.4360   11.8620 N.3   211  LYS211     -0.1314
     64  N         23.8760    7.1240   17.9790 N.am  212  PRO212     -0.2727
     65  CA        25.3290    7.3820   17.7800 C.3   212  PRO212      0.1402
     66  C         26.1840    6.2280   18.2830 C.2   212  PRO212      0.2269
     67  O         25.9590    5.7530   19.3800 O.2   212  PRO212     -0.2865
     68  CB        25.5840    8.6730   18.5860 C.3   212  PRO212      0.0296
     69  CG        24.2510    9.3740   18.5430 C.3   212  PRO212      0.0237
     70  CD        23.2670    8.2260   18.7570 C.3   212  PRO212      0.0939
     71  N         19.4350   -0.5560   16.9010 N.3   240  TRP240     -0.1241
     72  CA        20.0370   -0.4770   15.5830 C.3   240  TRP240      0.1605
     73  C         21.0750   -1.5680   15.3180 C.2   240  TRP240      0.2264
     74  O         21.6120   -2.1780   16.2530 O.2   240  TRP240     -0.2867
     75  CB        20.6720    0.9110   15.4140 C.3   240  TRP240      0.0550
     76  CG        19.7230    2.0220   15.7250 C.ar  240  TRP240      0.0003
     77  CD1       19.5540    2.6450   16.9250 C.ar  240  TRP240      0.0946
     78  CD2       18.6960    2.5240   14.8630 C.ar  240  TRP240      0.0152
     79  NE1       18.5320    3.5640   16.8390 N.ar  240  TRP240     -0.2442
     80  CE2       18.0050    3.5270   15.5750 C.ar  240  TRP240      0.0810
     81  CE3       18.3360    2.2720   13.5270 C.ar  240  TRP240      0.0012
     82  CZ2       16.9540    4.2560   15.0070 C.ar  240  TRP240      0.0191
     83  CZ3       17.3080    3.0080   12.9590 C.ar  240  TRP240      0.0001
     84  CH2       16.6300    3.9850   13.6940 C.ar  240  TRP240      0.0015
@<TRIPOS>BOND
     1    26    25   ar
     2    63    62    1
     3    25    27   ar
     4    25    24    1
     5    62    61    1
     6    83    81   ar
     7    83    84   ar
     8    24    21    1
     9    15    14    2
    10    21    20    1
    11    21    22    1
    12    81    78   ar
    13    84    82   ar
    14    14    20   am
    15    14    13    1
    16    23    22    2
    17    61    60    1
    18    22    28   am
    19    13    16    1
    20    13    12    1
    21    78    80   ar
    22    78    76   ar
    23    82    80   ar
    24    60    59    1
    25    16    17    1
    26    73    72    1
    27    73    74    2
    28    75    72    1
    29    75    76    1
    30    18    17   ar
    31    28    29    1
    32    80    79   ar
    33    72    71    1
    34    76    77   ar
    35    17    19   ar
    36    30    29    1
    37    30    31    2
    38    59    56    1
    39    29    32    1
    40    58    57    2
    41    79    77   ar
    42    57    56    1
    43    57    64   am
    44    56    55    1
    45    35    33    1
    46    65    64    1
    47    65    66    1
    48    65    68    1
    49    32    33    1
    50    64    70    1
    51    33    34    1
    52    66    67    2
    53    69    68    1
    54    69    70    1
    55    55    50   am
    56     9     6    1
    57     9    10    1
    58     6     7    1
    59     6     5    1
    60    10    11    1
    61     7     8    2
    62    50    51    2
    63    50    49    1
    64     5    11    1
    65     5     3   am
    66     4     3    2
    67     3     2    1
    68    42    44   ar
    69    42    41   ar
    70    44    46   ar
    71    49    52    1
    72    49    48    1
    73    36    37    1
    74    37    40    1
    75    37    38    1
    76    52    53    1
    77     2     1    1
    78    40    41    1
    79    41    43   ar
    80    47    46    1
    81    46    45   ar
    82    48    38   am
    83    48    54    1
    84    38    39    2
    85    53    54    1
    86    43    45   ar
