@<TRIPOS>MOLECULE
tmp/5wkjA00.pdb
 99 92 0 0 0
SMALL
GASTEIGER

@<TRIPOS>ATOM
      1  N        -27.4650    7.8460    1.5270 N.3    27  MET27      -0.1245
      2  CA       -26.4460    7.0470    2.1850 C.3    27  MET27       0.1570
      3  C        -25.7130    7.9540    3.1630 C.2    27  MET27       0.2261
      4  O        -25.5410    9.1500    2.9040 O.2    27  MET27      -0.2867
      5  CB       -25.4710    6.4260    1.1760 C.3    27  MET27       0.0387
      6  CG       -26.1360    5.2760    0.4470 C.3    27  MET27       0.0595
      7  SD       -26.6340    3.7900    1.3490 S.3    27  MET27      -0.1393
      8  CE       -25.0240    3.0900    1.7390 C.3    27  MET27       0.0692
      9  N        -22.3290    7.6950    6.1420 N.3    29  LEU29      -0.1245
     10  CA       -21.2970    6.8930    6.7700 C.3    29  LEU29       0.1561
     11  C        -20.2500    7.8400    7.3540 C.2    29  LEU29       0.2260
     12  O        -20.4810    9.0530    7.4710 O.2    29  LEU29      -0.2867
     13  CB       -20.7490    5.8740    5.7660 C.3    29  LEU29       0.0270
     14  CG       -20.4830    6.3240    4.3450 C.3    29  LEU29       0.0019
     15  CD1      -19.4480    7.4430    4.3780 C.3    29  LEU29       0.0001
     16  CD2      -20.0270    5.1270    3.4490 C.3    29  LEU29       0.0001
     17  N        -18.6030    4.2670   -1.8520 N.3    43  HIS43      -0.1241
     18  CA       -19.9880    3.8160   -2.0000 C.3    43  HIS43       0.1621
     19  C        -21.0000    4.6950   -1.2500 C.2    43  HIS43       0.2264
     20  O        -22.2170    4.4270   -1.2820 O.2    43  HIS43      -0.2867
     21  CB       -20.0980    2.3310   -1.6190 C.3    43  HIS43       0.0745
     22  CG       -19.9620    2.0190   -0.1600 C.ar   43  HIS43       0.0817
     23  ND1      -18.7880    1.5590    0.4010 N.ar   43  HIS43      -0.2268
     24  CD2      -20.8810    2.0030    0.8290 C.ar   43  HIS43       0.1154
     25  CE1      -18.9820    1.3130    1.6830 C.ar   43  HIS43       0.1986
     26  NE2      -20.2440    1.5810    1.9690 N.ar   43  HIS43      -0.2212
     27  N        -26.0180   -1.0310   -5.1550 N.3    51  LEU51      -0.1245
     28  CA       -24.7920   -1.3480   -4.4190 C.3    51  LEU51       0.1561
     29  C        -24.1000   -2.6270   -4.8910 C.2    51  LEU51       0.2260
     30  O        -22.9350   -2.8420   -4.5410 O.2    51  LEU51      -0.2867
     31  CB       -25.0870   -1.4670   -2.9130 C.3    51  LEU51       0.0270
     32  CG       -25.5500   -0.2440   -2.0960 C.3    51  LEU51       0.0019
     33  CD1      -25.8780   -0.6700   -0.6840 C.3    51  LEU51       0.0001
     34  CD2      -24.5280    0.8770   -2.0550 C.3    51  LEU51       0.0001
     35  N        -18.9790    3.5600  -10.4180 N.3    56  TYR56      -0.1241
     36  CA       -18.5480    4.7050   -9.6260 C.3    56  TYR56       0.1605
     37  C        -18.0410    5.8500  -10.4830 C.2    56  TYR56       0.2264
     38  O        -18.1540    7.0110  -10.0800 O.2    56  TYR56      -0.2867
     39  CB       -17.4500    4.2830   -8.6540 C.3    56  TYR56       0.0534
     40  CG       -17.8950    3.3400   -7.5650 C.ar   56  TYR56      -0.0201
     41  CD1      -18.6880    3.7770   -6.5270 C.ar   56  TYR56      -0.0009
     42  CD2      -17.5000    2.0200   -7.5650 C.ar   56  TYR56      -0.0009
     43  CE1      -19.0580    2.9200   -5.5110 C.ar   56  TYR56       0.0417
     44  CE2      -17.8770    1.1530   -6.5550 C.ar   56  TYR56       0.0417
     45  CZ       -18.6510    1.6090   -5.5260 C.ar   56  TYR56       0.1957
     46  OH       -19.0180    0.7380   -4.4990 O.3    56  TYR56      -0.2866
     47  N        -23.6970    1.0200    8.8930 N.3   145  GLY145     -0.1225
     48  CA       -23.2990    2.3710    9.2500 C.3   145  GLY145      0.1811
     49  C        -21.8730    2.5230    9.7720 C.2   145  GLY145      0.2280
     50  O        -21.4780    3.6370   10.1330 O.2   145  GLY145     -0.2866
     51  N        -19.0710    1.8480    7.9310 N.3   147  CYS147     -0.1235
     52  CA       -18.1140    2.1690    6.8890 C.3   147  CYS147      0.1677
     53  C        -17.5200    3.5370    7.1520 C.2   147  CYS147      0.2270
     54  O        -18.1870    4.4530    7.6490 O.2   147  CYS147     -0.2867
     55  CB       -18.7720    2.0750    5.4920 C.3   147  CYS147      0.0956
     56  SG       -18.9870    0.3330    5.1130 S.3   147  CYS147     -0.0801
     57  N        -14.8330   -0.9460    4.6940 N.3   166  GLN166     -0.1231
     58  CA       -15.7250   -0.9680    3.5360 C.3   166  GLN166      0.1698
     59  C        -16.7960   -2.0490    3.5730 C.2   166  GLN166      0.2592
     60  O        -17.8920   -1.8190    3.0760 O.2   166  GLN166     -0.2718
     61  CB       -14.9030   -1.1510    2.2660 C.3   166  GLN166      0.0381
     62  CG       -13.9360   -0.0170    1.9720 C.3   166  GLN166      0.0905
     63  CD       -14.5080    0.9960    1.0010 C.2   166  GLN166      0.2608
     64  OE1      -15.6970    0.9780    0.7080 O.2   166  GLN166     -0.2717
     65  NE2      -13.6670    1.8920    0.5130 N.am  166  GLN166     -0.0878
     66  N        -16.5140   -3.2360    4.1010 N.am  167  MET167     -0.1979
     67  CA       -17.4770   -4.3030    3.8360 C.3   167  MET167      0.1605
     68  C        -17.2700   -5.5190    4.7240 C.2   167  MET167      0.2287
     69  O        -16.2160   -5.7090    5.3370 O.2   167  MET167     -0.2864
     70  CB       -17.3950   -4.7530    2.3920 C.3   167  MET167      0.0413
     71  CG       -16.1410   -5.5190    2.0940 C.3   167  MET167      0.0598
     72  SD       -15.8640   -5.6080    0.2760 S.3   167  MET167     -0.1393
     73  CE       -17.3260   -6.5540   -0.1450 C.3   167  MET167      0.0692
     74  N        -15.1770   -3.2970   -3.8830 N.3   189  ASP189     -0.1225
     75  CA       -16.2090   -2.6150   -3.0910 C.3   189  ASP189      0.1805
     76  C        -17.5460   -2.6710   -3.8220 C.2   189  ASP189      0.2598
     77  O        -18.1060   -1.6560   -4.2370 O.2   189  ASP189     -0.2718
     78  CB       -15.8120   -1.1730   -2.7600 C.3   189  ASP189      0.1424
     79  CG       -15.4940   -0.2950   -3.9930 C.2   189  ASP189      0.3668
     80  OD1      -15.0230   -0.7900   -5.0390 O.co2 189  ASP189     -0.2456
     81  OD2      -15.6720    0.9390   -3.8770 O.co2 189  ASP189     -0.2456
     82  N        -18.0050   -3.9130   -4.0120 N.am  190  LYS190     -0.1966
     83  CA       -19.2720   -4.2320   -4.6520 C.3   190  LYS190      0.1728
     84  C        -19.9860   -5.2600   -3.7940 C.2   190  LYS190      0.2616
     85  O        -19.3600   -6.1780   -3.2560 O.2   190  LYS190     -0.2715
     86  CB       -19.0800   -4.7940   -6.0640 C.3   190  LYS190      0.0311
     87  CG       -18.5740   -3.8140   -7.1060 C.3   190  LYS190      0.0038
     88  CD       -18.6080   -4.4180   -8.5030 C.3   190  LYS190      0.0206
     89  CE       -17.5920   -3.7420   -9.4070 C.3   190  LYS190      0.1093
     90  NZ       -17.6800   -2.2580   -9.3610 N.3   190  LYS190     -0.1314
     91  N        -21.2980   -5.1140   -3.6690 N.am  191  GLN191     -0.1977
     92  CA       -22.0650   -6.0340   -2.8330 C.3   191  GLN191      0.1601
     93  C        -22.5100   -7.2400   -3.6640 C.2   191  GLN191      0.2287
     94  O        -23.6870   -7.4370   -3.9660 O.2   191  GLN191     -0.2864
     95  CB       -23.2410   -5.3110   -2.1910 C.3   191  GLN191      0.0394
     96  CG       -23.8520   -6.0890   -1.0670 C.3   191  GLN191      0.0908
     97  CD       -24.7380   -5.2480   -0.2200 C.2   191  GLN191      0.2608
     98  OE1      -24.5120   -4.0450   -0.0790 O.2   191  GLN191     -0.2717
     99  NE2      -25.7580   -5.8730    0.3730 N.am  191  GLN191     -0.0878
@<TRIPOS>BOND
     1    37    38    2
     2    37    36    1
     3    35    36    1
     4    36    39    1
     5    89    90    1
     6    89    88    1
     7    39    40    1
     8    88    87    1
     9    40    42   ar
    10    40    41   ar
    11    42    44   ar
    12    87    86    1
    13    44    45   ar
    14    41    43   ar
    15    86    83    1
    16    45    43   ar
    17    45    46    1
    18    27    28    1
    19    80    79   ar
    20    29    30    2
    21    29    28    1
    22    83    82    1
    23    83    84    1
    24    28    31    1
    25    77    76    2
    26    82    76   am
    27    79    81   ar
    28    79    78    1
    29    94    93    2
    30    74    75    1
    31    76    75    1
    32    84    91   am
    33    84    85    2
    34    91    92    1
    35    93    92    1
    36    75    78    1
    37    31    32    1
    38    92    95    1
    39    95    96    1
    40    32    34    1
    41    32    33    1
    42    18    17    1
    43    18    21    1
    44    18    19    1
    45    21    22    1
    46    20    19    2
    47    96    97    1
    48    97    98    2
    49    97    99   am
    50    22    23   ar
    51    22    24   ar
    52    73    72    1
    53    72    71    1
    54    23    25   ar
    55     6     5    1
    56     6     7    1
    57    65    63   am
    58    64    63    2
    59    24    26   ar
    60    63    62    1
    61     5     2    1
    62     7     8    1
    63     1     2    1
    64    25    26   ar
    65    62    61    1
    66    71    70    1
    67     2     3    1
    68    61    58    1
    69    70    67    1
    70     4     3    2
    71    60    59    2
    72    16    14    1
    73    58    59    1
    74    58    57    1
    75    59    66   am
    76    67    66    1
    77    67    68    1
    78    14    15    1
    79    14    13    1
    80    68    69    2
    81    56    55    1
    82    55    52    1
    83    13    10    1
    84     9    10    1
    85    10    11    1
    86    52    53    1
    87    52    51    1
    88    53    54    2
    89    11    12    2
    90    47    48    1
    91    48    49    1
    92    49    50    2
