@<TRIPOS>MOLECULE
tmp/5wkkA00.pdb
 78 71 0 0 0
SMALL
GASTEIGER

@<TRIPOS>ATOM
      1  N         -4.6740   23.3260   23.1010 N.3     8  MET8       -0.1230
      2  CA        -4.3650   24.6870   23.5010 C.3     8  MET8        0.1702
      3  C         -4.4270   25.6180   22.3040 C.2     8  MET8        0.2593
      4  O         -3.6990   25.4150   21.3290 O.2     8  MET8       -0.2718
      5  CB        -2.9730   24.7710   24.1190 C.3     8  MET8        0.0401
      6  CG        -2.6350   26.1300   24.6700 C.3     8  MET8        0.0596
      7  SD        -3.2700   26.3520   26.2970 S.3     8  MET8       -0.1393
      8  CE        -2.1010   25.3430   27.2340 C.3     8  MET8        0.0692
      9  N         -5.2830   26.6250   22.3740 N.am    9  SER9       -0.1938
     10  CA        -5.3630   27.6310   21.3280 C.3     9  SER9        0.2055
     11  C         -4.6210   28.8920   21.7590 C.2     9  SER9        0.2643
     12  O         -4.3490   29.0980   22.9390 O.2     9  SER9       -0.2714
     13  CB        -6.8260   27.9780   21.0210 C.3     9  SER9        0.2130
     14  OG        -7.5490   26.8730   20.5290 O.3     9  SER9       -0.2179
     15  N         -4.2690   29.7350   20.7930 N.am   10  HIS10      -0.1973
     16  CA        -3.7560   31.0450   21.1420 C.3    10  HIS10       0.1656
     17  C         -4.8690   31.8780   21.7780 C.2    10  HIS10       0.2291
     18  O         -6.0540   31.6580   21.5100 O.2    10  HIS10      -0.2864
     19  CB        -3.2310   31.7730   19.8990 C.3    10  HIS10       0.0771
     20  CG        -2.0360   31.1230   19.2890 C.ar   10  HIS10       0.0820
     21  ND1       -0.7980   31.1340   19.8900 N.ar   10  HIS10      -0.2267
     22  CD2       -1.8920   30.4370   18.1290 C.ar   10  HIS10       0.1154
     23  CE1        0.0600   30.4820   19.1240 C.ar   10  HIS10       0.1986
     24  NE2       -0.5770   30.0480   18.0520 N.ar   10  HIS10      -0.2212
     25  N         -0.6860   22.3620   13.6220 N.3   111  ALA111     -0.1245
     26  CA        -1.8210   22.8670   14.3840 C.3   111  ALA111      0.1562
     27  C         -2.0370   24.3540   14.1520 C.2   111  ALA111      0.2260
     28  O         -1.0830   25.1250   13.9790 O.2   111  ALA111     -0.2867
     29  CB        -1.5980   22.6470   15.8760 C.3   111  ALA111      0.0290
     30  N         -5.0810   27.6420   15.4080 N.3   113  SER113     -0.1217
     31  CA        -6.1730   28.0790   16.2510 C.3   113  SER113      0.1889
     32  C         -7.2760   28.6350   15.3700 C.2   113  SER113      0.2288
     33  O         -6.9880   29.3290   14.3920 O.2   113  SER113     -0.2866
     34  CB        -5.7120   29.1690   17.2140 C.3   113  SER113      0.2089
     35  OG        -4.8370   28.6400   18.1960 O.3   113  SER113     -0.2183
     36  N         -8.6330   24.4530   18.5610 N.3   127  THR127     -0.1218
     37  CA        -7.4270   24.1960   17.7920 C.3   127  THR127      0.1862
     38  C         -7.5960   22.8600   17.0840 C.2   127  THR127      0.2287
     39  O         -8.2490   21.9430   17.5920 O.2   127  THR127     -0.2866
     40  CB        -6.1070   24.2330   18.6470 C.3   127  THR127      0.1770
     41  OG1       -4.9820   23.9480   17.8000 O.3   127  THR127     -0.2211
     42  CG2       -6.1190   23.2530   19.7740 C.3   127  THR127      0.0375
     43  N          3.7020   21.2660   20.5230 N.3   292  ASP292     -0.1239
     44  CA         2.7950   21.1730   21.6700 C.3   292  ASP292      0.1674
     45  C          3.4870   20.5490   22.8670 C.2   292  ASP292      0.2266
     46  O          3.3170   20.9800   24.0130 O.2   292  ASP292     -0.2867
     47  CB         1.5650   20.3160   21.3480 C.3   292  ASP292      0.1410
     48  CG         0.5590   21.0150   20.4610 C.2   292  ASP292      0.3668
     49  OD1        0.3720   22.2350   20.6610 O.co2 292  ASP292     -0.2456
     50  OD2       -0.0660   20.3380   19.5830 O.co2 292  ASP292     -0.2456
     51  N          6.3200   22.7780   24.3380 N.3   295  MET295     -0.1230
     52  CA         5.8050   23.9560   25.0400 C.3   295  MET295      0.1702
     53  C          5.0330   23.5680   26.2910 C.2   295  MET295      0.2592
     54  O          5.2610   24.1340   27.3690 O.2   295  MET295     -0.2718
     55  CB         4.9070   24.7800   24.1140 C.3   295  MET295      0.0401
     56  CG         5.6290   25.4590   22.9850 C.3   295  MET295      0.0596
     57  SD         4.5350   26.5890   22.0930 S.3   295  MET295     -0.1393
     58  CE         3.4190   25.4340   21.3160 C.3   295  MET295      0.0692
     59  N          4.1070   22.6180   26.1710 N.am  296  GLN296     -0.1979
     60  CA         3.1740   22.3910   27.2730 C.3   296  GLN296      0.1601
     61  C          3.8140   21.6260   28.4080 C.2   296  GLN296      0.2287
     62  O          3.5360   21.9030   29.5740 O.2   296  GLN296     -0.2864
     63  CB         1.9420   21.6430   26.7920 C.3   296  GLN296      0.0394
     64  CG         1.0130   22.5170   25.9840 C.3   296  GLN296      0.0908
     65  CD        -0.3140   21.8740   25.7580 C.2   296  GLN296      0.2608
     66  OE1       -0.8920   21.2850   26.6670 O.2   296  GLN296     -0.2717
     67  NE2       -0.8170   21.9770   24.5570 N.am  296  GLN296     -0.0878
     68  N          7.9640   23.5240   28.7340 N.3   299  GLY299     -0.1225
     69  CA         8.0690   24.9740   28.7430 C.3   299  GLY299      0.1811
     70  C          9.1110   25.5380   27.8040 C.2   299  GLY299      0.2280
     71  O          9.6790   26.5970   28.0880 O.2   299  GLY299     -0.2866
     72  N          9.7160   27.2230   24.4130 N.3   301  VAL301     -0.1245
     73  CA         9.1330   27.9580   23.2870 C.3   301  VAL301      0.1561
     74  C         10.1920   28.8330   22.6340 C.2   301  VAL301      0.2260
     75  O         11.3800   28.5250   22.6920 O.2   301  VAL301     -0.2867
     76  CB         7.9320   28.8190   23.7340 C.3   301  VAL301      0.0252
     77  CG1        7.3890   29.5200   22.5010 C.3   301  VAL301      0.0019
     78  CG2        6.8480   27.9370   24.3640 C.3   301  VAL301      0.0019
@<TRIPOS>BOND
     1    25    26    1
     2    28    27    2
     3    27    26    1
     4    26    29    1
     5    33    32    2
     6    32    31    1
     7    30    31    1
     8    31    34    1
     9    38    39    2
    10    38    37    1
    11    34    35    1
    12    37    36    1
    13    37    40    1
    14    41    40    1
    15    24    22   ar
    16    24    23   ar
    17    22    20   ar
    18    40    42    1
    19    23    21   ar
    20    20    21   ar
    21    20    19    1
    22    50    48   ar
    23    19    16    1
    24    48    49   ar
    25    48    47    1
    26    43    44    1
    27    14    13    1
    28    15    16    1
    29    15    11   am
    30    13    10    1
    31    16    17    1
    32    58    57    1
    33    10    11    1
    34    10     9    1
    35     4     3    2
    36    47    44    1
    37    18    17    2
    38    44    45    1
    39    11    12    2
    40    57    56    1
    41     3     9   am
    42     3     2    1
    43    77    76    1
    44    74    75    2
    45    74    73    1
    46    45    46    2
    47    56    55    1
    48     1     2    1
    49    73    76    1
    50    73    72    1
    51     2     5    1
    52    76    78    1
    53    55    52    1
    54     5     6    1
    55    51    52    1
    56    67    65   am
    57     6     7    1
    58    52    53    1
    59    65    64    1
    60    65    66    2
    61    64    63    1
    62    59    53   am
    63    59    60    1
    64    53    54    2
    65     7     8    1
    66    63    60    1
    67    60    61    1
    68    70    71    2
    69    70    69    1
    70    61    62    2
    71    68    69    1
