@<TRIPOS>MOLECULE
tmp/5wkrB01.pdb
 84 78 0 0 0
SMALL
GASTEIGER

@<TRIPOS>ATOM
      1  N        -12.8950  -30.6200   -4.5630 N.3    37  ARG37      -0.1245
      2  CA       -12.5200  -30.3710   -3.1770 C.3    37  ARG37       0.1563
      3  C        -13.6290  -29.5600   -2.5470 C.2    37  ARG37       0.2260
      4  O        -13.9700  -28.4650   -3.0180 O.2    37  ARG37      -0.2867
      5  CB       -11.2400  -29.5690   -3.1160 C.3    37  ARG37       0.0307
      6  CG       -10.8210  -29.2540   -1.6930 C.3    37  ARG37       0.0489
      7  CD        -9.5140  -28.4830   -1.6400 C.3    37  ARG37       0.2205
      8  NE        -9.1730  -28.2230   -0.2420 N.pl3  37  ARG37      -0.0865
      9  CZ        -7.9900  -27.8110    0.1950 C.cat  37  ARG37       0.5346
     10  NH1       -6.9900  -27.6090   -0.6500 N.pl3  37  ARG37       0.1354
     11  NH2       -7.8160  -27.6150    1.4870 N.pl3  37  ARG37       0.1354
     12  N        -15.3300  -27.8020    1.0260 N.3    39  MET39      -0.1245
     13  CA       -15.0250  -27.1860    2.3000 C.3    39  MET39       0.1570
     14  C        -16.2980  -27.1330    3.1290 C.2    39  MET39       0.2261
     15  O        -17.3250  -26.6190    2.6700 O.2    39  MET39      -0.2867
     16  CB       -14.4890  -25.7630    2.0490 C.3    39  MET39       0.0387
     17  CG       -14.3720  -24.8560    3.2670 C.3    39  MET39       0.0595
     18  SD       -13.8300  -23.1680    2.8440 S.3    39  MET39      -0.1393
     19  CE       -15.2650  -22.5290    2.0040 C.3    39  MET39       0.0692
     20  N        -14.8430  -25.7860   -3.6360 N.3    48  VAL48      -0.1231
     21  CA       -13.8640  -24.7030   -3.6920 C.3    48  VAL48       0.1692
     22  C        -12.8630  -24.8490   -4.8460 C.2    48  VAL48       0.2592
     23  O        -12.4220  -23.8460   -5.3910 O.2    48  VAL48      -0.2718
     24  CB       -13.1370  -24.4740   -2.3670 C.3    48  VAL48       0.0266
     25  CG1      -14.1150  -23.9560   -1.3040 C.3    48  VAL48       0.0020
     26  CG2      -12.4060  -25.7250   -1.9040 C.3    48  VAL48       0.0020
     27  N        -12.5240  -26.0790   -5.2210 N.am   49  THR49      -0.1953
     28  CA       -11.6320  -26.3260   -6.3590 C.3    49  THR49       0.1897
     29  C        -12.0260  -27.6620   -6.9980 C.2    49  THR49       0.2313
     30  O        -12.7190  -28.4730   -6.3840 O.2    49  THR49      -0.2863
     31  CB       -10.1330  -26.4280   -5.9830 C.3    49  THR49       0.1794
     32  OG1       -9.9540  -27.5990   -5.1920 O.3    49  THR49      -0.2208
     33  CG2       -9.6290  -25.2010   -5.2520 C.3    49  THR49       0.0378
     34  N        -14.0180  -21.3350   -5.9850 N.3   100  LYS100     -0.1245
     35  CA       -14.1630  -20.2060   -5.0800 C.3   100  LYS100      0.1561
     36  C        -12.9820  -19.2570   -5.2180 C.2   100  LYS100      0.2260
     37  O        -11.8590  -19.5900   -4.8530 O.2   100  LYS100     -0.2867
     38  CB       -14.2990  -20.6410   -3.6210 C.3   100  LYS100      0.0271
     39  CG       -14.4390  -19.4690   -2.6570 C.3   100  LYS100      0.0035
     40  CD       -14.5300  -19.9120   -1.2200 C.3   100  LYS100      0.0206
     41  CE       -14.6630  -18.7040   -0.3180 C.3   100  LYS100      0.1093
     42  NZ       -14.9320  -18.9880    1.1040 N.3   100  LYS100     -0.1314
     43  N        -10.1830  -16.6540   -4.6880 N.3   102  ILE102     -0.1245
     44  CA        -9.4130  -16.2630   -3.5200 C.3   102  ILE102      0.1561
     45  C         -8.1410  -15.5460   -3.9530 C.2   102  ILE102      0.2260
     46  O         -7.7290  -15.6260   -5.1050 O.2   102  ILE102     -0.2867
     47  CB        -9.0270  -17.5030   -2.6810 C.3   102  ILE102      0.0252
     48  CG1       -8.5160  -18.6280   -3.5920 C.3   102  ILE102      0.0019
     49  CG2      -10.2270  -17.9840   -1.8580 C.3   102  ILE102      0.0019
     50  CD1       -7.9690  -19.8250   -2.8420 C.3   102  ILE102      0.0001
     51  N         -4.1380  -16.6240    0.0830 N.3   106  GLN106     -0.1231
     52  CA        -5.0510  -17.4420    0.8410 C.3   106  GLN106      0.1698
     53  C         -4.8640  -18.9050    0.5000 C.2   106  GLN106      0.2592
     54  O         -4.8140  -19.7490    1.3830 O.2   106  GLN106     -0.2718
     55  CB        -6.4880  -17.0730    0.5250 C.3   106  GLN106      0.0381
     56  CG        -6.9230  -15.7240    1.0590 C.3   106  GLN106      0.0905
     57  CD        -8.3520  -15.4100    0.7180 C.2   106  GLN106      0.2608
     58  OE1       -8.6590  -14.7610   -0.2850 O.2   106  GLN106     -0.2717
     59  NE2       -9.2470  -15.8850    1.5620 N.am  106  GLN106     -0.0878
     60  N         -4.8260  -19.2090   -0.7910 N.am  107  TYR107     -0.1976
     61  CA        -4.6090  -20.5680   -1.2360 C.3   107  TYR107      0.1639
     62  C         -3.2900  -21.0730   -0.6410 C.2   107  TYR107      0.2290
     63  O         -3.2220  -22.1720   -0.0880 O.2   107  TYR107     -0.2864
     64  CB        -4.5720  -20.6370   -2.7800 C.3   107  TYR107      0.0560
     65  CG        -4.4940  -22.0550   -3.2700 C.ar  107  TYR107     -0.0198
     66  CD1       -5.6400  -22.8270   -3.3810 C.ar  107  TYR107     -0.0009
     67  CD2       -3.2850  -22.6460   -3.5520 C.ar  107  TYR107     -0.0009
     68  CE1       -5.5850  -24.1430   -3.7920 C.ar  107  TYR107      0.0417
     69  CE2       -3.2180  -23.9570   -3.9650 C.ar  107  TYR107      0.0417
     70  CZ        -4.3720  -24.7070   -4.0920 C.ar  107  TYR107      0.1957
     71  OH        -4.3040  -26.0180   -4.4660 O.3   107  TYR107     -0.2866
     72  N         -3.3720  -21.8130    3.2100 N.3   110  ALA110     -0.1231
     73  CA        -4.0550  -23.0410    3.5170 C.3   110  ALA110      0.1694
     74  C         -3.1960  -24.2540    3.1800 C.2   110  ALA110      0.2591
     75  O         -3.0550  -25.1790    4.0020 O.2   110  ALA110     -0.2718
     76  CB        -5.3560  -23.0900    2.7640 C.3   110  ALA110      0.0304
     77  N         -2.6110  -24.2660    1.9820 N.am  111  LEU111     -0.1980
     78  CA        -1.8280  -25.4220    1.5790 C.3   111  LEU111      0.1596
     79  C         -0.5390  -25.5310    2.3840 C.2   111  LEU111      0.2287
     80  O         -0.0680  -26.6330    2.6240 O.2   111  LEU111     -0.2864
     81  CB        -1.5030  -25.3990    0.0800 C.3   111  LEU111      0.0297
     82  CG        -2.5640  -26.0000   -0.8530 C.3   111  LEU111      0.0022
     83  CD1       -2.6130  -27.5070   -0.6260 C.3   111  LEU111      0.0001
     84  CD2       -3.9370  -25.4150   -0.6690 C.3   111  LEU111      0.0001
@<TRIPOS>BOND
     1    29    30    2
     2    29    28    1
     3    28    31    1
     4    28    27    1
     5    34    35    1
     6    31    33    1
     7    31    32    1
     8    23    22    2
     9    27    22   am
    10    36    35    1
    11    36    37    2
    12    46    45    2
    13    35    38    1
    14    22    21    1
    15    43    44    1
    16     1     2    1
    17    71    70    1
    18    70    69   ar
    19    70    68   ar
    20    69    67   ar
    21    45    44    1
    22    68    66   ar
    23    21    20    1
    24    21    24    1
    25    38    39    1
    26    48    50    1
    27    48    47    1
    28    67    65   ar
    29    44    47    1
    30    66    65   ar
    31    65    64    1
    32     2     5    1
    33     2     3    1
    34     5     6    1
    35     4     3    2
    36    64    61    1
    37    47    49    1
    38    39    40    1
    39    24    26    1
    40    24    25    1
    41     6     7    1
    42     7     8    1
    43    61    60    1
    44    61    62    1
    45    40    41    1
    46    82    84    1
    47    82    83    1
    48    82    81    1
    49    60    53   am
    50    10     9    1
    51    62    63    2
    52    41    42    1
    53    58    57    2
    54     8     9    2
    55    81    78    1
    56    51    52    1
    57     9    11    1
    58    53    52    1
    59    53    54    2
    60    55    52    1
    61    55    56    1
    62    57    56    1
    63    57    59   am
    64    12    13    1
    65    78    77    1
    66    78    79    1
    67    77    74   am
    68    19    18    1
    69    16    13    1
    70    16    17    1
    71    13    14    1
    72    79    80    2
    73    15    14    2
    74    76    73    1
    75    18    17    1
    76    74    73    1
    77    74    75    2
    78    72    73    1
