@<TRIPOS>MOLECULE
tmp/5wkrA00.pdb
 113 103 0 0 0
SMALL
GASTEIGER

@<TRIPOS>ATOM
      1  N         -2.0690  -31.8980   24.0630 N.3    37  ARG37      -0.1245
      2  CA        -1.6970  -31.7130   22.6840 C.3    37  ARG37       0.1563
      3  C         -0.7810  -32.8550   22.3290 C.2    37  ARG37       0.2260
      4  O          0.3030  -33.0060   22.9060 O.2    37  ARG37      -0.2867
      5  CB        -0.9900  -30.3940   22.4950 C.3    37  ARG37       0.0307
      6  CG        -0.4940  -30.2020   21.0960 C.3    37  ARG37       0.0489
      7  CD         0.1890  -28.8720   20.9590 C.3    37  ARG37       0.2205
      8  NE         0.6780  -28.7040   19.6150 N.pl3  37  ARG37      -0.0865
      9  CZ         1.3380  -27.6380   19.2060 C.cat  37  ARG37       0.5346
     10  NH1        1.6090  -26.6560   20.0530 N.pl3  37  ARG37       0.1354
     11  NH2        1.7360  -27.5660   17.9520 N.pl3  37  ARG37       0.1354
     12  N          1.0710  -35.1640   19.1610 N.3    39  MET39      -0.1245
     13  CA         1.5680  -35.0890   17.8010 C.3    39  MET39       0.1570
     14  C          1.9320  -36.4810   17.3920 C.2    39  MET39       0.2261
     15  O          2.6270  -37.1650   18.1250 O.2    39  MET39      -0.2867
     16  CB         2.8080  -34.2180   17.7450 C.3    39  MET39       0.0387
     17  CG         2.5640  -32.7960   18.1760 C.3    39  MET39       0.0595
     18  SD         3.9740  -31.7540   17.7960 S.3    39  MET39      -0.1393
     19  CE         4.0170  -31.9030   16.0080 C.3    39  MET39       0.0692
     20  N          4.1780  -38.5170   15.3300 N.3    41  ILE41      -0.1245
     21  CA         5.4240  -38.4050   14.5870 C.3    41  ILE41       0.1561
     22  C          5.9630  -39.7960   14.3250 C.2    41  ILE41       0.2260
     23  O          6.2900  -40.5480   15.2530 O.2    41  ILE41      -0.2867
     24  CB         6.4510  -37.5490   15.3410 C.3    41  ILE41       0.0252
     25  CG1        5.8840  -36.1490   15.5850 C.3    41  ILE41       0.0019
     26  CG2        7.7380  -37.4360   14.5360 C.3    41  ILE41       0.0019
     27  CD1        6.0330  -35.6680   16.9880 C.3    41  ILE41       0.0001
     28  N          2.9720  -33.5370   23.9140 N.3    48  VAL48      -0.1231
     29  CA         3.9640  -32.4700   23.9330 C.3    48  VAL48       0.1692
     30  C          3.6370  -31.3570   24.9170 C.2    48  VAL48       0.2592
     31  O          4.5290  -30.7770   25.5090 O.2    48  VAL48      -0.2718
     32  CB         4.2250  -31.8980   22.5240 C.3    48  VAL48       0.0266
     33  CG1        4.8390  -32.9630   21.6320 C.3    48  VAL48       0.0020
     34  CG2        2.9660  -31.3260   21.8910 C.3    48  VAL48       0.0020
     35  N          2.3540  -31.0790   25.1180 N.am   49  THR49      -0.1953
     36  CA         1.9250  -30.0860   26.1020 C.3    49  THR49       0.1897
     37  C          0.5600  -30.4620   26.6530 C.2    49  THR49       0.2313
     38  O         -0.1620  -31.2650   26.0500 O.2    49  THR49      -0.2863
     39  CB         1.7720  -28.6730   25.5110 C.3    49  THR49       0.1794
     40  OG1        0.6920  -28.6770   24.6000 O.3    49  THR49      -0.2208
     41  CG2        3.0240  -28.1690   24.8130 C.3    49  THR49       0.0378
     42  N          4.4050  -27.5070   29.6110 N.3    98  ILE98      -0.1245
     43  CA         5.2500  -28.1930   28.6540 C.3    98  ILE98       0.1561
     44  C          5.5460  -29.6100   29.1480 C.2    98  ILE98       0.2260
     45  O          6.0130  -29.7920   30.2790 O.2    98  ILE98      -0.2867
     46  CB         6.5640  -27.4350   28.4710 C.3    98  ILE98       0.0252
     47  CG1        6.2940  -26.0130   27.9650 C.3    98  ILE98       0.0019
     48  CG2        7.5030  -28.1800   27.5370 C.3    98  ILE98       0.0019
     49  CD1        5.6860  -25.9370   26.5690 C.3    98  ILE98       0.0001
     50  N          7.0760  -32.1130   26.6630 N.3   100  LYS100     -0.1245
     51  CA         8.3140  -32.3840   25.9390 C.3   100  LYS100      0.1561
     52  C          9.1190  -31.0850   25.8670 C.2   100  LYS100      0.2260
     53  O          8.6960  -30.1020   25.2760 O.2   100  LYS100     -0.2867
     54  CB         8.0100  -32.9060   24.5400 C.3   100  LYS100      0.0271
     55  CG         9.2470  -33.1260   23.6990 C.3   100  LYS100      0.0035
     56  CD         8.9220  -33.7550   22.3520 C.3   100  LYS100      0.0206
     57  CE        10.1500  -33.7740   21.4330 C.3   100  LYS100      0.1093
     58  NZ        11.1970  -34.6870   21.9530 N.3   100  LYS100     -0.1314
     59  N         11.4940  -28.1590   24.8760 N.3   102  ILE102     -0.1245
     60  CA        11.7250  -27.5950   23.5670 C.3   102  ILE102      0.1561
     61  C         12.3720  -26.2200   23.7200 C.2   102  ILE102      0.2260
     62  O         12.1980  -25.5580   24.7390 O.2   102  ILE102     -0.2867
     63  CB        10.3550  -27.5200   22.7870 C.3   102  ILE102      0.0252
     64  CG1       10.5370  -27.0980   21.3310 C.3   102  ILE102      0.0019
     65  CG2        9.3120  -26.5930   23.5140 C.3   102  ILE102      0.0019
     66  CD1        9.2670  -27.2570   20.4830 C.3   102  ILE102      0.0001
     67  N         11.7590  -22.7770   18.8710 N.3   106  GLN106     -0.1231
     68  CA        11.0550  -23.8380   18.1560 C.3   106  GLN106      0.1698
     69  C          9.5480  -23.7650   18.4290 C.2   106  GLN106      0.2592
     70  O          8.7330  -23.8320   17.5140 O.2   106  GLN106     -0.2718
     71  CB        11.6030  -25.2130   18.5450 C.3   106  GLN106      0.0381
     72  CG        13.0490  -25.4460   18.1510 C.3   106  GLN106      0.0905
     73  CD        13.6190  -26.7440   18.7490 C.2   106  GLN106      0.2608
     74  OE1       13.5270  -27.0010   19.9660 O.2   106  GLN106     -0.2717
     75  NE2       14.2070  -27.5620   17.8920 N.am  106  GLN106     -0.0878
     76  N          9.1800  -23.6090   19.6950 N.am  107  TYR107     -0.1976
     77  CA         7.7800  -23.5070   20.0560 C.3   107  TYR107      0.1639
     78  C          7.1530  -22.2620   19.4300 C.2   107  TYR107      0.2290
     79  O          6.1020  -22.3270   18.7730 O.2   107  TYR107     -0.2864
     80  CB         7.6390  -23.4490   21.5860 C.3   107  TYR107      0.0560
     81  CG         6.2050  -23.3810   22.0220 C.ar  107  TYR107     -0.0198
     82  CD1        5.4590  -24.5320   22.1970 C.ar  107  TYR107     -0.0009
     83  CD2        5.5860  -22.1660   22.2100 C.ar  107  TYR107     -0.0009
     84  CE1        4.1130  -24.4610   22.5840 C.ar  107  TYR107      0.0417
     85  CE2        4.2540  -22.0850   22.5780 C.ar  107  TYR107      0.0417
     86  CZ         3.5340  -23.2380   22.7620 C.ar  107  TYR107      0.1957
     87  OH         2.2110  -23.1210   23.1180 O.3   107  TYR107     -0.2866
     88  N          7.0920  -22.2930   15.4460 N.3   110  ALA110     -0.1231
     89  CA         6.0800  -23.1610   14.8460 C.3   110  ALA110      0.1694
     90  C          4.6940  -22.5240   14.9510 C.2   110  ALA110      0.2591
     91  O          3.8980  -22.5350   13.9980 O.2   110  ALA110     -0.2718
     92  CB         6.0870  -24.5180   15.4840 C.3   110  ALA110      0.0304
     93  N          4.4070  -21.9730   16.1230 N.am  111  LEU111     -0.1980
     94  CA         3.1380  -21.3360   16.3660 C.3   111  LEU111      0.1596
     95  C          2.9640  -20.0710   15.5180 C.2   111  LEU111      0.2287
     96  O          1.9030  -19.8260   14.9320 O.2   111  LEU111     -0.2864
     97  CB         3.0830  -21.0270   17.8450 C.3   111  LEU111      0.0297
     98  CG         1.7960  -20.4790   18.3830 C.3   111  LEU111      0.0022
     99  CD1        0.5980  -21.2800   17.9240 C.3   111  LEU111      0.0001
    100  CD2        1.8980  -20.4930   19.8910 C.3   111  LEU111      0.0001
    101  N          2.1890  -20.9850   11.9380 N.3   114  SER114     -0.1217
    102  CA         0.8150  -21.4520   11.8070 C.3   114  SER114      0.1889
    103  C         -0.1530  -20.2850   11.8200 C.2   114  SER114      0.2288
    104  O         -1.0830  -20.2480   11.0210 O.2   114  SER114     -0.2866
    105  CB         0.4400  -22.4230   12.9190 C.3   114  SER114      0.2089
    106  OG         1.0410  -23.6660   12.6950 O.3   114  SER114     -0.2183
    107  N         -5.0420  -27.7720   17.5760 N.3   198  VAL198     -0.1245
    108  CA        -3.9600  -28.6420   17.9810 C.3   198  VAL198      0.1561
    109  C         -4.3770  -29.6110   19.0800 C.2   198  VAL198      0.2260
    110  O         -3.6370  -30.5490   19.3710 O.2   198  VAL198     -0.2867
    111  CB        -2.7390  -27.8480   18.4720 C.3   198  VAL198      0.0252
    112  CG1       -2.1740  -27.0170   17.3380 C.3   198  VAL198      0.0019
    113  CG2       -3.1020  -26.9900   19.6690 C.3   198  VAL198      0.0019
@<TRIPOS>BOND
     1   104   103    2
     2   102   103    1
     3   102   101    1
     4   102   105    1
     5   106   105    1
     6    91    90    2
     7    22    21    1
     8    22    23    2
     9    26    24    1
    10    21    20    1
    11    21    24    1
    12    89    90    1
    13    89    88    1
    14    89    92    1
    15    96    95    2
    16    90    93   am
    17    24    25    1
    18    95    94    1
    19    25    27    1
    20    19    18    1
    21    93    94    1
    22    94    97    1
    23   112   111    1
    24    14    13    1
    25    14    15    2
    26    70    69    2
    27   107   108    1
    28    16    13    1
    29    16    17    1
    30    18    17    1
    31    13    12    1
    32    97    98    1
    33    75    73   am
    34    99    98    1
    35    11     9    1
    36   108   111    1
    37   108   109    1
    38    72    71    1
    39    72    73    1
    40    68    69    1
    41    68    71    1
    42    68    67    1
    43    98   100    1
    44    69    76   am
    45   111   113    1
    46    73    74    2
    47    79    78    2
    48   109   110    2
    49     9     8    2
    50     9    10    1
    51    78    77    1
    52     8     7    1
    53    76    77    1
    54    77    80    1
    55    66    64    1
    56     7     6    1
    57     6     5    1
    58    64    63    1
    59    57    58    1
    60    57    56    1
    61    80    81    1
    62    33    32    1
    63    34    32    1
    64    81    82   ar
    65    81    83   ar
    66    82    84   ar
    67    83    85   ar
    68     3     2    1
    69     3     4    2
    70    56    55    1
    71     5     2    1
    72    32    29    1
    73    85    86   ar
    74    84    86   ar
    75     2     1    1
    76    86    87    1
    77    63    65    1
    78    63    60    1
    79    60    61    1
    80    60    59    1
    81    55    54    1
    82    61    62    2
    83    28    29    1
    84    29    30    1
    85    54    51    1
    86    40    39    1
    87    41    39    1
    88    30    35   am
    89    30    31    2
    90    35    36    1
    91    53    52    2
    92    39    36    1
    93    52    51    1
    94    51    50    1
    95    38    37    2
    96    36    37    1
    97    49    47    1
    98    48    46    1
    99    47    46    1
   100    46    43    1
   101    43    44    1
   102    43    42    1
   103    44    45    2
