@<TRIPOS>MOLECULE
tmp/5wl0A00.pdb
 187 177 0 0 0
SMALL
GASTEIGER

@<TRIPOS>ATOM
      1  N        -29.7280    6.7410   22.3930 N.3    70  SER70      -0.1217
      2  CA       -28.8600    6.0510   21.4470 C.3    70  SER70       0.1889
      3  C        -29.1470    6.4120   19.9980 C.2    70  SER70       0.2288
      4  O        -28.3630    6.0460   19.1140 O.2    70  SER70      -0.2866
      5  CB       -29.0230    4.5540   21.6020 C.3    70  SER70       0.2089
      6  OG       -30.4030    4.2690   21.5710 O.3    70  SER70      -0.2183
      7  N        -29.3030    8.6090   16.6010 N.3    72  PHE72      -0.1227
      8  CA       -28.2870    9.4880   16.0660 C.3    72  PHE72       0.1736
      9  C        -28.9420   10.4990   15.1340 C.2    72  PHE72       0.2596
     10  O        -30.1390   10.4290   14.8390 O.2    72  PHE72      -0.2718
     11  CB       -27.1710    8.7000   15.3690 C.3    72  PHE72       0.0547
     12  CG       -27.6230    7.9090   14.1880 C.ar   72  PHE72      -0.0202
     13  CD1      -27.6630    8.4820   12.9260 C.ar   72  PHE72      -0.0042
     14  CD2      -28.0040    6.5810   14.3350 C.ar   72  PHE72      -0.0042
     15  CE1      -28.0770    7.7160   11.8110 C.ar   72  PHE72      -0.0003
     16  CE2      -28.4150    5.8090   13.2360 C.ar   72  PHE72      -0.0003
     17  CZ       -28.4520    6.3800   11.9770 C.ar   72  PHE72      -0.0000
     18  N        -28.1580   11.4890   14.7250 N.am   73  SER73      -0.1938
     19  CA       -28.6690   12.5790   13.9200 C.3    73  SER73       0.2055
     20  C        -27.8480   12.6540   12.6480 C.2    73  SER73       0.2643
     21  O        -26.6190   12.5140   12.6920 O.2    73  SER73      -0.2714
     22  CB       -28.6270   13.9120   14.6690 C.3    73  SER73       0.2130
     23  OG       -29.1650   14.9670   13.8660 O.3    73  SER73      -0.2179
     24  N        -28.5370   12.8360   11.5120 N.am   74  PHE74      -0.1973
     25  CA       -27.8620   12.9720   10.2180 C.3    74  PHE74       0.1639
     26  C        -28.6780   13.8800    9.3070 C.2    74  PHE74       0.2290
     27  O        -29.8480   13.6040    9.0390 O.2    74  PHE74      -0.2864
     28  CB       -27.6460   11.6160    9.5660 C.3    74  PHE74       0.0560
     29  CG       -26.7900   11.6740    8.3390 C.ar   74  PHE74      -0.0200
     30  CD1      -25.5100   12.2230    8.4030 C.ar   74  PHE74      -0.0042
     31  CD2      -27.2430   11.1450    7.1210 C.ar   74  PHE74      -0.0042
     32  CE1      -24.6940   12.2740    7.2730 C.ar   74  PHE74      -0.0003
     33  CE2      -26.4350   11.1940    5.9770 C.ar   74  PHE74      -0.0003
     34  CZ       -25.1670   11.7750    6.0470 C.ar   74  PHE74      -0.0000
     35  N        -33.4460    3.2430   15.1610 N.3    81  ARG81      -0.1245
     36  CA       -33.5080    1.9320   14.5270 C.3    81  ARG81       0.1563
     37  C        -34.7010    1.1510   15.0540 C.2    81  ARG81       0.2260
     38  O        -34.8290    0.9530   16.2630 O.2    81  ARG81      -0.2867
     39  CB       -32.2370    1.1400   14.7790 C.3    81  ARG81       0.0307
     40  CG       -32.1870   -0.0930   13.8850 C.3    81  ARG81       0.0489
     41  CD       -31.1430   -1.0620   14.3710 C.3    81  ARG81       0.2205
     42  NE       -29.7980   -0.6500   13.9910 N.pl3  81  ARG81      -0.0865
     43  CZ       -28.6930   -1.1930   14.4870 C.cat  81  ARG81       0.5346
     44  NH1      -28.7820   -2.1710   15.3980 N.pl3  81  ARG81       0.1354
     45  NH2      -27.5070   -0.7530   14.0750 N.pl3  81  ARG81       0.1354
     46  N        -26.4790   -3.7650   11.7620 N.3    86  SER86      -0.1217
     47  CA       -25.4520   -3.5870   10.7420 C.3    86  SER86       0.1889
     48  C        -24.0580   -3.5500   11.3610 C.2    86  SER86       0.2288
     49  O        -23.8730   -3.1660   12.5160 O.2    86  SER86      -0.2866
     50  CB       -25.6810   -2.3150    9.9020 C.3    86  SER86       0.2089
     51  OG       -25.5800   -1.1420   10.6860 O.3    86  SER86      -0.2183
     52  N        -17.0030    4.7110    5.7050 N.3   104  ARG104     -0.1245
     53  CA       -17.3980    3.6810    6.6660 C.3   104  ARG104      0.1563
     54  C        -18.7350    3.0890    6.2150 C.2   104  ARG104      0.2260
     55  O        -19.8100    3.5740    6.5690 O.2   104  ARG104     -0.2867
     56  CB       -17.4670    4.2650    8.0740 C.3   104  ARG104      0.0307
     57  CG       -16.3460    5.2780    8.3780 C.3   104  ARG104      0.0489
     58  CD       -15.8740    5.1950    9.8220 C.3   104  ARG104      0.2205
     59  NE       -16.9120    5.6070   10.7540 N.pl3 104  ARG104     -0.0865
     60  CZ       -16.8740    5.3620   12.0570 C.cat 104  ARG104      0.5346
     61  NH1      -17.8630    5.7760   12.8400 N.pl3 104  ARG104      0.1354
     62  NH2      -15.8490    4.6920   12.5690 N.pl3 104  ARG104      0.1354
     63  N        -21.8410    0.5370    6.0240 N.3   106  HIS106     -0.1241
     64  CA       -22.5740   -0.3400    6.9280 C.3   106  HIS106      0.1621
     65  C        -23.1760   -1.5030    6.1450 C.2   106  HIS106      0.2264
     66  O        -23.7680   -1.3040    5.0780 O.2   106  HIS106     -0.2867
     67  CB       -23.6650    0.4270    7.6660 C.3   106  HIS106      0.0745
     68  CG       -23.1670    1.2230    8.8440 C.ar  106  HIS106      0.0817
     69  ND1      -23.3430    0.8090   10.1460 N.ar  106  HIS106     -0.2268
     70  CD2      -22.5150    2.4130    8.9130 C.ar  106  HIS106      0.1154
     71  CE1      -22.8240    1.7070   10.9680 C.ar  106  HIS106      0.1986
     72  NE2      -22.3090    2.6830   10.2430 N.ar  106  HIS106     -0.2212
     73  N        -31.6140   -3.0570    7.7650 N.3   110  GLU110     -0.1245
     74  CA       -31.9920   -2.1960    8.8860 C.3   110  GLU110      0.1567
     75  C        -33.2440   -1.3960    8.5740 C.2   110  GLU110      0.2260
     76  O        -33.4580   -0.9770    7.4360 O.2   110  GLU110     -0.2867
     77  CB       -30.9030   -1.1890    9.2150 C.3   110  GLU110      0.0388
     78  CG       -29.6790   -1.7590    9.8360 C.3   110  GLU110      0.1160
     79  CD       -28.5730   -0.7260    9.9180 C.2   110  GLU110      0.3649
     80  OE1      -28.1700   -0.1770    8.8520 O.co2 110  GLU110     -0.2457
     81  OE2      -28.1310   -0.4550   11.0690 O.co2 110  GLU110     -0.2457
     82  N        -35.4050    2.1530    9.9870 N.3   112  PHE112     -0.1241
     83  CA       -35.3110    3.3320   10.8280 C.3   112  PHE112      0.1605
     84  C        -36.5400    4.2030   10.6370 C.2   112  PHE112      0.2264
     85  O        -37.1360    4.2490    9.5540 O.2   112  PHE112     -0.2867
     86  CB       -34.0950    4.2390   10.5120 C.3   112  PHE112      0.0534
     87  CG       -32.7580    3.5560   10.5110 C.ar  112  PHE112     -0.0203
     88  CD1      -32.3390    2.8040    9.4260 C.ar  112  PHE112     -0.0042
     89  CD2      -31.8790    3.7230   11.5640 C.ar  112  PHE112     -0.0042
     90  CE1      -31.0730    2.2060    9.4150 C.ar  112  PHE112     -0.0003
     91  CE2      -30.6220    3.1120   11.5550 C.ar  112  PHE112     -0.0003
     92  CZ       -30.2270    2.3630   10.4780 C.ar  112  PHE112     -0.0000
     93  N        -33.2220   -0.1240    4.5040 N.3   125  LYS125     -0.1245
     94  CA       -32.0220   -0.1630    3.6800 C.3   125  LYS125      0.1561
     95  C        -31.2590   -1.4640    3.9340 C.2   125  LYS125      0.2260
     96  O        -31.5060   -2.1740    4.9030 O.2   125  LYS125     -0.2867
     97  CB       -31.1170    1.0560    3.9510 C.3   125  LYS125      0.0271
     98  CG       -30.3760    0.9860    5.2950 C.3   125  LYS125      0.0035
     99  CD       -29.3040    2.0560    5.3910 C.3   125  LYS125      0.0206
    100  CE       -28.0900    1.7980    4.4810 C.3   125  LYS125      0.1093
    101  NZ       -27.1060    0.7970    4.9840 N.3   125  LYS125     -0.1314
    102  N        -27.5570    8.4410    2.9670 N.3   153  PHE153     -0.1241
    103  CA       -27.4590    7.4810    4.0610 C.3   153  PHE153      0.1605
    104  C        -27.4390    6.0320    3.5650 C.2   153  PHE153      0.2264
    105  O        -26.8240    5.1700    4.2050 O.2   153  PHE153     -0.2867
    106  CB       -28.6220    7.6870    5.0210 C.3   153  PHE153      0.0534
    107  CG       -28.5800    6.7880    6.2160 C.ar  153  PHE153     -0.0203
    108  CD1      -27.7230    7.0610    7.2730 C.ar  153  PHE153     -0.0042
    109  CD2      -29.4130    5.6900    6.3000 C.ar  153  PHE153     -0.0042
    110  CE1      -27.6880    6.2400    8.3620 C.ar  153  PHE153     -0.0003
    111  CE2      -29.3850    4.8730    7.3990 C.ar  153  PHE153     -0.0003
    112  CZ       -28.5190    5.1410    8.4350 C.ar  153  PHE153     -0.0000
    113  N        -25.8960    5.0080    1.0790 N.3   155  GLN155     -0.1245
    114  CA       -24.5300    4.8380    0.6030 C.3   155  GLN155      0.1566
    115  C        -24.4720    4.2220   -0.7830 C.2   155  GLN155      0.2260
    116  O        -23.4320    3.6810   -1.1830 O.2   155  GLN155     -0.2867
    117  CB       -23.7090    4.0230    1.6050 C.3   155  GLN155      0.0367
    118  CG       -23.6280    4.7430    2.9210 C.3   155  GLN155      0.0905
    119  CD       -22.7660    4.0190    3.9130 C.2   155  GLN155      0.2608
    120  OE1      -22.8720    2.8000    4.0640 O.2   155  GLN155     -0.2717
    121  NE2      -21.8820    4.7620    4.5870 N.am  155  GLN155     -0.0878
    122  N        -16.0440   14.8000    7.6250 N.3   178  ASN178     -0.1240
    123  CA       -15.9070   13.3950    7.2620 C.3   178  ASN178      0.1653
    124  C        -16.6940   13.1320    5.9820 C.2   178  ASN178      0.2266
    125  O        -17.5950   13.9020    5.6330 O.2   178  ASN178     -0.2867
    126  CB       -16.3940   12.4950    8.3990 C.3   178  ASN178      0.1155
    127  CG       -17.9060   12.2780    8.3710 C.2   178  ASN178      0.2627
    128  OD1      -18.6690   13.0370    8.9810 O.2   178  ASN178     -0.2716
    129  ND2      -18.3460   11.2360    7.6510 N.am  178  ASN178     -0.0877
    130  N        -19.1260   11.2480    4.7320 N.3   180  MET180     -0.1230
    131  CA       -20.5820   11.2090    4.6360 C.3   180  MET180      0.1702
    132  C        -21.1690   12.6150    4.6930 C.2   180  MET180      0.2592
    133  O        -22.1090   12.9360    3.9520 O.2   180  MET180     -0.2718
    134  CB       -21.1580   10.3230    5.7420 C.3   180  MET180      0.0401
    135  CG       -20.8230    8.8330    5.5630 C.3   180  MET180      0.0596
    136  SD       -21.5130    8.1050    4.0360 S.3   180  MET180     -0.1393
    137  CE       -23.2640    8.2660    4.4260 C.3   180  MET180      0.0692
    138  N        -20.6140   13.4790    5.5510 N.am  181  HIS181     -0.1976
    139  CA       -21.0270   14.8750    5.5130 C.3   181  HIS181      0.1656
    140  C        -20.4870   15.5920    4.2760 C.2   181  HIS181      0.2291
    141  O        -21.1240   16.5410    3.8000 O.2   181  HIS181     -0.2864
    142  CB       -20.6290   15.5850    6.8080 C.3   181  HIS181      0.0771
    143  CG       -21.5900   15.3420    7.9350 C.ar  181  HIS181      0.0820
    144  ND1      -21.3600   14.4110    8.9290 N.ar  181  HIS181     -0.2267
    145  CD2      -22.8100   15.8730    8.1930 C.ar  181  HIS181      0.1154
    146  CE1      -22.3870   14.3960    9.7650 C.ar  181  HIS181      0.1986
    147  NE2      -23.2790   15.2780    9.3450 N.ar  181  HIS181     -0.2212
    148  N        -20.9110    6.1020   20.4980 N.3   251  ASP251     -0.1239
    149  CA       -21.3910    5.0000   21.3050 C.3   251  ASP251      0.1674
    150  C        -20.3080    3.9310   21.4010 C.2   251  ASP251      0.2266
    151  O        -19.2530    4.0150   20.7570 O.2   251  ASP251     -0.2867
    152  CB       -22.7000    4.4430   20.7260 C.3   251  ASP251      0.1410
    153  CG       -22.5370    3.8430   19.3370 C.2   251  ASP251      0.3668
    154  OD1      -21.3880    3.6010   18.8830 O.co2 251  ASP251     -0.2456
    155  OD2      -23.5850    3.5920   18.6940 O.co2 251  ASP251     -0.2456
    156  N        -19.8120    4.4930   16.7100 N.3   255  ASN255     -0.1225
    157  CA       -20.7090    5.2710   15.8610 C.3   255  ASN255      0.1785
    158  C        -20.8050    6.6960   16.3770 C.2   255  ASN255      0.2597
    159  O        -20.9390    6.9170   17.5840 O.2   255  ASN255     -0.2718
    160  CB       -22.1050    4.6510   15.8540 C.3   255  ASN255      0.1169
    161  CG       -22.1580    3.3770   15.0800 C.2   255  ASN255      0.2627
    162  OD1      -22.3930    2.3030   15.6330 O.2   255  ASN255     -0.2716
    163  ND2      -22.0410    3.4940   13.7740 N.am  255  ASN255     -0.0877
    164  N        -20.7590    7.6590   15.4590 N.am  256  VAL256     -0.1966
    165  CA       -20.9070    9.0630   15.8220 C.3   256  VAL256      0.1727
    166  C        -22.3970    9.3610   15.8790 C.2   256  VAL256      0.2616
    167  O        -23.0660    9.4300   14.8450 O.2   256  VAL256     -0.2715
    168  CB       -20.1790    9.9860   14.8460 C.3   256  VAL256      0.0290
    169  CG1      -20.3710   11.4320   15.2810 C.3   256  VAL256      0.0023
    170  CG2      -18.7030    9.6230   14.8430 C.3   256  VAL256      0.0023
    171  N        -22.9160    9.4780   17.0990 N.am  257  LEU257     -0.1977
    172  CA       -24.3280    9.7520   17.3210 C.3   257  LEU257      0.1596
    173  C        -24.6630   11.2170   17.0790 C.2   257  LEU257      0.2287
    174  O        -25.7730   11.5400   16.6310 O.2   257  LEU257     -0.2864
    175  CB       -24.7010    9.3810   18.7530 C.3   257  LEU257      0.0297
    176  CG       -25.1560    7.9930   19.2220 C.3   257  LEU257      0.0022
    177  CD1      -24.4100    6.8040   18.5980 C.3   257  LEU257      0.0001
    178  CD2      -25.0350    7.9660   20.7560 C.3   257  LEU257      0.0001
    179  N        -24.3590   18.5770   13.3130 N.3   262  GLU262     -0.1245
    180  CA       -25.7250   18.0770   13.3830 C.3   262  GLU262      0.1567
    181  C        -26.6040   18.9670   14.2310 C.2   262  GLU262      0.2260
    182  O        -27.7400   18.6030   14.5400 O.2   262  GLU262     -0.2867
    183  CB       -25.7420   16.6310   13.8920 C.3   262  GLU262      0.0388
    184  CG       -25.3490   15.6500   12.7840 C.3   262  GLU262      0.1160
    185  CD       -26.3200   15.6980   11.5770 C.2   262  GLU262      0.3649
    186  OE1      -27.5430   15.8380   11.8310 O.co2 262  GLU262     -0.2457
    187  OE2      -25.8720   15.5990   10.3950 O.co2 262  GLU262     -0.2457
@<TRIPOS>BOND
     1   116   115    2
     2   115   114    1
     3   114   113    1
     4   114   117    1
     5   117   118    1
     6   118   119    1
     7   102   103    1
     8   104   103    1
     9   104   105    2
    10    94    95    1
    11    94    97    1
    12    94    93    1
    13   141   140    2
    14   119   120    2
    15   119   121   am
    16    95    96    2
    17    97    98    1
    18   133   132    2
    19   136   137    1
    20   136   135    1
    21   103   106    1
    22   140   139    1
    23   100   101    1
    24   100    99    1
    25   131   132    1
    26   131   130    1
    27   131   134    1
    28   132   138   am
    29   106   107    1
    30    66    65    2
    31    98    99    1
    32   139   138    1
    33   139   142    1
    34   135   134    1
    35   125   124    2
    36    52    53    1
    37    33    34   ar
    38    33    31   ar
    39   124   123    1
    40    63    64    1
    41    34    32   ar
    42    65    64    1
    43    54    55    2
    44    54    53    1
    45   107   109   ar
    46   107   108   ar
    47   109   111   ar
    48    53    56    1
    49   142   143    1
    50    64    67    1
    51    31    29   ar
    52   123   122    1
    53   123   126    1
    54    32    30   ar
    55   108   110   ar
    56   111   112   ar
    57    76    75    2
    58   129   127   am
    59    67    68    1
    60    73    74    1
    61   143   145   ar
    62   143   144   ar
    63    56    57    1
    64   145   147   ar
    65    29    30   ar
    66    29    28    1
    67   110   112   ar
    68   127   126    1
    69   127   128    2
    70    57    58    1
    71    75    74    1
    72    68    70   ar
    73    68    69   ar
    74    80    79   ar
    75    74    77    1
    76    70    72   ar
    77   144   146   ar
    78    27    26    2
    79    77    78    1
    80    26    25    1
    81   147   146   ar
    82    90    88   ar
    83    90    92   ar
    84    88    87   ar
    85    85    84    2
    86    28    25    1
    87    58    59    1
    88    78    79    1
    89    50    51    1
    90    50    47    1
    91    79    81   ar
    92    82    83    1
    93    69    71   ar
    94    25    24    1
    95    72    71   ar
    96   187   185   ar
    97    92    91   ar
    98    87    86    1
    99    87    89   ar
   100    86    83    1
   101    84    83    1
   102    47    48    1
   103    47    46    1
   104    59    60    2
   105    48    49    2
   106    24    20   am
   107    91    89   ar
   108   185   186   ar
   109   185   184    1
   110    15    17   ar
   111    15    13   ar
   112    17    16   ar
   113    60    62    1
   114    60    61    1
   115    20    21    2
   116    20    19    1
   117   184   183    1
   118    13    12   ar
   119    16    14   ar
   120   179   180    1
   121   180   183    1
   122   180   181    1
   123   163   161   am
   124    23    22    1
   125    40    41    1
   126    40    39    1
   127    19    22    1
   128    19    18    1
   129    42    41    1
   130    42    43    2
   131    45    43    1
   132    12    14   ar
   133    12    11    1
   134   181   182    2
   135    43    44    1
   136    36    39    1
   137    36    37    1
   138    36    35    1
   139    18     9   am
   140    10     9    2
   141   170   168    1
   142   167   166    2
   143   168   169    1
   144   168   165    1
   145    37    38    2
   146   161   162    2
   147   161   160    1
   148     9     8    1
   149    11     8    1
   150   164   165    1
   151   164   158   am
   152   165   166    1
   153   160   157    1
   154   157   158    1
   155   157   156    1
   156   166   171   am
   157     8     7    1
   158   158   159    2
   159   174   173    2
   160   173   172    1
   161   171   172    1
   162   172   175    1
   163   177   176    1
   164   155   153   ar
   165   175   176    1
   166   154   153   ar
   167     4     3    2
   168   176   178    1
   169   153   152    1
   170     3     2    1
   171   148   149    1
   172   152   149    1
   173   151   150    2
   174   149   150    1
   175     2     5    1
   176     2     1    1
   177     6     5    1
