@<TRIPOS>MOLECULE
tmp/5wloA00.pdb
 129 120 0 0 0
SMALL
GASTEIGER

@<TRIPOS>ATOM
      1  N          2.6320  -18.7490   -5.7440 N.3     8  ARG8       -0.1245
      2  CA         3.8470  -18.0920   -6.2230 C.3     8  ARG8        0.1563
      3  C          3.5410  -16.6710   -6.6630 C.2     8  ARG8        0.2260
      4  O          2.5430  -16.4360   -7.3580 O.2     8  ARG8       -0.2867
      5  CB         4.4330  -18.8710   -7.4100 C.3     8  ARG8        0.0307
      6  CG         5.0060  -20.2310   -7.0460 C.3     8  ARG8        0.0489
      7  CD         5.6070  -20.9820   -8.2180 C.3     8  ARG8        0.2205
      8  NE         6.2770  -22.2050   -7.7670 N.pl3   8  ARG8       -0.0865
      9  CZ         7.2880  -22.7830   -8.4340 C.cat   8  ARG8        0.5346
     10  NH1        7.8510  -23.9060   -7.9500 N.pl3   8  ARG8        0.1354
     11  NH2        7.7530  -22.2620   -9.5760 N.pl3   8  ARG8        0.1354
     12  N          8.8140  -14.5600  -11.4090 N.3    23  LEU23      -0.1245
     13  CA         8.6330  -14.6700   -9.9730 C.3    23  LEU23       0.1561
     14  C          9.2690  -13.4810   -9.2550 C.2    23  LEU23       0.2260
     15  O         10.4610  -13.2200   -9.4930 O.2    23  LEU23      -0.2867
     16  CB         9.2200  -16.0270   -9.6050 C.3    23  LEU23       0.0270
     17  CG         9.1670  -16.6610   -8.2740 C.3    23  LEU23       0.0019
     18  CD1        7.7540  -16.9020   -7.8430 C.3    23  LEU23       0.0001
     19  CD2        9.9550  -17.9820   -8.3770 C.3    23  LEU23       0.0001
     20  N         11.1930  -12.4310   -6.4050 N.3    25  ASP25      -0.1239
     21  CA        11.9770  -13.3640   -5.5840 C.3    25  ASP25       0.1674
     22  C         12.9520  -12.6320   -4.6590 C.2    25  ASP25       0.2266
     23  O         14.0740  -12.2610   -5.0100 O.2    25  ASP25      -0.2867
     24  CB        12.7470  -14.2570   -6.5580 C.3    25  ASP25       0.1410
     25  CG        13.3910  -15.3830   -5.8180 C.2    25  ASP25       0.3668
     26  OD1       13.4060  -15.3830   -4.5560 O.co2  25  ASP25      -0.2456
     27  OD2       13.8820  -16.3040   -6.4880 O.co2  25  ASP25      -0.2456
     28  N         14.6520  -13.9180   -2.3950 N.3    27  GLY27      -0.1210
     29  CA        15.8490  -14.7220   -2.0900 C.3    27  GLY27       0.1956
     30  C         16.8830  -14.7240   -3.1890 C.2    27  GLY27       0.2612
     31  O         17.9460  -15.3850   -3.0060 O.2    27  GLY27      -0.2717
     32  N         16.6140  -13.9930   -4.2750 N.am   28  ALA28      -0.1965
     33  CA        17.5620  -13.8780   -5.3920 C.3    28  ALA28       0.1728
     34  C         18.2600  -12.5220   -5.3480 C.2    28  ALA28       0.2616
     35  O         17.5960  -11.4800   -5.3740 O.2    28  ALA28      -0.2715
     36  CB        16.8120  -14.0150   -6.7030 C.3    28  ALA28       0.0334
     37  N         19.5910  -12.5040   -5.2960 N.am   29  ASP29      -0.1957
     38  CA        20.3010  -11.2370   -5.3450 C.3    29  ASP29       0.1840
     39  C         20.0750  -10.5320   -6.6890 C.2    29  ASP29       0.2622
     40  O         19.9220   -9.3100   -6.7810 O.2    29  ASP29      -0.2715
     41  CB        21.8040  -11.4510   -5.1810 C.3    29  ASP29       0.1450
     42  CG        22.2390  -12.0610   -3.8900 C.2    29  ASP29       0.3671
     43  OD1       21.5410  -11.9570   -2.8770 O.co2  29  ASP29      -0.2456
     44  OD2       23.3620  -12.6140   -3.8960 O.co2  29  ASP29      -0.2456
     45  N         20.0370  -11.3280   -7.7610 N.am   30  ASP30      -0.1971
     46  CA        19.9220  -10.7400   -9.0900 C.3    30  ASP30       0.1709
     47  C         18.7650  -11.3730   -9.8560 C.2    30  ASP30       0.2293
     48  O         18.1820  -12.3740   -9.4940 O.2    30  ASP30      -0.2864
     49  CB        21.2300  -10.8910   -9.8530 C.3    30  ASP30       0.1436
     50  CG        22.3370   -9.9490   -9.4490 C.2    30  ASP30       0.3671
     51  OD1       22.1180   -8.7900   -9.0170 O.co2  30  ASP30      -0.2456
     52  OD2       23.4990  -10.4090   -9.5930 O.co2  30  ASP30      -0.2456
     53  N         17.2380  -13.1390  -13.0960 N.3    32  VAL32      -0.1245
     54  CA        17.6940  -14.2030  -14.0100 C.3    32  VAL32       0.1561
     55  C         16.5490  -14.5820  -14.9320 C.2    32  VAL32       0.2260
     56  O         15.4590  -14.9460  -14.4340 O.2    32  VAL32      -0.2867
     57  CB        18.1620  -15.4690  -13.2410 C.3    32  VAL32       0.0252
     58  CG1       18.9240  -16.3800  -14.2210 C.3    32  VAL32       0.0019
     59  CG2       19.0250  -15.0870  -12.0360 C.3    32  VAL32       0.0019
     60  N         29.2140  -15.2110  -16.3450 N.3    45  LYS45      -0.1245
     61  CA        29.1090  -15.2670  -14.8890 C.3    45  LYS45       0.1561
     62  C         28.6220  -16.6570  -14.4980 C.2    45  LYS45       0.2260
     63  O         27.9110  -17.3150  -15.2730 O.2    45  LYS45      -0.2867
     64  CB        28.1090  -14.1970  -14.3960 C.3    45  LYS45       0.0271
     65  CG        27.9760  -14.0000  -12.8860 C.3    45  LYS45       0.0035
     66  CD        26.9930  -12.8660  -12.5910 C.3    45  LYS45       0.0206
     67  CE        26.6460  -12.6640  -11.1170 C.3    45  LYS45       0.1093
     68  NZ        27.7330  -12.0960  -10.3040 N.3    45  LYS45      -0.1314
     69  N         26.4010  -18.5080  -11.3650 N.3    47  ILE47      -0.1231
     70  CA        25.5890  -18.2770  -10.1570 C.3    47  ILE47       0.1692
     71  C         25.1850  -19.6360   -9.5930 C.2    47  ILE47       0.2593
     72  O         24.8850  -20.5620  -10.3410 O.2    47  ILE47      -0.2718
     73  CB        24.3720  -17.3900  -10.4170 C.3    47  ILE47       0.0266
     74  CG1       23.4600  -17.9350  -11.5150 C.3    47  ILE47       0.0019
     75  CG2       24.7960  -15.9550  -10.7490 C.3    47  ILE47       0.0020
     76  CD1       22.1580  -17.1680  -11.6900 C.3    47  ILE47       0.0001
     77  N         25.1420  -19.7660   -8.2580 N.am   48  GLY48      -0.1942
     78  CA        25.0300  -21.0700   -7.6210 C.3    48  GLY48       0.2014
     79  C         23.9070  -21.1060   -6.6010 C.2    48  GLY48       0.2639
     80  O         23.8900  -20.4660   -5.5560 O.2    48  GLY48      -0.2714
     81  N         22.9010  -21.8640   -6.8910 N.am   49  GLY49      -0.1939
     82  CA        21.6610  -22.0300   -6.1900 C.3    49  GLY49       0.2014
     83  C         21.5040  -23.4260   -5.6140 C.2    49  GLY49       0.2638
     84  O         22.5100  -24.1200   -5.5040 O.2    49  GLY49      -0.2714
     85  N         20.3070  -23.7980   -5.1940 N.am   50  ILE50      -0.1977
     86  CA        20.0370  -25.2300   -4.9480 C.3    50  ILE50       0.1596
     87  C         20.2490  -26.0030   -6.2290 C.2    50  ILE50       0.2287
     88  O         19.7830  -25.6380   -7.3330 O.2    50  ILE50      -0.2864
     89  CB        18.6190  -25.3520   -4.3240 C.3    50  ILE50       0.0276
     90  CG1       18.6140  -25.0010   -2.8290 C.3    50  ILE50       0.0022
     91  CG2       18.0490  -26.7620   -4.5020 C.3    50  ILE50       0.0022
     92  CD1       17.2380  -24.8310   -2.2380 C.3    50  ILE50       0.0001
     93  N         20.6620  -11.2510  -15.7610 N.3    76  LEU76      -0.1245
     94  CA        21.4290  -12.4460  -16.0970 C.3    76  LEU76       0.1561
     95  C         20.5860  -13.3250  -16.9680 C.2    76  LEU76       0.2260
     96  O         19.3980  -13.5300  -16.6350 O.2    76  LEU76      -0.2867
     97  CB        21.8020  -13.1940  -14.8090 C.3    76  LEU76       0.0270
     98  CG        22.5110  -12.3010  -13.7640 C.3    76  LEU76       0.0019
     99  CD1       22.8790  -13.1670  -12.5830 C.3    76  LEU76       0.0001
    100  CD2       23.7230  -11.5990  -14.3590 C.3    76  LEU76       0.0001
    101  N         17.8800  -20.8730  -16.4010 N.3    80  THR80      -0.1204
    102  CA        17.0780  -20.9410  -15.1620 C.3    80  THR80       0.1979
    103  C         15.7750  -21.6580  -15.4410 C.2    80  THR80       0.2464
    104  O         15.2170  -21.4240  -16.5450 O.2    80  THR80      -0.2732
    105  CB        16.8500  -19.5260  -14.5990 C.3    80  THR80       0.1783
    106  OG1       15.9970  -19.6590  -13.4610 O.3    80  THR80      -0.2211
    107  CG2       16.1720  -18.5690  -15.5790 C.3    80  THR80       0.0376
    108  N         15.2560  -22.4760  -14.5390 N.am   81  PRO81      -0.2642
    109  CA        13.9660  -23.1060  -14.7980 C.3    81  PRO81       0.1762
    110  C         12.7470  -22.1830  -14.7110 C.2    81  PRO81       0.2641
    111  O         11.6660  -22.5380  -15.1940 O.2    81  PRO81      -0.2712
    112  CB        13.8440  -24.1670  -13.6960 C.2    81  PRO81      -0.0003
    113  CG        14.9990  -24.0290  -12.7920 C.2    81  PRO81      -0.0071
    114  CD        15.8950  -22.9340  -13.2900 C.3    81  PRO81       0.1204
    115  N         12.9280  -21.0230  -14.1060 N.am   82  VAL82      -0.1975
    116  CA        11.8590  -20.0460  -13.9320 C.3    82  VAL82       0.1596
    117  C         12.4430  -18.6500  -14.1340 C.2    82  VAL82       0.2287
    118  O         13.5780  -18.3780  -13.7590 O.2    82  VAL82      -0.2864
    119  CB        11.2240  -20.1880  -12.5400 C.3    82  VAL82       0.0276
    120  CG1       10.0350  -19.2470  -12.3550 C.3    82  VAL82       0.0022
    121  CG2       10.6740  -21.5980  -12.2220 C.3    82  VAL82       0.0022
    122  N         13.1060  -15.0400  -12.8760 N.3    84  ILE84      -0.1245
    123  CA        13.2100  -14.4990  -11.5340 C.3    84  ILE84       0.1561
    124  C         13.5080  -13.0210  -11.5440 C.2    84  ILE84       0.2260
    125  O         14.5210  -12.6420  -12.1740 O.2    84  ILE84      -0.2867
    126  CB        14.3970  -15.2240  -10.8630 C.3    84  ILE84       0.0252
    127  CG1       14.0710  -16.7170  -10.6740 C.3    84  ILE84       0.0019
    128  CG2       14.8260  -14.5600   -9.5740 C.3    84  ILE84       0.0019
    129  CD1       15.3210  -17.5250  -10.3840 C.3    84  ILE84       0.0001
@<TRIPOS>BOND
     1    95    96    2
     2    95    94    1
     3   104   103    2
     4   101   102    1
     5    60    61    1
     6    94    93    1
     7    94    97    1
     8   107   105    1
     9   103   102    1
    10   103   108   am
    11    63    62    2
    12   111   110    2
    13   102   105    1
    14    55    56    2
    15    55    54    1
    16    61    62    1
    17    61    64    1
    18    97    98    1
    19   109   110    1
    20   109   108    1
    21   109   112    1
    22   110   115   am
    23   105   106    1
    24   108   114    1
    25    64    65    1
    26   100    98    1
    27    58    57    1
    28   117   116    1
    29   117   118    2
    30   115   116    1
    31    54    57    1
    32    54    53    1
    33   116   119    1
    34    98    99    1
    35   112   113    2
    36   114   113    1
    37    57    59    1
    38    65    66    1
    39   122   123    1
    40    66    67    1
    41   119   120    1
    42   119   121    1
    43   125   124    2
    44    76    74    1
    45   124   123    1
    46   123   126    1
    47    74    73    1
    48    12    13    1
    49    69    70    1
    50    67    68    1
    51   126   127    1
    52   126   128    1
    53    75    73    1
    54   127   129    1
    55    73    70    1
    56    72    71    2
    57    70    71    1
    58    13    16    1
    59    13    14    1
    60    47    48    2
    61    47    46    1
    62    49    50    1
    63    49    46    1
    64    16    17    1
    65    71    77   am
    66    52    50   ar
    67    11     9    1
    68    15    14    2
    69    50    51   ar
    70    46    45    1
    71     9    10    1
    72     9     8    2
    73    19    17    1
    74    17    18    1
    75    77    78    1
    76     7     8    1
    77     7     6    1
    78    45    39   am
    79    78    79    1
    80     5     6    1
    81     5     2    1
    82     4     3    2
    83    88    87    2
    84    81    79   am
    85    81    82    1
    86    40    39    2
    87    36    33    1
    88    39    38    1
    89     3     2    1
    90    79    80    2
    91    24    25    1
    92    24    21    1
    93    27    25   ar
    94    20    21    1
    95    87    86    1
    96     2     1    1
    97    82    83    1
    98    25    26   ar
    99    83    84    2
   100    83    85   am
   101    21    22    1
   102    33    34    1
   103    33    32    1
   104    35    34    2
   105    34    37   am
   106    38    37    1
   107    38    41    1
   108    85    86    1
   109    41    42    1
   110    23    22    2
   111    86    89    1
   112    91    89    1
   113    89    90    1
   114    32    30   am
   115    44    42   ar
   116    42    43   ar
   117    30    31    2
   118    30    29    1
   119    90    92    1
   120    28    29    1
