@<TRIPOS>MOLECULE
tmp/5wltA03.pdb
 99 96 0 0 0
SMALL
GASTEIGER

@<TRIPOS>ATOM
      1  N        -15.6280   13.6950    9.1860 N.3    69  ASP69      -0.1225
      2  CA       -15.6960   14.0440   10.6000 C.3    69  ASP69       0.1805
      3  C        -15.6250   15.5530   10.8170 C.2    69  ASP69       0.2598
      4  O        -15.1840   16.0120   11.8720 O.2    69  ASP69      -0.2718
      5  CB       -14.5850   13.3350   11.3740 C.3    69  ASP69       0.1424
      6  CG       -13.2020   13.7830   10.9510 C.2    69  ASP69       0.3668
      7  OD1      -13.0900   14.5000    9.9320 O.co2  69  ASP69      -0.2456
      8  OD2      -12.2210   13.4140   11.6320 O.co2  69  ASP69      -0.2456
      9  N        -16.0450   16.3370    9.8260 N.am   70  SER70      -0.1952
     10  CA       -16.0580   17.7890    9.9590 C.3    70  SER70       0.1924
     11  C        -17.3500   18.3180   10.5720 C.2    70  SER70       0.2314
     12  O        -17.4900   19.5370   10.7260 O.2    70  SER70      -0.2863
     13  CB       -15.8260   18.4540    8.5970 C.3    70  SER70       0.2116
     14  OG       -16.9320   18.2600    7.7260 O.3    70  SER70      -0.2180
     15  N        -16.2750   11.9550   17.6380 N.3    86  ARG86      -0.1245
     16  CA       -16.6470   11.7870   16.2290 C.3    86  ARG86       0.1563
     17  C        -15.9420   10.5990   15.5900 C.2    86  ARG86       0.2260
     18  O        -14.7260   10.4450   15.7290 O.2    86  ARG86      -0.2867
     19  CB       -16.2850   13.0340   15.4220 C.3    86  ARG86       0.0307
     20  CG       -17.1930   14.1960   15.6490 C.3    86  ARG86       0.0489
     21  CD       -16.8580   15.3300   14.7020 C.3    86  ARG86       0.2205
     22  NE       -17.5510   16.5230   15.1470 N.pl3  86  ARG86      -0.0865
     23  CZ       -17.2300   17.7590   14.7930 C.cat  86  ARG86       0.5346
     24  NH1      -16.2120   17.9830   13.9670 N.pl3  86  ARG86       0.1354
     25  NH2      -17.9290   18.7710   15.2850 N.pl3  86  ARG86       0.1354
     26  N        -14.0070    8.8240   12.8640 N.3    88  ILE88      -0.1245
     27  CA       -13.1150    9.2030   11.7760 C.3    88  ILE88       0.1561
     28  C        -12.8240    8.0310   10.8400 C.2    88  ILE88       0.2260
     29  O        -12.7440    8.2190    9.6260 O.2    88  ILE88      -0.2867
     30  CB       -11.8050    9.8370   12.3050 C.3    88  ILE88       0.0252
     31  CG1      -10.8170   10.0640   11.1540 C.3    88  ILE88       0.0019
     32  CG2      -11.1680    8.9850   13.4020 C.3    88  ILE88       0.0019
     33  CD1       -9.5020   10.6820   11.5970 C.3    88  ILE88       0.0001
     34  N        -12.6950   10.5840   17.8800 N.3   120  TRP120     -0.1241
     35  CA       -11.8970   11.5920   18.5810 C.3   120  TRP120      0.1605
     36  C        -12.7760   12.6450   19.2520 C.2   120  TRP120      0.2264
     37  O        -13.8630   12.9850   18.7620 O.2   120  TRP120     -0.2867
     38  CB       -10.8760   12.2800   17.6440 C.3   120  TRP120      0.0550
     39  CG       -11.4600   12.9420   16.4240 C.ar  120  TRP120      0.0003
     40  CD1      -11.7310   12.3470   15.2190 C.ar  120  TRP120      0.0946
     41  CD2      -11.8270   14.3200   16.2800 C.ar  120  TRP120      0.0152
     42  NE1      -12.2460   13.2680   14.3390 N.ar  120  TRP120     -0.2442
     43  CE2      -12.3190   14.4860   14.9680 C.ar  120  TRP120      0.0810
     44  CE3      -11.7820   15.4350   17.1320 C.ar  120  TRP120      0.0012
     45  CZ2      -12.7720   15.7150   14.4890 C.ar  120  TRP120      0.0191
     46  CZ3      -12.2410   16.6590   16.6510 C.ar  120  TRP120      0.0001
     47  CH2      -12.7210   16.7880   15.3410 C.ar  120  TRP120      0.0015
     48  N        -10.7690   19.6630   18.7110 N.3   125  GLY125     -0.1210
     49  CA       -10.7300   20.3340   17.4070 C.3   125  GLY125      0.1956
     50  C        -10.3740   19.5200   16.1780 C.2   125  GLY125      0.2612
     51  O        -11.0350   19.6520   15.1410 O.2   125  GLY125     -0.2717
     52  N         -9.3340   18.6880   16.2560 N.am  126  ASP126     -0.1959
     53  CA        -9.0460   17.7660   15.1660 C.3   126  ASP126      0.1840
     54  C         -8.3370   16.5360   15.7210 C.2   126  ASP126      0.2622
     55  O         -7.8960   16.5040   16.8750 O.2   126  ASP126     -0.2715
     56  CB        -8.2450   18.4390   14.0240 C.3   126  ASP126      0.1450
     57  CG        -6.8130   18.8350   14.4120 C.2   126  ASP126      0.3671
     58  OD1       -5.9880   17.9560   14.7360 O.co2 126  ASP126     -0.2456
     59  OD2       -6.4710   20.0340   14.3210 O.co2 126  ASP126     -0.2456
     60  N         -8.2540   15.5090   14.8730 N.am  127  PHE127     -0.1960
     61  CA        -7.7020   14.2210   15.2840 C.3   127  PHE127      0.1771
     62  C         -6.2440   14.3410   15.7130 C.2   127  PHE127      0.2620
     63  O         -5.8230   13.6960   16.6810 O.2   127  PHE127     -0.2715
     64  CB        -7.8590   13.2260   14.1320 C.3   127  PHE127      0.0574
     65  CG        -7.2950   11.8620   14.4010 C.ar  127  PHE127     -0.0200
     66  CD1       -8.0090   10.9310   15.1360 C.ar  127  PHE127     -0.0042
     67  CD2       -6.0610   11.4940   13.8830 C.ar  127  PHE127     -0.0042
     68  CE1       -7.4990    9.6640   15.3660 C.ar  127  PHE127     -0.0003
     69  CE2       -5.5450   10.2300   14.1060 C.ar  127  PHE127     -0.0003
     70  CZ        -6.2600    9.3140   14.8490 C.ar  127  PHE127     -0.0000
     71  N         -5.4530   15.1540   15.0030 N.am  128  GLY128     -0.1940
     72  CA        -4.0470   15.2750   15.3430 C.3   128  GLY128      0.2014
     73  C         -3.8110   15.9000   16.7020 C.2   128  GLY128      0.2638
     74  O         -2.8490   15.5480   17.3940 O.2   128  GLY128     -0.2714
     75  N         -4.6700   16.8420   17.1000 N.am  129  LYS129     -0.1977
     76  CA        -4.5840   17.3770   18.4540 C.3   129  LYS129      0.1596
     77  C         -5.0580   16.3560   19.4780 C.2   129  LYS129      0.2287
     78  O         -4.4880   16.2510   20.5720 O.2   129  LYS129     -0.2864
     79  CB        -5.4170   18.6480   18.5770 C.3   129  LYS129      0.0298
     80  CG        -4.9920   19.7680   17.6710 C.3   129  LYS129      0.0038
     81  CD        -3.6340   20.3030   18.0440 C.3   129  LYS129      0.0206
     82  CE        -3.2450   21.3730   17.0390 C.3   129  LYS129      0.1093
     83  NZ        -3.8950   21.0880   15.7090 N.3   129  LYS129     -0.1314
     84  N         -4.9390   13.0800   19.6170 N.3   131  VAL131     -0.1231
     85  CA        -4.0450   11.9790   19.9780 C.3   131  VAL131      0.1692
     86  C         -2.9390   12.4080   20.9290 C.2   131  VAL131      0.2591
     87  O         -2.2120   11.5490   21.4420 O.2   131  VAL131     -0.2718
     88  CB        -3.4000   11.3000   18.7430 C.3   131  VAL131      0.0266
     89  CG1       -4.4710   10.7230   17.8180 C.3   131  VAL131      0.0020
     90  CG2       -2.4790   12.2580   17.9920 C.3   131  VAL131      0.0020
     91  N         -2.7960   13.7100   21.1820 N.am  132  GLN132     -0.1979
     92  CA        -1.8300   14.2230   22.1430 C.3   132  GLN132      0.1601
     93  C         -2.4190   14.3790   23.5420 C.2   132  GLN132      0.2287
     94  O         -1.7430   14.9270   24.4300 O.2   132  GLN132     -0.2864
     95  CB        -1.2720   15.5620   21.6490 C.3   132  GLN132      0.0394
     96  CG        -0.8610   15.5360   20.1790 C.3   132  GLN132      0.0908
     97  CD        -0.1950   16.8160   19.7230 C.2   132  GLN132      0.2608
     98  OE1        0.7310   17.3150   20.3660 O.2   132  GLN132     -0.2717
     99  NE2       -0.6670   17.3590   18.6080 N.am  132  GLN132     -0.0878
@<TRIPOS>BOND
     1    14    13    1
     2    13    10    1
     3     1     2    1
     4    29    28    2
     5     9    10    1
     6     9     3   am
     7     7     6   ar
     8    10    11    1
     9    11    12    2
    10     2     3    1
    11     2     5    1
    12     3     4    2
    13    28    27    1
    14     6     5    1
    15     6     8   ar
    16    31    33    1
    17    31    30    1
    18    27    30    1
    19    27    26    1
    20    30    32    1
    21    67    69   ar
    22    67    65   ar
    23    24    23    1
    24    56    57    1
    25    56    53    1
    26    69    70   ar
    27    64    65    1
    28    64    61    1
    29    59    57   ar
    30    42    43   ar
    31    42    40   ar
    32    65    66   ar
    33    57    58   ar
    34    45    43   ar
    35    45    47   ar
    36    21    22    1
    37    21    20    1
    38    23    22    2
    39    23    25    1
    40    70    68   ar
    41    60    61    1
    42    60    54   am
    43    43    41   ar
    44    71    72    1
    45    71    62   am
    46    66    68   ar
    47    51    50    2
    48    53    54    1
    49    53    52    1
    50    40    39   ar
    51    61    62    1
    52    47    46   ar
    53    72    73    1
    54    19    20    1
    55    19    16    1
    56    17    18    2
    57    17    16    1
    58    83    82    1
    59    62    63    2
    60    54    55    2
    61    50    52   am
    62    50    49    1
    63    16    15    1
    64    41    39   ar
    65    41    44   ar
    66    39    38    1
    67    46    44   ar
    68    73    75   am
    69    73    74    2
    70    82    81    1
    71    75    76    1
    72    49    48    1
    73    38    35    1
    74    80    81    1
    75    80    79    1
    76    89    88    1
    77    34    35    1
    78    90    88    1
    79    76    79    1
    80    76    77    1
    81    35    36    1
    82    99    97   am
    83    88    85    1
    84    37    36    2
    85    77    78    2
    86    84    85    1
    87    97    96    1
    88    97    98    2
    89    85    86    1
    90    96    95    1
    91    86    91   am
    92    86    87    2
    93    91    92    1
    94    95    92    1
    95    92    93    1
    96    93    94    2
