@<TRIPOS>MOLECULE
tmp/5wltA01.pdb
 102 97 0 0 0
SMALL
GASTEIGER

@<TRIPOS>ATOM
      1  N        -16.6000    7.9600    3.0800 N.3    54  LEU54      -0.1245
      2  CA       -15.9970    8.5790    1.9060 C.3    54  LEU54       0.1561
      3  C        -15.1500    7.6390    1.0650 C.2    54  LEU54       0.2260
      4  O        -15.2610    7.6480   -0.1660 O.2    54  LEU54      -0.2867
      5  CB       -15.1340    9.7660    2.3380 C.3    54  LEU54       0.0270
      6  CG       -15.9130   10.9150    2.9830 C.3    54  LEU54       0.0019
      7  CD1      -14.9590   11.9700    3.4850 C.3    54  LEU54       0.0001
      8  CD2      -16.8950   11.4950    1.9830 C.3    54  LEU54       0.0001
      9  N         -9.0650    2.6980    2.1440 N.3    57  LEU57      -0.1245
     10  CA        -7.6390    2.8410    1.8510 C.3    57  LEU57       0.1561
     11  C         -6.8600    1.6540    2.3990 C.2    57  LEU57       0.2260
     12  O         -7.0370    1.2820    3.5600 O.2    57  LEU57      -0.2867
     13  CB        -7.0740    4.1390    2.4690 C.3    57  LEU57       0.0270
     14  CG        -5.5450    4.3090    2.4790 C.3    57  LEU57       0.0019
     15  CD1       -5.0460    4.6120    1.0790 C.3    57  LEU57       0.0001
     16  CD2       -5.0810    5.3950    3.4690 C.3    57  LEU57       0.0001
     17  N         -3.4680    0.9680    3.7510 N.3    59  ASN59      -0.1240
     18  CA        -2.3500    1.7900    4.2040 C.3    59  ASN59       0.1653
     19  C         -1.0930    0.9750    4.4800 C.2    59  ASN59       0.2266
     20  O         -0.1460    1.5000    5.0780 O.2    59  ASN59      -0.2867
     21  CB        -2.7350    2.6230    5.4390 C.3    59  ASN59       0.1155
     22  CG        -3.0930    1.7750    6.6600 C.2    59  ASN59       0.2627
     23  OD1       -2.7340    0.6010    6.7540 O.2    59  ASN59      -0.2716
     24  ND2       -3.8030    2.3820    7.6050 N.am   59  ASN59      -0.0877
     25  N         -8.5570    1.0630    5.9890 N.3    64  ASN64      -0.1240
     26  CA        -9.3980    1.9950    6.7340 C.3    64  ASN64       0.1653
     27  C        -10.5710    2.4300    5.8660 C.2    64  ASN64       0.2266
     28  O        -10.3740    2.8460    4.7200 O.2    64  ASN64      -0.2867
     29  CB        -8.6230    3.2510    7.1610 C.3    64  ASN64       0.1155
     30  CG        -7.5690    2.9750    8.2010 C.2    64  ASN64       0.2627
     31  OD1       -7.4090    1.8520    8.6560 O.2    64  ASN64      -0.2716
     32  ND2       -6.8310    4.0150    8.5770 N.am   64  ASN64      -0.0877
     33  N        -12.9150    5.4690    5.7650 N.3    66  GLU66      -0.1231
     34  CA       -12.8040    6.8240    6.2930 C.3    66  GLU66       0.1699
     35  C        -14.1460    7.5480    6.2200 C.2    66  GLU66       0.2592
     36  O        -14.9250    7.3370    5.2860 O.2    66  GLU66      -0.2718
     37  CB       -11.7560    7.6200    5.5070 C.3    66  GLU66       0.0402
     38  CG       -10.3870    6.9480    5.4320 C.3    66  GLU66       0.1161
     39  CD        -9.5160    7.5250    4.3220 C.2    66  GLU66       0.3649
     40  OE1      -10.0590    8.2260    3.4410 O.co2  66  GLU66      -0.2457
     41  OE2       -8.2960    7.2700    4.3330 O.co2  66  GLU66      -0.2457
     42  N        -14.3890    8.4360    7.1910 N.am   67  PHE67      -0.1962
     43  CA       -15.6460    9.1700    7.2970 C.3    67  PHE67       0.1771
     44  C        -15.4120   10.6800    7.2980 C.2    67  PHE67       0.2620
     45  O        -14.3290   11.1670    7.6410 O.2    67  PHE67      -0.2715
     46  CB       -16.4190    8.7640    8.5650 C.3    67  PHE67       0.0574
     47  CG       -16.9790    7.3740    8.4970 C.ar   67  PHE67      -0.0200
     48  CD1      -18.3060    7.1540    8.1620 C.ar   67  PHE67      -0.0042
     49  CD2      -16.1620    6.2790    8.7220 C.ar   67  PHE67      -0.0042
     50  CE1      -18.8120    5.8660    8.0670 C.ar   67  PHE67      -0.0003
     51  CE2      -16.6660    4.9820    8.6240 C.ar   67  PHE67      -0.0003
     52  CZ       -17.9900    4.7810    8.2970 C.ar   67  PHE67      -0.0000
     53  N        -16.4490   11.4170    6.8910 N.am   68  ASP68      -0.1957
     54  CA       -16.4710   12.8710    7.0570 C.3    68  ASP68       0.1840
     55  C        -16.6730   13.1870    8.5310 C.2    68  ASP68       0.2622
     56  O        -17.7630   12.9690    9.0740 O.2    68  ASP68      -0.2715
     57  CB       -17.5820   13.4910    6.2100 C.3    68  ASP68       0.1450
     58  CG       -17.7430   14.9910    6.4480 C.2    68  ASP68       0.3671
     59  OD1      -16.8420   15.6070    7.0530 O.co2  68  ASP68      -0.2456
     60  OD2      -18.7700   15.5630    6.0200 O.co2  68  ASP68      -0.2456
     61  N        -15.6280   13.6950    9.1860 N.am   69  ASP69      -0.1957
     62  CA       -15.6960   14.0440   10.6000 C.3    69  ASP69       0.1840
     63  C        -15.6250   15.5530   10.8170 C.2    69  ASP69       0.2622
     64  O        -15.1840   16.0120   11.8720 O.2    69  ASP69      -0.2715
     65  CB       -14.5850   13.3350   11.3740 C.3    69  ASP69       0.1450
     66  CG       -13.2020   13.7830   10.9510 C.2    69  ASP69       0.3671
     67  OD1      -13.0900   14.5000    9.9320 O.co2  69  ASP69      -0.2456
     68  OD2      -12.2210   13.4140   11.6320 O.co2  69  ASP69      -0.2456
     69  N        -16.0450   16.3370    9.8260 N.am   70  SER70      -0.1950
     70  CA       -16.0580   17.7890    9.9590 C.3    70  SER70       0.1924
     71  C        -17.3500   18.3180   10.5720 C.2    70  SER70       0.2314
     72  O        -17.4900   19.5370   10.7260 O.2    70  SER70      -0.2863
     73  CB       -15.8260   18.4540    8.5970 C.3    70  SER70       0.2116
     74  OG       -16.9320   18.2600    7.7260 O.3    70  SER70      -0.2180
     75  N        -14.0070    8.8240   12.8640 N.3    88  ILE88      -0.1231
     76  CA       -13.1150    9.2030   11.7760 C.3    88  ILE88       0.1692
     77  C        -12.8240    8.0310   10.8400 C.2    88  ILE88       0.2591
     78  O        -12.7440    8.2190    9.6260 O.2    88  ILE88      -0.2718
     79  CB       -11.8050    9.8370   12.3050 C.3    88  ILE88       0.0266
     80  CG1      -10.8170   10.0640   11.1540 C.3    88  ILE88       0.0019
     81  CG2      -11.1680    8.9850   13.4020 C.3    88  ILE88       0.0020
     82  CD1       -9.5020   10.6820   11.5970 C.3    88  ILE88       0.0001
     83  N        -12.7010    6.8130   11.3660 N.am   89  GLN89      -0.1979
     84  CA       -12.4260    5.6600   10.5100 C.3    89  GLN89       0.1601
     85  C        -12.7070    4.3850   11.2870 C.2    89  GLN89       0.2287
     86  O        -12.7450    4.4000   12.5170 O.2    89  GLN89      -0.2864
     87  CB       -10.9770    5.6600   10.0000 C.3    89  GLN89       0.0394
     88  CG        -9.9130    5.7740   11.1110 C.3    89  GLN89       0.0908
     89  CD        -9.1860    4.4700   11.4080 C.2    89  GLN89       0.2608
     90  OE1       -9.7310    3.3860   11.2470 O.2    89  GLN89      -0.2717
     91  NE2       -7.9430    4.5860   11.8630 N.am   89  GLN89      -0.0878
     92  N         -8.2540   15.5090   14.8730 N.3   127  PHE127     -0.1241
     93  CA        -7.7020   14.2210   15.2840 C.3   127  PHE127      0.1605
     94  C         -6.2440   14.3410   15.7130 C.2   127  PHE127      0.2264
     95  O         -5.8230   13.6960   16.6810 O.2   127  PHE127     -0.2867
     96  CB        -7.8590   13.2260   14.1320 C.3   127  PHE127      0.0534
     97  CG        -7.2950   11.8620   14.4010 C.ar  127  PHE127     -0.0203
     98  CD1       -8.0090   10.9310   15.1360 C.ar  127  PHE127     -0.0042
     99  CD2       -6.0610   11.4940   13.8830 C.ar  127  PHE127     -0.0042
    100  CE1       -7.4990    9.6640   15.3660 C.ar  127  PHE127     -0.0003
    101  CE2       -5.5450   10.2300   14.1060 C.ar  127  PHE127     -0.0003
    102  CZ        -6.2600    9.3140   14.8490 C.ar  127  PHE127     -0.0000
@<TRIPOS>BOND
     1     4     3    2
     2     3     2    1
     3    15    14    1
     4    10     9    1
     5    10    11    1
     6    10    13    1
     7     2     5    1
     8     2     1    1
     9     8     6    1
    10     5     6    1
    11    11    12    2
    12    13    14    1
    13    14    16    1
    14     6     7    1
    15    40    39   ar
    16    17    18    1
    17    18    19    1
    18    18    21    1
    19    39    41   ar
    20    39    38    1
    21    19    20    2
    22    28    27    2
    23    36    35    2
    24    38    37    1
    25    21    22    1
    26    37    34    1
    27    33    34    1
    28    27    26    1
    29    25    26    1
    30    60    58   ar
    31    57    58    1
    32    57    54    1
    33    35    34    1
    34    35    42   am
    35    58    59   ar
    36    22    23    2
    37    22    24   am
    38    26    29    1
    39    53    54    1
    40    53    44   am
    41    54    55    1
    42    29    30    1
    43    42    43    1
    44    43    44    1
    45    43    46    1
    46    44    45    2
    47    74    73    1
    48    50    48   ar
    49    50    52   ar
    50    48    47   ar
    51    30    32   am
    52    30    31    2
    53    52    51   ar
    54    47    46    1
    55    47    49   ar
    56    55    56    2
    57    55    61   am
    58    73    70    1
    59    51    49   ar
    60    61    62    1
    61    78    77    2
    62    69    70    1
    63    69    63   am
    64    67    66   ar
    65    70    71    1
    66    87    84    1
    67    87    88    1
    68    84    85    1
    69    84    83    1
    70    71    72    2
    71    62    63    1
    72    62    65    1
    73    63    64    2
    74    77    83   am
    75    77    76    1
    76    66    65    1
    77    66    68   ar
    78    88    89    1
    79    80    82    1
    80    80    79    1
    81    90    89    2
    82    85    86    2
    83    89    91   am
    84    76    79    1
    85    76    75    1
    86    79    81    1
    87    99   101   ar
    88    99    97   ar
    89   101   102   ar
    90    96    97    1
    91    96    93    1
    92    97    98   ar
    93   102   100   ar
    94    92    93    1
    95    98   100   ar
    96    93    94    1
    97    94    95    2
