@<TRIPOS>MOLECULE
tmp/5wltA00.pdb
 141 137 0 0 0
SMALL
GASTEIGER

@<TRIPOS>ATOM
      1  N        -12.7010    6.8130   11.3660 N.3    89  GLN89      -0.1245
      2  CA       -12.4260    5.6600   10.5100 C.3    89  GLN89       0.1566
      3  C        -12.7070    4.3850   11.2870 C.2    89  GLN89       0.2260
      4  O        -12.7450    4.4000   12.5170 O.2    89  GLN89      -0.2867
      5  CB       -10.9770    5.6600   10.0000 C.3    89  GLN89       0.0367
      6  CG        -9.9130    5.7740   11.1110 C.3    89  GLN89       0.0905
      7  CD        -9.1860    4.4700   11.4080 C.2    89  GLN89       0.2608
      8  OE1       -9.7310    3.3860   11.2470 O.2    89  GLN89      -0.2717
      9  NE2       -7.9430    4.5860   11.8630 N.am   89  GLN89      -0.0878
     10  N        -11.3390    0.0640   11.0090 N.3    91  HIS91      -0.1241
     11  CA       -10.4320   -0.8980   10.4050 C.3    91  HIS91       0.1621
     12  C        -10.5180   -2.1880   11.2070 C.2    91  HIS91       0.2264
     13  O        -11.1750   -2.2470   12.2490 O.2    91  HIS91      -0.2867
     14  CB        -8.9960   -0.3760   10.3920 C.3    91  HIS91       0.0745
     15  CG        -8.4540   -0.1290   11.7650 C.ar   91  HIS91       0.0817
     16  ND1       -8.5790    1.0840   12.4070 N.ar   91  HIS91      -0.2268
     17  CD2       -7.8230   -0.9540   12.6340 C.ar   91  HIS91       0.1154
     18  CE1       -8.0330    0.9980   13.6090 C.ar   91  HIS91       0.1986
     19  NE2       -7.5750   -0.2310   13.7730 N.ar   91  HIS91      -0.2212
     20  N         -8.1840   -5.9340   12.5290 N.3    93  HIS93      -0.1241
     21  CA        -6.9770   -6.7420   12.6740 C.3    93  HIS93       0.1621
     22  C         -7.3800   -8.2070   12.5860 C.2    93  HIS93       0.2264
     23  O         -8.4140   -8.5940   13.1400 O.2    93  HIS93      -0.2867
     24  CB        -6.2800   -6.4790   14.0140 C.3    93  HIS93       0.0745
     25  CG        -6.0140   -5.0270   14.2880 C.ar   93  HIS93       0.0817
     26  ND1       -4.7740   -4.4500   14.1000 N.ar   93  HIS93      -0.2268
     27  CD2       -6.8360   -4.0310   14.7040 C.ar   93  HIS93       0.1154
     28  CE1       -4.8390   -3.1680   14.4160 C.ar   93  HIS93       0.1986
     29  NE2       -6.0790   -2.8860   14.7760 N.ar   93  HIS93      -0.2212
     30  N        -12.1330   -2.1350   14.9100 N.3   116  HIS116     -0.1241
     31  CA       -11.8810   -0.9200   15.6850 C.3   116  HIS116      0.1621
     32  C        -12.5760    0.2480   15.0010 C.2   116  HIS116      0.2264
     33  O        -12.2010    0.6250   13.8830 O.2   116  HIS116     -0.2867
     34  CB       -10.3780   -0.6460   15.8220 C.3   116  HIS116      0.0745
     35  CG        -9.6690   -1.6290   16.7030 C.ar  116  HIS116      0.0817
     36  ND1       -8.3040   -1.8330   16.6590 N.ar  116  HIS116     -0.2268
     37  CD2      -10.1480   -2.4660   17.6550 C.ar  116  HIS116      0.1154
     38  CE1       -7.9740   -2.7530   17.5480 C.ar  116  HIS116      0.1986
     39  NE2       -9.0720   -3.1510   18.1690 N.ar  116  HIS116     -0.2212
     40  N        -12.8960    4.0820   15.3420 N.3   118  VAL118     -0.1245
     41  CA       -12.0200    5.0730   15.9670 C.3   118  VAL118      0.1561
     42  C        -12.7270    6.4190   16.0120 C.2   118  VAL118      0.2260
     43  O        -13.1700    6.9260   14.9690 O.2   118  VAL118     -0.2867
     44  CB       -10.6920    5.1920   15.1970 C.3   118  VAL118      0.0252
     45  CG1       -9.7580    6.2010   15.8640 C.3   118  VAL118      0.0019
     46  CG2      -10.0140    3.8170   15.0250 C.3   118  VAL118      0.0019
     47  N         -8.2540   15.5090   14.8730 N.3   127  PHE127     -0.1227
     48  CA        -7.7020   14.2210   15.2840 C.3   127  PHE127      0.1736
     49  C         -6.2440   14.3410   15.7130 C.2   127  PHE127      0.2596
     50  O         -5.8230   13.6960   16.6810 O.2   127  PHE127     -0.2718
     51  CB        -7.8590   13.2260   14.1320 C.3   127  PHE127      0.0547
     52  CG        -7.2950   11.8620   14.4010 C.ar  127  PHE127     -0.0202
     53  CD1       -8.0090   10.9310   15.1360 C.ar  127  PHE127     -0.0042
     54  CD2       -6.0610   11.4940   13.8830 C.ar  127  PHE127     -0.0042
     55  CE1       -7.4990    9.6640   15.3660 C.ar  127  PHE127     -0.0003
     56  CE2       -5.5450   10.2300   14.1060 C.ar  127  PHE127     -0.0003
     57  CZ        -6.2600    9.3140   14.8490 C.ar  127  PHE127     -0.0000
     58  N         -5.4530   15.1540   15.0030 N.am  128  GLY128     -0.1957
     59  CA        -4.0470   15.2750   15.3430 C.3   128  GLY128      0.1869
     60  C         -3.8110   15.9000   16.7020 C.2   128  GLY128      0.2309
     61  O         -2.8490   15.5480   17.3940 O.2   128  GLY128     -0.2863
     62  N         -4.9390   13.0800   19.6170 N.3   131  VAL131     -0.1245
     63  CA        -4.0450   11.9790   19.9780 C.3   131  VAL131      0.1561
     64  C         -2.9390   12.4080   20.9290 C.2   131  VAL131      0.2260
     65  O         -2.2120   11.5490   21.4420 O.2   131  VAL131     -0.2867
     66  CB        -3.4000   11.3000   18.7430 C.3   131  VAL131      0.0252
     67  CG1       -4.4710   10.7230   17.8180 C.3   131  VAL131      0.0019
     68  CG2       -2.4790   12.2580   17.9920 C.3   131  VAL131      0.0019
     69  N         -9.1110   10.0810   22.3660 N.3   137  LEU137     -0.1245
     70  CA        -9.7620    9.1100   21.4930 C.3   137  LEU137      0.1561
     71  C        -10.6410    8.1520   22.2880 C.2   137  LEU137      0.2260
     72  O        -10.3950    7.8700   23.4700 O.2   137  LEU137     -0.2867
     73  CB        -8.7510    8.2690   20.6960 C.3   137  LEU137      0.0270
     74  CG        -7.7620    8.8690   19.6880 C.3   137  LEU137      0.0019
     75  CD1       -7.1790    7.7770   18.7660 C.3   137  LEU137      0.0001
     76  CD2       -8.3140   10.0170   18.8790 C.3   137  LEU137      0.0001
     77  N        -12.0030    4.2820   21.1970 N.3   139  VAL139     -0.1245
     78  CA       -12.0580    3.2390   20.1840 C.3   139  VAL139      0.1561
     79  C        -13.0330    2.1730   20.6600 C.2   139  VAL139      0.2260
     80  O        -12.9210    1.6620   21.7820 O.2   139  VAL139     -0.2867
     81  CB       -10.6760    2.6450   19.8580 C.3   139  VAL139      0.0252
     82  CG1      -10.8170    1.6670   18.6870 C.3   139  VAL139      0.0019
     83  CG2       -9.7130    3.7440   19.4590 C.3   139  VAL139      0.0019
     84  N         -3.1070    3.6690   21.3700 N.3   194  LEU194     -0.1231
     85  CA        -3.0870    3.1030   20.0220 C.3   194  LEU194      0.1693
     86  C         -2.3350    1.7790   20.0380 C.2   194  LEU194      0.2593
     87  O         -1.3310    1.6330   20.7460 O.2   194  LEU194     -0.2718
     88  CB        -2.3910    4.0610   19.0550 C.3   194  LEU194      0.0284
     89  CG        -2.8560    5.5170   19.0290 C.3   194  LEU194      0.0019
     90  CD1       -1.9860    6.2970   18.0430 C.3   194  LEU194      0.0001
     91  CD2       -4.3260    5.6280   18.6560 C.3   194  LEU194      0.0001
     92  N         -2.7940    0.8110   19.2370 N.am  195  THR195     -0.1939
     93  CA        -2.1180   -0.4880   19.2030 C.3   195  THR195      0.2028
     94  C         -1.0990   -0.6040   18.0830 C.2   195  THR195      0.2643
     95  O         -0.5280   -1.6850   17.9050 O.2   195  THR195     -0.2714
     96  CB        -3.1220   -1.6390   19.0650 C.3   195  THR195      0.1808
     97  OG1       -3.7320   -1.5900   17.7650 O.3   195  THR195     -0.2208
     98  CG2       -4.1930   -1.5980   20.1750 C.3   195  THR195      0.0379
     99  N         -0.8900    0.4500   17.2950 N.am  196  THR196     -0.1937
    100  CA         0.2100    0.5280   16.3460 C.3   196  THR196      0.2013
    101  C          1.0190    1.7770   16.6400 C.2   196  THR196      0.2484
    102  O          0.5080    2.7250   17.2530 O.2   196  THR196     -0.2729
    103  CB        -0.2720    0.5970   14.8890 C.3   196  THR196      0.1807
    104  OG1       -0.8610    1.8820   14.6400 O.3   196  THR196     -0.2208
    105  CG2       -1.2690   -0.5110   14.5810 C.3   196  THR196      0.0379
    106  N          2.2840    1.8280   16.1940 N.am  197  PRO197     -0.2715
    107  CA         3.0380    3.0770   16.2640 C.3   197  PRO197      0.1521
    108  C          2.1930    4.2170   15.7040 C.2   197  PRO197      0.2440
    109  O          1.4850    4.0150   14.7040 O.2   197  PRO197     -0.2731
    110  CB         4.2800    2.7740   15.4070 C.3   197  PRO197      0.0310
    111  CG         4.4860    1.3070   15.6020 C.3   197  PRO197      0.0237
    112  CD         3.0850    0.7370   15.5970 C.3   197  PRO197      0.0939
    113  N          2.2300    5.3920   16.3420 N.am  198  PRO198     -0.2727
    114  CA         3.1430    5.7940   17.4300 C.3   198  PRO198      0.1402
    115  C          2.7690    5.3630   18.8650 C.2   198  PRO198      0.2269
    116  O          3.4240    5.8210   19.8030 O.2   198  PRO198     -0.2865
    117  CB         3.1370    7.3240   17.3170 C.3   198  PRO198      0.0296
    118  CG         1.7930    7.6550   16.7920 C.3   198  PRO198      0.0237
    119  CD         1.3960    6.5160   15.8700 C.3   198  PRO198      0.0939
    120  N          0.4880    6.0210   20.9780 N.3   200  LEU200     -0.1245
    121  CA         0.2010    7.1160   21.8990 C.3   200  LEU200      0.1561
    122  C         -0.8640    6.7220   22.9260 C.2   200  LEU200      0.2260
    123  O         -1.8440    6.0380   22.6070 O.2   200  LEU200     -0.2867
    124  CB        -0.2410    8.3510   21.1090 C.3   200  LEU200      0.0270
    125  CG         0.8310    8.9460   20.1930 C.3   200  LEU200      0.0019
    126  CD1        0.1940   10.0060   19.3000 C.3   200  LEU200      0.0001
    127  CD2        1.9650    9.5520   21.0300 C.3   200  LEU200      0.0001
    128  N        -10.6240    2.7910   25.8380 N.3   205  TRP205     -0.1241
    129  CA       -11.0390    1.6000   25.1190 C.3   205  TRP205      0.1605
    130  C        -12.4050    1.1570   25.6090 C.2   205  TRP205      0.2264
    131  O        -12.6480    1.1090   26.8180 O.2   205  TRP205     -0.2867
    132  CB       -10.0090    0.4760   25.2900 C.3   205  TRP205      0.0550
    133  CG        -8.9170    0.6020   24.2810 C.ar  205  TRP205      0.0003
    134  CD1       -7.6880    1.1790   24.4560 C.ar  205  TRP205      0.0946
    135  CD2       -8.9730    0.1720   22.9220 C.ar  205  TRP205      0.0152
    136  NE1       -6.9740    1.1350   23.2780 N.ar  205  TRP205     -0.2442
    137  CE2       -7.7420    0.5120   22.3240 C.ar  205  TRP205      0.0810
    138  CE3       -9.9500   -0.4670   22.1480 C.ar  205  TRP205      0.0012
    139  CZ2       -7.4610    0.2300   20.9900 C.ar  205  TRP205      0.0191
    140  CZ3       -9.6650   -0.7530   20.8190 C.ar  205  TRP205      0.0001
    141  CH2       -8.4270   -0.4060   20.2570 C.ar  205  TRP205      0.0015
@<TRIPOS>BOND
     1     5     2    1
     2     5     6    1
     3    14    11    1
     4    14    15    1
     5    11    10    1
     6    11    12    1
     7     2     3    1
     8     2     1    1
     9     6     7    1
    10    12    13    2
    11     8     7    2
    12     3     4    2
    13     7     9   am
    14    15    16   ar
    15    15    17   ar
    16    16    18   ar
    17    20    21    1
    18    22    21    1
    19    22    23    2
    20    17    19   ar
    21    21    24    1
    22    18    19   ar
    23    54    56   ar
    24    54    52   ar
    25    33    32    2
    26    24    25    1
    27    26    25   ar
    28    26    28   ar
    29    56    57   ar
    30    51    52    1
    31    51    48    1
    32    25    27   ar
    33    52    53   ar
    34    28    29   ar
    35   105   103    1
    36   104   103    1
    37    27    29   ar
    38   109   108    2
    39    57    55   ar
    40    47    48    1
    41   103   100    1
    42    30    31    1
    43    43    42    2
    44    32    31    1
    45    58    59    1
    46    58    49   am
    47    46    44    1
    48    53    55   ar
    49    44    45    1
    50    44    41    1
    51    48    49    1
    52    40    41    1
    53    59    60    1
    54   110   111    1
    55   110   107    1
    56   112   111    1
    57   112   106    1
    58    31    34    1
    59   108   107    1
    60   108   113   am
    61    49    50    2
    62    34    35    1
    63   119   113    1
    64   119   118    1
    65    41    42    1
    66   106   107    1
    67   106   101   am
    68   113   114    1
    69   100   101    1
    70   100    99    1
    71   101   102    2
    72    36    35   ar
    73    36    38   ar
    74    60    61    2
    75    35    37   ar
    76   118   117    1
    77    99    94   am
    78   117   114    1
    79   114   115    1
    80    38    39   ar
    81    37    39   ar
    82    97    96    1
    83    67    66    1
    84    95    94    2
    85    68    66    1
    86    90    89    1
    87    94    93    1
    88    91    89    1
    89    82    81    1
    90    66    63    1
    91    75    74    1
    92   115   116    2
    93    76    74    1
    94    89    88    1
    95    88    85    1
    96    96    93    1
    97    96    98    1
    98    93    92    1
    99    92    86   am
   100   126   125    1
   101    83    81    1
   102    62    63    1
   103    74    73    1
   104    81    78    1
   105    63    64    1
   106    85    86    1
   107    85    84    1
   108    86    87    2
   109    78    79    1
   110    78    77    1
   111   125   127    1
   112   125   124    1
   113   141   140   ar
   114   141   139   ar
   115    79    80    2
   116    73    70    1
   117   140   138   ar
   118    64    65    2
   119   120   121    1
   120   139   137   ar
   121   124   121    1
   122    70    71    1
   123    70    69    1
   124   121   122    1
   125   138   135   ar
   126    71    72    2
   127   137   135   ar
   128   137   136   ar
   129   123   122    2
   130   135   133   ar
   131   136   134   ar
   132   133   134   ar
   133   133   132    1
   134   129   132    1
   135   129   130    1
   136   129   128    1
   137   130   131    2
