@<TRIPOS>MOLECULE
tmp/5wluA00.pdb
 162 157 0 0 0
SMALL
GASTEIGER

@<TRIPOS>ATOM
      1  N          3.2660   -1.4140   76.7940 N.3    61  HIS61      -0.1241
      2  CA         3.0950   -2.1690   78.0230 C.3    61  HIS61       0.1621
      3  C          1.6770   -2.6710   78.2440 C.2    61  HIS61       0.2264
      4  O          1.4910   -3.6040   79.0330 O.2    61  HIS61      -0.2867
      5  CB         3.5790   -1.3700   79.2480 C.3    61  HIS61       0.0745
      6  CG         3.0720    0.0410   79.3150 C.ar   61  HIS61       0.0817
      7  ND1        1.9860    0.4070   80.0800 N.ar   61  HIS61      -0.2268
      8  CD2        3.5290    1.1820   78.7450 C.ar   61  HIS61       0.1154
      9  CE1        1.7870    1.7090   79.9710 C.ar   61  HIS61       0.1986
     10  NE2        2.7090    2.2030   79.1650 N.ar   61  HIS61      -0.2212
     11  N        -10.1000    8.9920   82.8110 N.3    88  LEU88      -0.1231
     12  CA        -9.1360    9.2950   81.7630 C.3    88  LEU88       0.1693
     13  C         -8.9280    8.1490   80.7880 C.2    88  LEU88       0.2591
     14  O         -8.8720    8.3820   79.5720 O.2    88  LEU88      -0.2718
     15  CB        -7.7820    9.6730   82.3850 C.3    88  LEU88       0.0284
     16  CG        -6.5920    9.9440   81.4620 C.3    88  LEU88       0.0019
     17  CD1       -6.8690   11.1670   80.5890 C.3    88  LEU88       0.0001
     18  CD2       -5.3020   10.1440   82.2460 C.3    88  LEU88       0.0001
     19  N         -8.8180    6.9230   81.2920 N.am   89  GLN89      -0.1979
     20  CA        -8.4700    5.7710   80.4730 C.3    89  GLN89       0.1601
     21  C         -8.7100    4.4990   81.2680 C.2    89  GLN89       0.2287
     22  O         -8.7550    4.5120   82.5070 O.2    89  GLN89      -0.2864
     23  CB        -7.0110    5.8420   79.9970 C.3    89  GLN89       0.0394
     24  CG        -5.9590    5.9810   81.1120 C.3    89  GLN89       0.0908
     25  CD        -5.2330    4.6960   81.4830 C.2    89  GLN89       0.2608
     26  OE1       -5.7550    3.5900   81.3370 O.2    89  GLN89      -0.2717
     27  NE2       -4.0010    4.8450   81.9380 N.am   89  GLN89      -0.0878
     28  N         -7.2700    0.2200   80.9610 N.3    91  HIS91      -0.1241
     29  CA        -6.3260   -0.7050   80.3540 C.3    91  HIS91       0.1621
     30  C         -6.3810   -1.9930   81.1570 C.2    91  HIS91       0.2264
     31  O         -7.0300   -2.0690   82.2040 O.2    91  HIS91      -0.2867
     32  CB        -4.8950   -0.1550   80.3860 C.3    91  HIS91       0.0745
     33  CG        -4.3840    0.0930   81.7700 C.ar   91  HIS91       0.0817
     34  ND1       -4.5680    1.2970   82.4160 N.ar   91  HIS91      -0.2268
     35  CD2       -3.7620   -0.7220   82.6530 C.ar   91  HIS91       0.1154
     36  CE1       -4.0430    1.2220   83.6270 C.ar   91  HIS91       0.1986
     37  NE2       -3.5620    0.0020   83.7990 N.ar   91  HIS91      -0.2212
     38  N         -4.1460   -5.7280   82.5330 N.3    93  HIS93      -0.1241
     39  CA        -2.9600   -6.5570   82.7270 C.3    93  HIS93       0.1621
     40  C         -3.3970   -8.0140   82.6410 C.2    93  HIS93       0.2264
     41  O         -4.4610   -8.3670   83.1560 O.2    93  HIS93      -0.2867
     42  CB        -2.3290   -6.3150   84.0950 C.3    93  HIS93       0.0745
     43  CG        -2.0200   -4.8760   84.3730 C.ar   93  HIS93       0.0817
     44  ND1       -0.7720   -4.3320   84.1620 N.ar   93  HIS93      -0.2268
     45  CD2       -2.8010   -3.8690   84.8250 C.ar   93  HIS93       0.1154
     46  CE1       -0.7950   -3.0500   84.4950 C.ar   93  HIS93       0.1986
     47  NE2       -2.0180   -2.7390   84.8780 N.ar   93  HIS93      -0.2212
     48  N         -8.1380   -1.9070   84.8630 N.3   116  HIS116     -0.1241
     49  CA        -7.9060   -0.6950   85.6480 C.3   116  HIS116      0.1621
     50  C         -8.5910    0.4640   84.9430 C.2   116  HIS116      0.2264
     51  O         -8.1830    0.8530   83.8450 O.2   116  HIS116     -0.2867
     52  CB        -6.4180   -0.4060   85.7860 C.3   116  HIS116      0.0745
     53  CG        -5.7140   -1.3730   86.6740 C.ar  116  HIS116      0.0817
     54  ND1       -4.3560   -1.6110   86.5980 N.ar  116  HIS116     -0.2268
     55  CD2       -6.1900   -2.1660   87.6620 C.ar  116  HIS116      0.1154
     56  CE1       -4.0320   -2.5100   87.5100 C.ar  116  HIS116      0.1986
     57  NE2       -5.1250   -2.8680   88.1620 N.ar  116  HIS116     -0.2212
     58  N         -8.9710    4.3400   85.2300 N.3   118  VAL118     -0.1245
     59  CA        -8.0810    5.3170   85.8600 C.3   118  VAL118      0.1561
     60  C         -8.7740    6.6740   85.9100 C.2   118  VAL118      0.2260
     61  O         -9.2390    7.1850   84.8800 O.2   118  VAL118     -0.2867
     62  CB        -6.7440    5.4070   85.0990 C.3   118  VAL118      0.0252
     63  CG1       -5.8120    6.3980   85.7760 C.3   118  VAL118      0.0019
     64  CG2       -6.0890    4.0300   84.9760 C.3   118  VAL118      0.0019
     65  N         -5.3320   18.8370   86.1520 N.3   126  ASP126     -0.1225
     66  CA        -4.9270   17.9360   85.0780 C.3   126  ASP126      0.1805
     67  C         -4.2010   16.7400   85.6780 C.2   126  ASP126      0.2598
     68  O         -3.7090   16.7910   86.8080 O.2   126  ASP126     -0.2718
     69  CB        -4.0550   18.6310   84.0160 C.3   126  ASP126      0.1424
     70  CG        -2.7080   19.0940   84.5580 C.2   126  ASP126      0.3668
     71  OD1       -2.5640   20.3040   84.8280 O.co2 126  ASP126     -0.2456
     72  OD2       -1.7820   18.2660   84.7210 O.co2 126  ASP126     -0.2456
     73  N         -4.1290   15.6590   84.8950 N.am  127  VAL127     -0.1966
     74  CA        -3.6350   14.3870   85.4240 C.3   127  VAL127      0.1727
     75  C         -2.1720   14.4880   85.8350 C.2   127  VAL127      0.2616
     76  O         -1.7530   13.8830   86.8270 O.2   127  VAL127     -0.2715
     77  CB        -3.8840   13.2400   84.4240 C.3   127  VAL127      0.0290
     78  CG1       -3.2060   13.5250   83.0910 C.3   127  VAL127      0.0023
     79  CG2       -3.3960   11.9190   85.0030 C.3   127  VAL127      0.0023
     80  N         -1.3760   15.2580   85.0900 N.am  128  GLY128     -0.1955
     81  CA         0.0350   15.3870   85.4260 C.3   128  GLY128      0.1869
     82  C          0.2600   16.0100   86.7900 C.2   128  GLY128      0.2309
     83  O          1.1980   15.6500   87.5060 O.2   128  GLY128     -0.2863
     84  N         -0.8180   13.3310   89.6010 N.3   131  VAL131     -0.1245
     85  CA         0.1300   12.2660   89.9460 C.3   131  VAL131      0.1561
     86  C          1.1910   12.7060   90.9490 C.2   131  VAL131      0.2260
     87  O          1.9120   11.8590   91.4980 O.2   131  VAL131     -0.2867
     88  CB         0.7370   11.5460   88.7190 C.3   131  VAL131      0.0252
     89  CG1       -0.3620   10.9290   87.8430 C.3   131  VAL131      0.0019
     90  CG2        1.6220   12.4880   87.9080 C.3   131  VAL131      0.0019
     91  N         -5.0940   10.3050   92.2620 N.3   137  LEU137     -0.1245
     92  CA        -5.7540    9.3620   91.3790 C.3   137  LEU137      0.1561
     93  C         -6.5780    8.3750   92.1860 C.2   137  LEU137      0.2260
     94  O         -6.2890    8.0920   93.3580 O.2   137  LEU137     -0.2867
     95  CB        -4.7510    8.5370   90.5120 C.3   137  LEU137      0.0270
     96  CG        -3.6990    9.1690   89.5830 C.3   137  LEU137      0.0019
     97  CD1       -3.3920    8.2580   88.3800 C.3   137  LEU137      0.0001
     98  CD2       -4.0270   10.5820   89.1250 C.3   137  LEU137      0.0001
     99  N         -8.0040    4.5050   91.1620 N.3   139  VAL139     -0.1245
    100  CA        -8.0740    3.4460   90.1580 C.3   139  VAL139      0.1561
    101  C         -9.0490    2.3870   90.6470 C.2   139  VAL139      0.2260
    102  O         -8.9020    1.8490   91.7600 O.2   139  VAL139     -0.2867
    103  CB        -6.6950    2.8610   89.8090 C.3   139  VAL139      0.0252
    104  CG1       -6.8260    1.8410   88.6660 C.3   139  VAL139      0.0019
    105  CG2       -5.7400    3.9790   89.3720 C.3   139  VAL139      0.0019
    106  N          0.9030    3.8560   91.4400 N.3   194  LEU194     -0.1231
    107  CA         0.8770    3.3180   90.0910 C.3   194  LEU194      0.1693
    108  C          1.6370    1.9970   90.0500 C.2   194  LEU194      0.2593
    109  O          2.6520    1.8150   90.7290 O.2   194  LEU194     -0.2718
    110  CB         1.5600    4.2970   89.1450 C.3   194  LEU194      0.0284
    111  CG         1.1350    5.7650   89.1130 C.3   194  LEU194      0.0019
    112  CD1        2.0000    6.4570   88.0750 C.3   194  LEU194      0.0001
    113  CD2       -0.3510    5.9170   88.7950 C.3   194  LEU194      0.0001
    114  N          1.1540    1.0560   89.2360 N.am  195  THR195     -0.1939
    115  CA         1.8290   -0.2310   89.1370 C.3   195  THR195      0.2028
    116  C          2.8230   -0.2980   87.9960 C.2   195  THR195      0.2643
    117  O          3.4770   -1.3330   87.8300 O.2   195  THR195     -0.2714
    118  CB         0.8420   -1.3960   89.0230 C.3   195  THR195      0.1808
    119  OG1        0.1890   -1.3390   87.7530 O.3   195  THR195     -0.2208
    120  CG2       -0.1900   -1.3610   90.1500 C.3   195  THR195      0.0379
    121  N          2.9430    0.7570   87.1960 N.am  196  THR196     -0.1937
    122  CA         3.9860    0.8550   86.1910 C.3   196  THR196      0.2013
    123  C          4.7620    2.1320   86.4550 C.2   196  THR196      0.2484
    124  O          4.2390    3.0590   87.0830 O.2   196  THR196     -0.2729
    125  CB         3.4160    0.9080   84.7610 C.3   196  THR196      0.1807
    126  OG1        2.4120    1.9230   84.6520 O.3   196  THR196     -0.2208
    127  CG2        2.8420   -0.4260   84.3270 C.3   196  THR196      0.0379
    128  N          6.0310    2.2110   86.0130 N.am  197  PRO197     -0.2715
    129  CA         6.7870    3.4710   86.1220 C.3   197  PRO197      0.1521
    130  C          5.9800    4.7030   85.6870 C.2   197  PRO197      0.2440
    131  O          5.3080    4.6490   84.6590 O.2   197  PRO197     -0.2731
    132  CB         7.9780    3.2240   85.1950 C.3   197  PRO197      0.0310
    133  CG         8.2490    1.7280   85.3990 C.3   197  PRO197      0.0237
    134  CD         6.8710    1.0900   85.5410 C.3   197  PRO197      0.0939
    135  N          6.0630    5.8110   86.4440 N.am  198  PRO198     -0.2727
    136  CA         7.0150    6.0600   87.5410 C.3   198  PRO198      0.1402
    137  C          6.6700    5.5220   88.9470 C.2   198  PRO198      0.2269
    138  O          7.3730    5.8860   89.9020 O.2   198  PRO198     -0.2865
    139  CB         7.0900    7.5880   87.5720 C.3   198  PRO198      0.0296
    140  CG         5.7240    8.0290   87.1340 C.3   198  PRO198      0.0237
    141  CD         5.3240    7.0300   86.0650 C.3   198  PRO198      0.0939
    142  N         -2.2520    7.0310   94.4370 N.3   203  VAL203     -0.1245
    143  CA        -3.4730    6.3150   94.0830 C.3   203  VAL203      0.1561
    144  C         -4.2460    5.8810   95.3260 C.2   203  VAL203      0.2260
    145  O         -3.6940    5.2250   96.2200 O.2   203  VAL203     -0.2867
    146  CB        -3.1480    5.0890   93.2150 C.3   203  VAL203      0.0252
    147  CG1       -4.4380    4.3210   92.8340 C.3   203  VAL203      0.0019
    148  CG2       -2.3430    5.4980   91.9830 C.3   203  VAL203      0.0019
    149  N         -6.6440    3.0530   95.8280 N.3   205  TRP205     -0.1241
    150  CA        -7.0740    1.8360   95.1450 C.3   205  TRP205      0.1605
    151  C         -8.4550    1.4120   95.6240 C.2   205  TRP205      0.2264
    152  O         -8.7260    1.4090   96.8300 O.2   205  TRP205     -0.2867
    153  CB        -6.0560    0.6980   95.3480 C.3   205  TRP205      0.0550
    154  CG        -4.9600    0.8020   94.3260 C.ar  205  TRP205      0.0003
    155  CD1       -3.7380    1.4020   94.4810 C.ar  205  TRP205      0.0946
    156  CD2       -5.0190    0.3760   92.9600 C.ar  205  TRP205      0.0152
    157  NE1       -3.0270    1.3520   93.3010 N.ar  205  TRP205     -0.2442
    158  CE2       -3.7930    0.7230   92.3540 C.ar  205  TRP205      0.0810
    159  CE3       -5.9860   -0.2730   92.1880 C.ar  205  TRP205      0.0012
    160  CZ2       -3.5130    0.4470   91.0150 C.ar  205  TRP205      0.0191
    161  CZ3       -5.7000   -0.5590   90.8690 C.ar  205  TRP205      0.0001
    162  CH2       -4.4780   -0.1940   90.2920 C.ar  205  TRP205      0.0015
@<TRIPOS>BOND
     1     1     2    1
     2     2     3    1
     3     2     5    1
     4     3     4    2
     5     8    10   ar
     6     8     6   ar
     7    10     9   ar
     8     5     6    1
     9     6     7   ar
    10    14    13    2
    11     9     7   ar
    12    23    20    1
    13    23    24    1
    14    29    32    1
    15    29    28    1
    16    29    30    1
    17    32    33    1
    18    20    21    1
    19    20    19    1
    20    17    16    1
    21    13    19   am
    22    13    12    1
    23    24    25    1
    24    30    31    2
    25    21    22    2
    26    26    25    2
    27    16    18    1
    28    16    15    1
    29    25    27   am
    30    12    15    1
    31    12    11    1
    32    33    34   ar
    33    33    35   ar
    34    34    36   ar
    35    38    39    1
    36    40    39    1
    37    40    41    2
    38    35    37   ar
    39    39    42    1
    40    78    77    1
    41    36    37   ar
    42    51    50    2
    43    69    70    1
    44    69    66    1
    45    42    43    1
    46    44    43   ar
    47    44    46   ar
    48   127   125    1
    49    43    45   ar
    50    77    79    1
    51    77    74    1
    52    46    47   ar
    53    70    72   ar
    54    70    71   ar
    55   126   125    1
    56   131   130    2
    57   125   122    1
    58    45    47   ar
    59    48    49    1
    60    61    60    2
    61    73    74    1
    62    73    67   am
    63    50    49    1
    64    64    62    1
    65    66    67    1
    66    66    65    1
    67    80    81    1
    68    80    75   am
    69    62    63    1
    70    62    59    1
    71   132   133    1
    72   132   129    1
    73    58    59    1
    74   133   134    1
    75    74    75    1
    76    81    82    1
    77   134   128    1
    78    49    52    1
    79    67    68    2
    80   130   129    1
    81   130   135   am
    82    52    53    1
    83    75    76    2
    84    59    60    1
    85   128   129    1
    86   128   123   am
    87   141   135    1
    88   141   140    1
    89   122   123    1
    90   122   121    1
    91   135   136    1
    92   123   124    2
    93    54    53   ar
    94    54    56   ar
    95    53    55   ar
    96    82    83    2
    97   140   139    1
    98   121   116   am
    99    56    57   ar
   100   136   139    1
   101   136   137    1
   102    55    57   ar
   103   119   118    1
   104   117   116    2
   105    89    88    1
   106    90    88    1
   107   116   115    1
   108   112   111    1
   109    97    96    1
   110   104   103    1
   111    88    85    1
   112   113   111    1
   113   137   138    2
   114   118   115    1
   115   118   120    1
   116   111   110    1
   117    98    96    1
   118   115   114    1
   119   110   107    1
   120   114   108   am
   121   105   103    1
   122    96    95    1
   123    84    85    1
   124   103   100    1
   125    85    86    1
   126   108   107    1
   127   108   109    2
   128   107   106    1
   129   100   101    1
   130   100    99    1
   131   162   161   ar
   132   162   160   ar
   133    95    92    1
   134   101   102    2
   135   161   159   ar
   136    86    87    2
   137   160   158   ar
   138    92    93    1
   139    92    91    1
   140   148   146    1
   141    93    94    2
   142   159   156   ar
   143   158   156   ar
   144   158   157   ar
   145   147   146    1
   146   156   154   ar
   147   146   143    1
   148   157   155   ar
   149   143   142    1
   150   143   144    1
   151   154   155   ar
   152   154   153    1
   153   150   153    1
   154   150   151    1
   155   150   149    1
   156   144   145    2
   157   151   152    2
