@<TRIPOS>MOLECULE
tmp/5wlvA01.pdb
 141 138 0 0 0
SMALL
GASTEIGER

@<TRIPOS>ATOM
      1  N        -16.6180    7.5540    3.2540 N.3    54  LEU54      -0.1245
      2  CA       -16.0110    8.2150    2.1030 C.3    54  LEU54       0.1561
      3  C        -15.2150    7.2750    1.2150 C.2    54  LEU54       0.2260
      4  O        -15.3600    7.3170   -0.0120 O.2    54  LEU54      -0.2867
      5  CB       -15.0930    9.3520    2.5770 C.3    54  LEU54       0.0270
      6  CG       -15.7650   10.4910    3.3420 C.3    54  LEU54       0.0019
      7  CD1      -14.7090   11.4290    3.8940 C.3    54  LEU54       0.0001
      8  CD2      -16.7330   11.2360    2.4460 C.3    54  LEU54       0.0001
      9  N        -14.3960    8.0010    7.3200 N.3    67  PHE67      -0.1227
     10  CA       -15.6660    8.7060    7.4190 C.3    67  PHE67       0.1736
     11  C        -15.4550   10.2150    7.4490 C.2    67  PHE67       0.2595
     12  O        -14.3820   10.7100    7.8010 O.2    67  PHE67      -0.2718
     13  CB       -16.4110    8.2810    8.6930 C.3    67  PHE67       0.0547
     14  CG       -16.9720    6.8940    8.6190 C.ar   67  PHE67      -0.0202
     15  CD1      -16.1520    5.7900    8.8010 C.ar   67  PHE67      -0.0042
     16  CD2      -18.3160    6.6900    8.3320 C.ar   67  PHE67      -0.0042
     17  CE1      -16.6710    4.5020    8.7080 C.ar   67  PHE67      -0.0003
     18  CE2      -18.8370    5.4090    8.2370 C.ar   67  PHE67      -0.0003
     19  CZ       -18.0070    4.3170    8.4230 C.ar   67  PHE67      -0.0000
     20  N        -16.5110   10.9520    7.1000 N.am   68  ASP68      -0.1960
     21  CA       -16.5250   12.4040    7.2680 C.3    68  ASP68       0.1840
     22  C        -16.7380   12.7200    8.7450 C.2    68  ASP68       0.2622
     23  O        -17.8380   12.5370    9.2810 O.2    68  ASP68      -0.2715
     24  CB       -17.6250   13.0250    6.4140 C.3    68  ASP68       0.1450
     25  CG       -17.7710   14.5310    6.6430 C.2    68  ASP68       0.3671
     26  OD1      -16.8640   15.1540    7.2340 O.co2  68  ASP68      -0.2456
     27  OD2      -18.8040   15.0930    6.2180 O.co2  68  ASP68      -0.2456
     28  N        -15.6860   13.1930    9.4080 N.am   69  ASP69      -0.1957
     29  CA       -15.7370   13.5350   10.8230 C.3    69  ASP69       0.1840
     30  C        -15.5970   15.0370   11.0520 C.2    69  ASP69       0.2622
     31  O        -15.1280   15.4650   12.1100 O.2    69  ASP69      -0.2715
     32  CB       -14.6800   12.7570   11.6090 C.3    69  ASP69       0.1450
     33  CG       -13.2680   13.0480   11.1400 C.2    69  ASP69       0.3671
     34  OD1      -13.1010   13.8100   10.1610 O.co2  69  ASP69      -0.2456
     35  OD2      -12.3150   12.5060   11.7460 O.co2  69  ASP69      -0.2456
     36  N        -15.9870   15.8420   10.0600 N.am   70  SER70      -0.1950
     37  CA       -15.9340   17.2980   10.1480 C.3    70  SER70       0.1924
     38  C        -17.2110   17.8960   10.7240 C.2    70  SER70       0.2314
     39  O        -17.3090   19.1220   10.8440 O.2    70  SER70      -0.2863
     40  CB       -15.6310   17.9120    8.7730 C.3    70  SER70       0.2116
     41  OG       -16.7400   17.8050    7.8890 O.3    70  SER70      -0.2180
     42  N        -13.9820    8.3290   13.0120 N.3    88  ILE88      -0.1245
     43  CA       -13.0610    8.7160   11.9450 C.3    88  ILE88       0.1561
     44  C        -12.8400    7.5840   10.9470 C.2    88  ILE88       0.2260
     45  O        -12.8040    7.8180    9.7350 O.2    88  ILE88      -0.2867
     46  CB       -11.7210    9.2730   12.4900 C.3    88  ILE88       0.0252
     47  CG1      -10.7140    9.4680   11.3430 C.3    88  ILE88       0.0019
     48  CG2      -11.1320    8.3920   13.5970 C.3    88  ILE88       0.0019
     49  CD1       -9.3870   10.1220   11.7640 C.3    88  ILE88       0.0001
     50  N        -12.6940   10.0290   18.0320 N.3   120  TRP120     -0.1241
     51  CA       -11.8880   11.0320   18.7290 C.3   120  TRP120      0.1605
     52  C        -12.7610   12.0850   19.4090 C.2   120  TRP120      0.2264
     53  O        -13.8510   12.4350   18.9300 O.2   120  TRP120     -0.2867
     54  CB       -10.8300   11.6860   17.8090 C.3   120  TRP120      0.0550
     55  CG       -11.4110   12.3700   16.5980 C.ar  120  TRP120      0.0003
     56  CD1      -11.7560   11.7870   15.4090 C.ar  120  TRP120      0.0946
     57  CD2      -11.7170   13.7610   16.4660 C.ar  120  TRP120      0.0152
     58  NE1      -12.2580   12.7270   14.5460 N.ar  120  TRP120     -0.2442
     59  CE2      -12.2490   13.9490   15.1700 C.ar  120  TRP120      0.0810
     60  CE3      -11.5940   14.8670   17.3150 C.ar  120  TRP120      0.0012
     61  CZ2      -12.6580   15.2020   14.7010 C.ar  120  TRP120      0.0191
     62  CZ3      -11.9970   16.1070   16.8490 C.ar  120  TRP120      0.0001
     63  CH2      -12.5230   16.2660   15.5530 C.ar  120  TRP120      0.0015
     64  N         -9.1940   18.3870   16.4350 N.3   126  ASP126     -0.1225
     65  CA        -8.8690   17.4960   15.3300 C.3   126  ASP126      0.1805
     66  C         -8.2200   16.2240   15.8650 C.2   126  ASP126      0.2598
     67  O         -7.7600   16.1700   17.0110 O.2   126  ASP126     -0.2718
     68  CB        -8.0620   18.1900   14.2030 C.3   126  ASP126      0.1424
     69  CG        -6.6330   18.5520   14.6100 C.2   126  ASP126      0.3668
     70  OD1       -5.8450   17.6320   14.8990 O.co2 126  ASP126     -0.2456
     71  OD2       -6.2730   19.7570   14.6060 O.co2 126  ASP126     -0.2456
     72  N         -8.1730   15.2070   14.9990 N.am  127  PHE127     -0.1962
     73  CA        -7.6740   13.8900   15.3890 C.3   127  PHE127      0.1771
     74  C         -6.2080   13.9340   15.8080 C.2   127  PHE127      0.2620
     75  O         -5.8070   13.2350   16.7470 O.2   127  PHE127     -0.2715
     76  CB        -7.8670   12.9120   14.2290 C.3   127  PHE127      0.0574
     77  CG        -7.3410   11.5310   14.5020 C.ar  127  PHE127     -0.0200
     78  CD1       -8.0890   10.6280   15.2390 C.ar  127  PHE127     -0.0042
     79  CD2       -6.1050   11.1320   14.0150 C.ar  127  PHE127     -0.0042
     80  CE1       -7.6240    9.3440   15.4890 C.ar  127  PHE127     -0.0003
     81  CE2       -5.6240    9.8560   14.2640 C.ar  127  PHE127     -0.0003
     82  CZ        -6.3880    8.9570   15.0010 C.ar  127  PHE127     -0.0000
     83  N         -5.3830   14.7330   15.1110 N.am  128  GLY128     -0.1940
     84  CA        -3.9770   14.8280   15.4710 C.3   128  GLY128      0.2014
     85  C         -3.7400   15.4180   16.8500 C.2   128  GLY128      0.2638
     86  O         -2.7610   15.0700   17.5200 O.2   128  GLY128     -0.2714
     87  N         -4.5990   16.3440   17.2820 N.am  129  LYS129     -0.1977
     88  CA        -4.5040   16.8490   18.6490 C.3   129  LYS129      0.1596
     89  C         -4.9750   15.7960   19.6420 C.2   129  LYS129      0.2287
     90  O         -4.3940   15.6400   20.7240 O.2   129  LYS129     -0.2864
     91  CB        -5.3650   18.1040   18.8110 C.3   129  LYS129      0.0298
     92  CG        -5.1020   19.1990   17.8110 C.3   129  LYS129      0.0038
     93  CD        -3.7530   19.8230   18.0400 C.3   129  LYS129      0.0206
     94  CE        -3.5590   21.0090   17.1100 C.3   129  LYS129      0.1093
     95  NZ        -3.8310   20.6170   15.6980 N.3   129  LYS129     -0.1314
     96  N         -4.8400   12.5000   19.6300 N.3   131  VAL131     -0.1231
     97  CA        -3.9030   11.4220   19.9540 C.3   131  VAL131      0.1692
     98  C         -2.8440   11.8290   20.9700 C.2   131  VAL131      0.2591
     99  O         -2.1630   10.9530   21.5180 O.2   131  VAL131     -0.2718
    100  CB        -3.2340   10.7770   18.7150 C.3   131  VAL131      0.0266
    101  CG1       -4.2760   10.1820   17.7670 C.3   131  VAL131      0.0020
    102  CG2       -2.3260   11.7700   17.9910 C.3   131  VAL131      0.0020
    103  N         -2.6880   13.1270   21.2390 N.am  132  GLN132     -0.1979
    104  CA        -1.7410   13.6160   22.2320 C.3   132  GLN132      0.1601
    105  C         -2.3630   13.7730   23.6180 C.2   132  GLN132      0.2287
    106  O         -1.7220   14.3420   24.5120 O.2   132  GLN132     -0.2864
    107  CB        -1.1360   14.9450   21.7580 C.3   132  GLN132      0.0394
    108  CG        -0.4920   14.8470   20.3780 C.3   132  GLN132      0.0908
    109  CD        -0.0540   16.1910   19.8370 C.2   132  GLN132      0.2608
    110  OE1       -0.5480   16.6520   18.8030 O.2   132  GLN132     -0.2717
    111  NE2        0.8810   16.8290   20.5290 N.am  132  GLN132     -0.0878
    112  N         -2.9980    3.0620   21.3910 N.3   194  LEU194     -0.1245
    113  CA        -2.9870    2.5220   20.0350 C.3   194  LEU194      0.1561
    114  C         -2.2260    1.2020   20.0340 C.2   194  LEU194      0.2260
    115  O         -1.2120    1.0540   20.7300 O.2   194  LEU194     -0.2867
    116  CB        -2.2720    3.4950   19.0940 C.3   194  LEU194      0.0270
    117  CG        -2.7110    4.9600   19.0480 C.3   194  LEU194      0.0019
    118  CD1       -1.8400    5.7420   18.0660 C.3   194  LEU194      0.0001
    119  CD2       -4.1840    5.0820   18.6920 C.3   194  LEU194      0.0001
    120  N          2.3550    1.2640   16.1970 N.3   197  PRO197     -0.2103
    121  CA         3.0990    2.5240   16.2810 C.3   197  PRO197      0.1489
    122  C          2.2390    3.6730   15.7450 C.2   197  PRO197      0.2417
    123  O          1.5060    3.4790   14.7570 O.2   197  PRO197     -0.2734
    124  CB         4.3160    2.2530   15.3880 C.3   197  PRO197      0.0282
    125  CG         4.5600    0.7770   15.5720 C.3   197  PRO197      0.0208
    126  CD         3.1590    0.1850   15.5920 C.3   197  PRO197      0.0893
    127  N          2.2890    4.8490   16.3900 N.am  198  PRO198     -0.2729
    128  CA         3.2090    5.2460   17.4680 C.3   198  PRO198      0.1401
    129  C          2.8450    4.7970   18.8980 C.2   198  PRO198      0.2269
    130  O          3.5130    5.2450   19.8300 O.2   198  PRO198     -0.2865
    131  CB         3.1930    6.7720   17.3790 C.3   198  PRO198      0.0296
    132  CG         1.8280    7.0990   16.8750 C.3   198  PRO198      0.0237
    133  CD         1.4620    5.9840   15.9280 C.3   198  PRO198      0.0939
    134  N          0.6040    5.4590   21.0420 N.3   200  LEU200     -0.1245
    135  CA         0.3080    6.5400   21.9720 C.3   200  LEU200      0.1561
    136  C         -0.7700    6.1330   22.9750 C.2   200  LEU200      0.2260
    137  O         -1.7500    5.4550   22.6370 O.2   200  LEU200     -0.2867
    138  CB        -0.1290    7.7900   21.1980 C.3   200  LEU200      0.0270
    139  CG         0.9480    8.3850   20.2810 C.3   200  LEU200      0.0019
    140  CD1        0.3440    9.4370   19.3690 C.3   200  LEU200      0.0001
    141  CD2        2.0940    8.9840   21.0930 C.3   200  LEU200      0.0001
@<TRIPOS>BOND
     1     4     3    2
     2     3     2    1
     3     2     5    1
     4     2     1    1
     5     8     6    1
     6     5     6    1
     7     6     7    1
     8    27    25   ar
     9    24    25    1
    10    24    21    1
    11    25    26   ar
    12    20    21    1
    13    20    11   am
    14    21    22    1
    15     9    10    1
    16    10    11    1
    17    10    13    1
    18    11    12    2
    19    41    40    1
    20    18    16   ar
    21    18    19   ar
    22    16    14   ar
    23    19    17   ar
    24    14    13    1
    25    14    15   ar
    26    17    15   ar
    27    22    23    2
    28    22    28   am
    29    40    37    1
    30    28    29    1
    31    45    44    2
    32    36    37    1
    33    36    30   am
    34    37    38    1
    35    34    33   ar
    36    38    39    2
    37    29    30    1
    38    29    32    1
    39    44    43    1
    40    30    31    2
    41    33    32    1
    42    33    35   ar
    43    47    49    1
    44    47    46    1
    45    43    46    1
    46    43    42    1
    47    46    48    1
    48    79    81   ar
    49    79    77   ar
    50    68    69    1
    51    68    65    1
    52    76    77    1
    53    76    73    1
    54    81    82   ar
    55    77    78   ar
    56    58    59   ar
    57    58    56   ar
    58    71    69   ar
    59    69    70   ar
    60    61    59   ar
    61    61    63   ar
    62   123   122    2
    63    72    73    1
    64    72    66   am
    65    82    80   ar
    66    83    84    1
    67    83    74   am
    68    59    57   ar
    69    78    80   ar
    70    65    66    1
    71    65    64    1
    72   124   125    1
    73   124   121    1
    74    73    74    1
    75    56    55   ar
    76    84    85    1
    77    63    62   ar
    78   125   126    1
    79   126   120    1
    80    95    94    1
    81   122   121    1
    82   122   127   am
    83    74    75    2
    84    66    67    2
    85   133   127    1
    86   133   132    1
    87   120   121    1
    88   127   128    1
    89    57    55   ar
    90    57    60   ar
    91    55    54    1
    92    62    60   ar
    93    85    87   am
    94    85    86    2
    95   132   131    1
    96    94    93    1
    97    87    88    1
    98   131   128    1
    99   128   129    1
   100   101   100    1
   101    54    51    1
   102    92    93    1
   103    92    91    1
   104   102   100    1
   105    50    51    1
   106   118   117    1
   107    88    91    1
   108    88    89    1
   109   119   117    1
   110   100    97    1
   111    51    52    1
   112   110   109    2
   113   129   130    2
   114    53    52    2
   115   117   116    1
   116   116   113    1
   117   140   139    1
   118    96    97    1
   119    89    90    2
   120   109   108    1
   121   109   111   am
   122    97    98    1
   123   114   113    1
   124   114   115    2
   125   113   112    1
   126   139   141    1
   127   139   138    1
   128   108   107    1
   129    98   103   am
   130    98    99    2
   131   134   135    1
   132   138   135    1
   133   103   104    1
   134   107   104    1
   135   135   136    1
   136   104   105    1
   137   137   136    2
   138   105   106    2
