@<TRIPOS>MOLECULE
tmp/5wlwE00.pdb
 145 135 0 0 0
SMALL
GASTEIGER

@<TRIPOS>ATOM
      1  N         44.7350   60.6850   84.0280 N.3    11  GLN11      -0.1231
      2  CA        44.7860   61.3150   82.7150 C.3    11  GLN11       0.1698
      3  C         45.5910   60.4960   81.7150 C.2    11  GLN11       0.2592
      4  O         45.3860   60.6450   80.5060 O.2    11  GLN11      -0.2718
      5  CB        45.3730   62.7230   82.8270 C.3    11  GLN11       0.0381
      6  CG        44.3980   63.7710   83.3380 C.3    11  GLN11       0.0905
      7  CD        44.2860   63.7760   84.8460 C.2    11  GLN11       0.2608
      8  OE1       45.2250   63.4090   85.5510 O.2    11  GLN11      -0.2717
      9  NE2       43.1380   64.2040   85.3510 N.am   11  GLN11      -0.0878
     10  N         46.5020   59.6420   82.1900 N.am   12  ALA12      -0.1980
     11  CA        47.2590   58.7730   81.2940 C.3    12  ALA12       0.1597
     12  C         46.4360   57.5660   80.8630 C.2    12  ALA12       0.2287
     13  O         46.5070   57.1390   79.7050 O.2    12  ALA12      -0.2864
     14  CB        48.5540   58.3230   81.9690 C.3    12  ALA12       0.0319
     15  N         40.6850   52.6240   66.5850 N.3    72  SER72      -0.1202
     16  CA        41.5830   51.9850   67.5390 C.3    72  SER72       0.2020
     17  C         41.9450   52.8930   68.7080 C.2    72  SER72       0.2619
     18  O         42.6190   52.4400   69.6390 O.2    72  SER72      -0.2717
     19  CB        42.8650   51.5270   66.8400 C.3    72  SER72       0.2103
     20  OG        43.6560   52.6390   66.4600 O.3    72  SER72      -0.2182
     21  N         41.5210   54.1470   68.6820 N.am   73  GLY73      -0.1942
     22  CA        41.8440   55.0780   69.7440 C.3    73  GLY73       0.2014
     23  C         41.6670   56.5050   69.2860 C.2    73  GLY73       0.2639
     24  O         41.3960   56.7880   68.1160 O.2    73  GLY73      -0.2714
     25  N         41.8230   57.4180   70.2500 N.am   74  ALA74      -0.1963
     26  CA        41.6790   58.8390   69.9550 C.3    74  ALA74       0.1728
     27  C         42.7430   59.3240   68.9810 C.2    74  ALA74       0.2616
     28  O         42.4960   60.2560   68.2060 O.2    74  ALA74      -0.2715
     29  CB        41.7380   59.6510   71.2480 C.3    74  ALA74       0.0334
     30  N         43.9270   58.7120   69.0030 N.am   75  THR75      -0.1951
     31  CA        44.9700   59.1040   68.0630 C.3    75  THR75       0.1897
     32  C         44.5170   58.8820   66.6270 C.2    75  THR75       0.2313
     33  O         44.5660   59.7980   65.7950 O.2    75  THR75      -0.2863
     34  CB        46.2510   58.3250   68.3510 C.3    75  THR75       0.1794
     35  OG1       46.6210   58.5090   69.7220 O.3    75  THR75      -0.2208
     36  CG2       47.3720   58.8240   67.4680 C.3    75  THR75       0.0378
     37  N         41.7840   61.4740   65.6840 N.3    78  ASN78      -0.1240
     38  CA        42.2960   62.7850   65.3020 C.3    78  ASN78       0.1653
     39  C         42.9890   62.7240   63.9490 C.2    78  ASN78       0.2266
     40  O         42.8760   63.6550   63.1400 O.2    78  ASN78      -0.2867
     41  CB        43.2380   63.3120   66.3850 C.3    78  ASN78       0.1155
     42  CG        42.4940   63.7520   67.6280 C.2    78  ASN78       0.2627
     43  OD1       41.2980   64.0340   67.5740 O.2    78  ASN78      -0.2716
     44  ND2       43.1900   63.8070   68.7560 N.am   78  ASN78      -0.0877
     45  N         46.6540   68.2980   71.8130 N.3   103  HIS103     -0.1241
     46  CA        47.4220   67.0850   72.0370 C.3   103  HIS103      0.1621
     47  C         48.4260   66.8730   70.9060 C.2   103  HIS103      0.2264
     48  O         48.2770   67.3870   69.7930 O.2   103  HIS103     -0.2867
     49  CB        46.4980   65.8770   72.1610 C.3   103  HIS103      0.0745
     50  CG        47.0870   64.7470   72.9460 C.ar  103  HIS103      0.0817
     51  ND1       47.5590   63.5940   72.3570 N.ar  103  HIS103     -0.2268
     52  CD2       47.2750   64.5930   74.2790 C.ar  103  HIS103      0.1154
     53  CE1       48.0160   62.7790   73.2930 C.ar  103  HIS103      0.1986
     54  NE2       47.8550   63.3620   74.4680 N.ar  103  HIS103     -0.2212
     55  N         49.0830   64.4800   68.9790 N.3   105  CYS105     -0.1235
     56  CA        48.6590   63.8400   67.7380 C.3   105  CYS105      0.1677
     57  C         48.0680   64.8590   66.7710 C.2   105  CYS105      0.2270
     58  O         48.3330   64.8070   65.5620 O.2   105  CYS105     -0.2867
     59  CB        47.6640   62.7200   68.0320 C.3   105  CYS105      0.0956
     60  SG        46.4570   63.1090   69.2960 S.3   105  CYS105     -0.0801
     61  N         40.6810   71.2850   71.2760 N.3   150  MET150     -0.1245
     62  CA        40.3570   70.2490   72.2420 C.3   150  MET150      0.1570
     63  C         39.4240   70.7870   73.3200 C.2   150  MET150      0.2261
     64  O         39.4660   71.9660   73.6840 O.2   150  MET150     -0.2867
     65  CB        41.6250   69.6840   72.8800 C.3   150  MET150      0.0387
     66  CG        42.2510   70.5770   73.9320 C.3   150  MET150      0.0595
     67  SD        43.9120   70.0310   74.3610 S.3   150  MET150     -0.1393
     68  CE        43.6010   68.3260   74.8030 C.3   150  MET150      0.0692
     69  N         38.9150   69.6080   76.6880 N.3   152  VAL152     -0.1245
     70  CA        39.5570   69.7260   77.9900 C.3   152  VAL152      0.1561
     71  C         41.0280   69.3850   77.8290 C.2   152  VAL152      0.2260
     72  O         41.3770   68.4010   77.1680 O.2   152  VAL152     -0.2867
     73  CB        38.9010   68.8040   79.0360 C.3   152  VAL152      0.0252
     74  CG1       39.7490   68.7560   80.2930 C.3   152  VAL152      0.0019
     75  CG2       37.4890   69.2780   79.3380 C.3   152  VAL152      0.0019
     76  N         44.5920   67.9140   78.5760 N.3   154  ASN154     -0.1240
     77  CA        44.9920   66.6890   79.2540 C.3   154  ASN154      0.1653
     78  C         46.0190   66.9350   80.3490 C.2   154  ASN154      0.2266
     79  O         46.2180   66.0610   81.1990 O.2   154  ASN154     -0.2867
     80  CB        45.5440   65.6810   78.2410 C.3   154  ASN154      0.1155
     81  CG        46.7150   66.2300   77.4450 C.2   154  ASN154      0.2627
     82  OD1       46.5450   67.0950   76.5850 O.2   154  ASN154     -0.2716
     83  ND2       47.9100   65.7180   77.7170 N.am  154  ASN154     -0.0877
     84  N         38.8220   67.4160   70.0600 N.3   179  ASP179     -0.1239
     85  CA        39.4230   66.2780   70.7510 C.3   179  ASP179      0.1674
     86  C         38.8000   66.1920   72.1390 C.2   179  ASP179      0.2266
     87  O         39.1760   66.9350   73.0500 O.2   179  ASP179     -0.2867
     88  CB        40.9380   66.4460   70.8200 C.3   179  ASP179      0.1410
     89  CG        41.6400   65.2510   71.4400 C.2   179  ASP179      0.3668
     90  OD1       40.9500   64.3330   71.9300 O.co2 179  ASP179     -0.2456
     91  OD2       42.8890   65.2360   71.4400 O.co2 179  ASP179     -0.2456
     92  N         38.7660   63.4820   74.1690 N.3   181  ALA181     -0.1231
     93  CA        39.2220   62.2900   74.8790 C.3   181  ALA181      0.1694
     94  C         39.1370   62.4610   76.3940 C.2   181  ALA181      0.2591
     95  O         38.8390   61.5020   77.1170 O.2   181  ALA181     -0.2718
     96  CB        40.6500   61.9480   74.4600 C.3   181  ALA181      0.0304
     97  N         39.3980   63.6670   76.8950 N.am  182  GLN182     -0.1979
     98  CA        39.3990   63.9240   78.3280 C.3   182  GLN182      0.1601
     99  C         38.0730   64.4700   78.8400 C.2   182  GLN182      0.2287
    100  O         37.9600   64.7630   80.0340 O.2   182  GLN182     -0.2864
    101  CB        40.5300   64.8910   78.6910 C.3   182  GLN182      0.0394
    102  CG        41.9260   64.2860   78.5730 C.3   182  GLN182      0.0908
    103  CD        42.2180   63.2680   79.6640 C.2   182  GLN182      0.2608
    104  OE1       41.4730   63.1540   80.6380 O.2   182  GLN182     -0.2717
    105  NE2       43.3070   62.5240   79.5050 N.am  182  GLN182     -0.0878
    106  N         38.2360   58.4710   73.1840 N.3   202  SER202     -0.1202
    107  CA        39.2200   57.4720   73.5780 C.3   202  SER202      0.2020
    108  C         38.5970   56.5240   74.5900 C.2   202  SER202      0.2619
    109  O         37.9890   56.9680   75.5700 O.2   202  SER202     -0.2717
    110  CB        40.4670   58.1290   74.1710 C.3   202  SER202      0.2103
    111  OG        41.3450   57.1590   74.7180 O.3   202  SER202     -0.2182
    112  N         38.7560   55.2210   74.3520 N.am  203  GLY203     -0.1942
    113  CA        38.0930   54.2420   75.1970 C.3   203  GLY203      0.2014
    114  C         38.6770   54.1700   76.5950 C.2   203  GLY203      0.2639
    115  O         37.9390   54.0810   77.5830 O.2   203  GLY203     -0.2714
    116  N         40.0030   54.1950   76.7020 N.am  204  HIS204     -0.1959
    117  CA        40.6660   54.0070   77.9850 C.3   204  HIS204      0.1787
    118  C         40.7620   55.2910   78.8010 C.2   204  HIS204      0.2620
    119  O         41.4020   55.2860   79.8580 O.2   204  HIS204     -0.2715
    120  CB        42.0680   53.4260   77.7800 C.3   204  HIS204      0.0785
    121  CG        43.0610   54.4180   77.2650 C.ar  204  HIS204      0.0821
    122  ND1       43.9720   55.0480   78.0840 N.ar  204  HIS204     -0.2267
    123  CD2       43.2840   54.8930   76.0170 C.ar  204  HIS204      0.1154
    124  CE1       44.7140   55.8700   77.3630 C.ar  204  HIS204      0.1986
    125  NE2       44.3180   55.7950   76.1050 N.ar  204  HIS204     -0.2212
    126  N         40.1490   56.3830   78.3430 N.am  205  LYS205     -0.1977
    127  CA        40.0650   57.5980   79.1410 C.3   205  LYS205      0.1596
    128  C         38.8290   57.6440   80.0270 C.2   205  LYS205      0.2287
    129  O         38.7720   58.4740   80.9430 O.2   205  LYS205     -0.2864
    130  CB        40.0890   58.8320   78.2330 C.3   205  LYS205      0.0298
    131  CG        41.2940   58.9060   77.3140 C.3   205  LYS205      0.0038
    132  CD        42.5680   59.1630   78.1010 C.3   205  LYS205      0.0206
    133  CE        43.7830   59.1840   77.1880 C.3   205  LYS205      0.1093
    134  NZ        44.5460   60.4620   77.3080 N.3   205  LYS205     -0.1314
    135  N         42.8840   50.2930   73.4210 N.3   211  GLY211     -0.1210
    136  CA        42.9520   49.8590   72.0430 C.3   211  GLY211      0.1956
    137  C         41.7140   50.1020   71.2110 C.2   211  GLY211      0.2611
    138  O         41.5930   49.5140   70.1310 O.2   211  GLY211     -0.2717
    139  N         40.7890   50.9380   71.6730 N.am  212  VAL212     -0.1979
    140  CA        39.5750   51.2260   70.9210 C.3   212  VAL212      0.1595
    141  C         39.1640   52.6610   71.2000 C.2   212  VAL212      0.2287
    142  O         39.3530   53.1800   72.3040 O.2   212  VAL212     -0.2864
    143  CB        38.4270   50.2530   71.2710 C.3   212  VAL212      0.0276
    144  CG1       37.8550   50.5860   72.6360 C.3   212  VAL212      0.0022
    145  CG2       37.3450   50.3150   70.2030 C.3   212  VAL212      0.0022
@<TRIPOS>BOND
     1    40    39    2
     2    39    38    1
     3    38    37    1
     4    38    41    1
     5    58    57    2
     6    33    32    2
     7    41    42    1
     8    20    19    1
     9    15    16    1
    10    32    31    1
    11    57    56    1
    12    19    16    1
    13    36    34    1
    14    16    17    1
    15    43    42    2
    16    42    44   am
    17    56    59    1
    18    56    55    1
    19    59    60    1
    20    31    34    1
    21    31    30    1
    22    24    23    2
    23    28    27    2
    24    34    35    1
    25    21    17   am
    26    21    22    1
    27    17    18    2
    28    27    30   am
    29    27    26    1
    30    23    22    1
    31    23    25   am
    32    48    47    2
    33    26    25    1
    34    26    29    1
    35    84    85    1
    36   138   137    2
    37   145   143    1
    38    85    88    1
    39    85    86    1
    40    88    89    1
    41    47    46    1
    42   140   141    1
    43   140   143    1
    44   140   139    1
    45   141   142    2
    46   137   139   am
    47   137   136    1
    48   143   144    1
    49    61    62    1
    50    89    91   ar
    51    89    90   ar
    52    45    46    1
    53    46    49    1
    54   136   135    1
    55    86    87    2
    56    49    50    1
    57    62    65    1
    58    62    63    1
    59    51    50   ar
    60    51    53   ar
    61    65    66    1
    62    50    52   ar
    63   106   107    1
    64    53    54   ar
    65    63    64    2
    66   107   110    1
    67   107   108    1
    68    66    67    1
    69    92    93    1
    70   110   111    1
    71    52    54   ar
    72   112   108   am
    73   112   113    1
    74    67    68    1
    75    96    93    1
    76   108   109    2
    77    93    94    1
    78   113   114    1
    79   123   125   ar
    80   123   121   ar
    81   125   124   ar
    82    94    97   am
    83    94    95    2
    84    82    81    2
    85   114   116   am
    86   114   115    2
    87    69    70    1
    88   116   117    1
    89    97    98    1
    90    72    71    2
    91   133   134    1
    92   133   132    1
    93   121   120    1
    94   121   122   ar
    95   131   132    1
    96   131   130    1
    97   124   122   ar
    98    81    83   am
    99    81    80    1
   100   120   117    1
   101    71    70    1
   102   117   118    1
   103    70    73    1
   104   130   127    1
   105    80    77    1
   106    98   101    1
   107    98    99    1
   108   126   118   am
   109   126   127    1
   110   102   101    1
   111   102   103    1
   112    76    77    1
   113   118   119    2
   114    99   100    2
   115    73    75    1
   116    73    74    1
   117   127   128    1
   118    77    78    1
   119   105   103   am
   120   103   104    2
   121    13    12    2
   122   128   129    2
   123    78    79    2
   124     4     3    2
   125    12    11    1
   126    11    14    1
   127    11    10    1
   128     3    10   am
   129     3     2    1
   130     2     5    1
   131     2     1    1
   132     5     6    1
   133     6     7    1
   134     7     9   am
   135     7     8    2
