@<TRIPOS>MOLECULE
tmp/5wlwF00.pdb
 197 186 0 0 0
SMALL
GASTEIGER

@<TRIPOS>ATOM
      1  N          9.7170   46.2190  100.9630 N.3     4  ARG4       -0.1245
      2  CA        10.7940   46.5930  101.8740 C.3     4  ARG4        0.1563
      3  C         11.7270   45.4300  102.1860 C.2     4  ARG4        0.2260
      4  O         12.9430   45.5240  101.9870 O.2     4  ARG4       -0.2867
      5  CB        10.1910   47.1510  103.1650 C.3     4  ARG4        0.0307
      6  CG        11.2010   47.4840  104.2500 C.3     4  ARG4        0.0489
      7  CD        10.4930   47.7840  105.5650 C.3     4  ARG4        0.2205
      8  NE        11.3770   48.3840  106.5610 N.pl3   4  ARG4       -0.0865
      9  CZ        12.0750   47.6950  107.4600 C.cat   4  ARG4        0.5346
     10  NH1       12.0030   46.3720  107.4940 N.pl3   4  ARG4        0.1354
     11  NH2       12.8470   48.3340  108.3270 N.pl3   4  ARG4        0.1354
     12  N         13.9400   44.4370   99.4630 N.3     7  VAL7       -0.1231
     13  CA        15.0110   45.4170   99.3290 C.3     7  VAL7        0.1692
     14  C         16.1300   45.1200  100.3200 C.2     7  VAL7        0.2591
     15  O         17.3060   45.0280   99.9490 O.2     7  VAL7       -0.2718
     16  CB        14.4580   46.8410   99.5130 C.3     7  VAL7        0.0266
     17  CG1       15.5900   47.8440   99.5620 C.3     7  VAL7        0.0020
     18  CG2       13.4850   47.1780   98.3980 C.3     7  VAL7        0.0020
     19  N         15.7750   44.9370  101.5940 N.am    8  LEU8       -0.1980
     20  CA        16.7930   44.8650  102.6370 C.3     8  LEU8        0.1596
     21  C         17.7830   43.7380  102.3820 C.2     8  LEU8        0.2287
     22  O         18.9990   43.9640  102.3490 O.2     8  LEU8       -0.2864
     23  CB        16.1240   44.7010  104.0000 C.3     8  LEU8        0.0297
     24  CG        15.4680   45.9830  104.5060 C.3     8  LEU8        0.0022
     25  CD1       15.0190   45.8160  105.9430 C.3     8  LEU8        0.0001
     26  CD2       16.4180   47.1590  104.3580 C.3     8  LEU8        0.0001
     27  N         18.5280   42.3860   99.6200 N.3    10  LEU10      -0.1245
     28  CA        19.3350   42.8480   98.5000 C.3    10  LEU10       0.1561
     29  C         20.4580   43.7420   99.0030 C.2    10  LEU10       0.2260
     30  O         21.6440   43.4510   98.8010 O.2    10  LEU10      -0.2867
     31  CB        18.4480   43.5910   97.4990 C.3    10  LEU10       0.0270
     32  CG        18.8630   43.5110   96.0340 C.3    10  LEU10       0.0019
     33  CD1       19.3690   42.1110   95.7250 C.3    10  LEU10       0.0001
     34  CD2       17.6940   43.8710   95.1280 C.3    10  LEU10       0.0001
     35  N         24.1950   42.9170   98.5450 N.3    14  MET14      -0.1245
     36  CA        25.0350   43.7440   97.6920 C.3    14  MET14       0.1570
     37  C         26.1980   44.3230   98.4740 C.2    14  MET14       0.2261
     38  O         27.2940   44.4820   97.9250 O.2    14  MET14      -0.2867
     39  CB        24.2160   44.8560   97.0400 C.3    14  MET14       0.0387
     40  CG        23.1630   44.3580   96.0750 C.3    14  MET14       0.0595
     41  SD        22.3700   45.7170   95.2050 S.3    14  MET14      -0.1393
     42  CE        23.6520   46.1490   94.0350 C.3    14  MET14       0.0692
     43  N         35.5240   42.1730   97.2320 N.3    21  PHE21      -0.1241
     44  CA        36.4570   42.6770   96.2300 C.3    21  PHE21       0.1605
     45  C         37.8740   42.7250   96.7880 C.2    21  PHE21       0.2264
     46  O         38.1240   43.3250   97.8370 O.2    21  PHE21      -0.2867
     47  CB        36.0300   44.0680   95.7610 C.3    21  PHE21       0.0534
     48  CG        35.2180   44.0580   94.4980 C.ar   21  PHE21      -0.0203
     49  CD1       35.7320   43.5210   93.3320 C.ar   21  PHE21      -0.0042
     50  CD2       33.9500   44.6080   94.4700 C.ar   21  PHE21      -0.0042
     51  CE1       34.9860   43.5140   92.1690 C.ar   21  PHE21      -0.0003
     52  CE2       33.2060   44.6060   93.3080 C.ar   21  PHE21      -0.0003
     53  CZ        33.7230   44.0580   92.1570 C.ar   21  PHE21      -0.0000
     54  N         34.7960   51.7910   96.0590 N.3    29  TYR29      -0.1227
     55  CA        33.8070   52.4120   95.1840 C.3    29  TYR29       0.1736
     56  C         32.4800   51.6680   95.2490 C.2    29  TYR29       0.2595
     57  O         31.4160   52.2810   95.3880 O.2    29  TYR29      -0.2718
     58  CB        34.3070   52.4630   93.7430 C.3    29  TYR29       0.0548
     59  CG        33.2230   52.8830   92.7750 C.ar   29  TYR29      -0.0200
     60  CD1       32.8430   54.2170   92.6670 C.ar   29  TYR29      -0.0009
     61  CD2       32.5560   51.9470   91.9940 C.ar   29  TYR29      -0.0009
     62  CE1       31.8470   54.6100   91.7920 C.ar   29  TYR29       0.0417
     63  CE2       31.5550   52.3310   91.1160 C.ar   29  TYR29       0.0417
     64  CZ        31.2060   53.6650   91.0190 C.ar   29  TYR29       0.1957
     65  OH        30.2130   54.0560   90.1490 O.3    29  TYR29      -0.2866
     66  N         32.5220   50.3400   95.1320 N.am   30  ALA30      -0.1980
     67  CA        31.2880   49.5620   95.1260 C.3    30  ALA30       0.1597
     68  C         30.4910   49.7820   96.4050 C.2    30  ALA30       0.2287
     69  O         29.2990   50.1130   96.3610 O.2    30  ALA30      -0.2864
     70  CB        31.6080   48.0790   94.9350 C.3    30  ALA30       0.0319
     71  N         29.1410   53.4540   96.7000 N.3    33  ARG33      -0.1231
     72  CA        28.0910   53.7610   95.7340 C.3    33  ARG33       0.1694
     73  C         26.8040   53.0170   96.0680 C.2    33  ARG33       0.2591
     74  O         25.7060   53.5410   95.8510 O.2    33  ARG33      -0.2718
     75  CB        28.5430   53.4280   94.3120 C.3    33  ARG33       0.0321
     76  CG        27.5860   53.9350   93.2370 C.3    33  ARG33       0.0489
     77  CD        27.6420   55.4600   93.1630 C.3    33  ARG33       0.2205
     78  NE        26.5810   56.0420   92.3430 N.pl3  33  ARG33      -0.0865
     79  CZ        25.4260   56.4990   92.8220 C.cat  33  ARG33       0.5346
     80  NH1       25.1750   56.4480   94.1230 N.pl3  33  ARG33       0.1354
     81  NH2       24.5240   57.0150   91.9990 N.pl3  33  ARG33       0.1354
     82  N         26.9130   51.7850   96.5670 N.am   34  ILE34      -0.1980
     83  CA        25.7140   51.0650   96.9860 C.3    34  ILE34       0.1595
     84  C         25.0050   51.8400   98.0890 C.2    34  ILE34       0.2287
     85  O         23.7960   52.1110   98.0150 O.2    34  ILE34      -0.2864
     86  CB        26.0750   49.6420   97.4460 C.3    34  ILE34       0.0276
     87  CG1       26.6570   48.8360   96.2900 C.3    34  ILE34       0.0022
     88  CG2       24.8500   48.9360   97.9970 C.3    34  ILE34       0.0022
     89  CD1       27.4540   47.6410   96.7470 C.3    34  ILE34       0.0001
     90  N         23.5430   55.1520   96.8640 N.3    37  ALA37      -0.1231
     91  CA        22.4420   54.9310   95.9340 C.3    37  ALA37       0.1694
     92  C         21.1670   54.5580   96.6760 C.2    37  ALA37       0.2592
     93  O         20.1130   55.1680   96.4610 O.2    37  ALA37      -0.2718
     94  CB        22.8170   53.8510   94.9200 C.3    37  ALA37       0.0304
     95  N         21.2360   53.5460   97.5470 N.am   38  PHE38      -0.1976
     96  CA        20.0480   53.1870   98.3170 C.3    38  PHE38       0.1639
     97  C         19.5360   54.3740   99.1230 C.2    38  PHE38       0.2290
     98  O         18.3250   54.6090   99.1940 O.2    38  PHE38      -0.2864
     99  CB        20.3420   52.0050   99.2390 C.3    38  PHE38       0.0560
    100  CG        20.1920   50.6700   98.5780 C.ar   38  PHE38      -0.0200
    101  CD1       21.1780   50.1800   97.7400 C.ar   38  PHE38      -0.0042
    102  CD2       19.0620   49.9020   98.7990 C.ar   38  PHE38      -0.0042
    103  CE1       21.0360   48.9480   97.1330 C.ar   38  PHE38      -0.0003
    104  CE2       18.9160   48.6700   98.1960 C.ar   38  PHE38      -0.0003
    105  CZ        19.9030   48.1920   97.3620 C.ar   38  PHE38      -0.0000
    106  N         17.5810   56.9910   96.9370 N.3    41  ASN41      -0.1225
    107  CA        16.2540   56.5740   96.5000 C.3    41  ASN41       0.1785
    108  C         15.3540   56.1540   97.6530 C.2    41  ASN41       0.2597
    109  O         14.2920   55.5720   97.4140 O.2    41  ASN41      -0.2718
    110  CB        16.3690   55.4300   95.4920 C.3    41  ASN41       0.1169
    111  CG        17.0890   55.8420   94.2270 C.2    41  ASN41       0.2627
    112  OD1       16.9810   56.9850   93.7830 O.2    41  ASN41      -0.2716
    113  ND2       17.8340   54.9140   93.6400 N.am   41  ASN41      -0.0877
    114  N         15.7450   56.4470   98.8930 N.am   42  LYS42      -0.1966
    115  CA        14.9830   55.9740  100.0430 C.3    42  LYS42       0.1728
    116  C         13.5570   56.5090  100.0410 C.2    42  LYS42       0.2616
    117  O         12.6410   55.8340  100.5250 O.2    42  LYS42      -0.2715
    118  CB        15.6940   56.3590  101.3400 C.3    42  LYS42       0.0311
    119  CG        15.1590   55.6560  102.5610 C.3    42  LYS42       0.0038
    120  CD        15.5180   56.4130  103.8410 C.3    42  LYS42       0.0206
    121  CE        14.6320   55.9750  105.0210 C.3    42  LYS42       0.1093
    122  NZ        13.1710   55.8940  104.6430 N.3    42  LYS42      -0.1314
    123  N         13.3430   57.7050   99.4970 N.am   43  ASN43      -0.1958
    124  CA        12.0620   58.3880   99.6040 C.3    43  ASN43       0.1819
    125  C         11.1750   58.1650   98.3900 C.2    43  ASN43       0.2621
    126  O         10.1350   58.8180   98.2670 O.2    43  ASN43      -0.2715
    127  CB        12.2850   59.8880   99.8080 C.3    43  ASN43       0.1195
    128  CG        12.9960   60.2000  101.1090 C.2    43  ASN43       0.2630
    129  OD1       12.6730   59.6380  102.1550 O.2    43  ASN43      -0.2716
    130  ND2       13.9750   61.0970  101.0490 N.am   43  ASN43      -0.0877
    131  N         11.5650   57.2600   97.4910 N.am   44  VAL44      -0.1977
    132  CA        10.7090   56.9220   96.3630 C.3    44  VAL44       0.1596
    133  C          9.4230   56.2830   96.8650 C.2    44  VAL44       0.2287
    134  O          9.4300   55.4550   97.7860 O.2    44  VAL44      -0.2864
    135  CB        11.4500   55.9860   95.3940 C.3    44  VAL44       0.0276
    136  CG1       10.5230   55.5430   94.2780 C.3    44  VAL44       0.0022
    137  CG2       12.6850   56.6740   94.8320 C.3    44  VAL44       0.0022
    138  N         10.1210   51.8100   91.7680 N.3    50  ILE50      -0.1245
    139  CA        10.8330   51.0400   92.7820 C.3    50  ILE50       0.1561
    140  C         11.2000   49.6650   92.2410 C.2    50  ILE50       0.2260
    141  O         12.3390   49.2060   92.3850 O.2    50  ILE50      -0.2867
    142  CB         9.9950   50.9410   94.0670 C.3    50  ILE50       0.0252
    143  CG1        9.9190   52.3100   94.7430 C.3    50  ILE50       0.0019
    144  CG2       10.5810   49.9020   95.0070 C.3    50  ILE50       0.0019
    145  CD1        9.0230   52.3360   95.9500 C.3    50  ILE50       0.0001
    146  N         14.1510   50.0330   89.9430 N.3    53  LEU53      -0.1231
    147  CA        15.4130   50.1280   90.6680 C.3    53  LEU53       0.1693
    148  C         15.8300   48.7780   91.2320 C.2    53  LEU53       0.2591
    149  O         17.0220   48.4500   91.2610 O.2    53  LEU53      -0.2718
    150  CB        15.2990   51.1640   91.7860 C.3    53  LEU53       0.0284
    151  CG        15.1250   52.6130   91.3320 C.3    53  LEU53       0.0019
    152  CD1       14.8900   53.5180   92.5240 C.3    53  LEU53       0.0001
    153  CD2       16.3420   53.0700   90.5430 C.3    53  LEU53       0.0001
    154  N         14.8640   47.9840   91.6970 N.am   54  VAL54      -0.1980
    155  CA        15.1860   46.6720   92.2520 C.3    54  VAL54       0.1595
    156  C         15.7650   45.7640   91.1740 C.2    54  VAL54       0.2287
    157  O         16.7730   45.0830   91.3900 O.2    54  VAL54      -0.2864
    158  CB        13.9470   46.0460   92.9130 C.3    54  VAL54       0.0276
    159  CG1       14.1930   44.5720   93.1880 C.3    54  VAL54       0.0022
    160  CG2       13.6100   46.7840   94.1960 C.3    54  VAL54       0.0022
    161  N         17.2380   46.6010   88.3060 N.3    56  LYS56      -0.1231
    162  CA        18.5760   47.0770   87.9740 C.3    56  LYS56       0.1693
    163  C         19.5780   46.6710   89.0460 C.2    56  LYS56       0.2591
    164  O         20.6980   46.2410   88.7360 O.2    56  LYS56      -0.2718
    165  CB        18.5680   48.5940   87.7950 C.3    56  LYS56       0.0285
    166  CG        19.9590   49.1930   87.6610 C.3    56  LYS56       0.0035
    167  CD        19.8860   50.6990   87.4870 C.3    56  LYS56       0.0206
    168  CE        19.9940   51.0860   86.0160 C.3    56  LYS56       0.1093
    169  NZ        19.0100   50.3800   85.1250 N.3    56  LYS56      -0.1314
    170  N         19.1820   46.7800   90.3140 N.am   57  ALA57      -0.1980
    171  CA        20.0710   46.3970   91.4010 C.3    57  ALA57       0.1597
    172  C         20.3860   44.9100   91.3630 C.2    57  ALA57       0.2287
    173  O         21.4790   44.5000   91.7640 O.2    57  ALA57      -0.2864
    174  CB        19.4560   46.7780   92.7470 C.3    57  ALA57       0.0319
    175  N         23.0140   44.4370   88.6870 N.3    60  ASP60      -0.1239
    176  CA        24.2860   44.8690   89.2470 C.3    60  ASP60       0.1674
    177  C         24.7890   43.9180   90.3190 C.2    60  ASP60       0.2266
    178  O         25.9980   43.8700   90.5670 O.2    60  ASP60      -0.2867
    179  CB        24.1690   46.2820   89.8160 C.3    60  ASP60       0.1410
    180  CG        23.9320   47.3180   88.7390 C.2    60  ASP60       0.3668
    181  OD1       23.4680   46.9370   87.6410 O.co2  60  ASP60      -0.2456
    182  OD2       24.2190   48.5110   88.9840 O.co2  60  ASP60      -0.2456
    183  N         26.5050   41.2230   88.3990 N.3    63  VAL63      -0.1231
    184  CA        27.7640   41.7770   87.9090 C.3    63  VAL63       0.1692
    185  C         28.7970   41.8170   89.0270 C.2    63  VAL63       0.2591
    186  O         29.9460   41.3920   88.8530 O.2    63  VAL63      -0.2718
    187  CB        27.5400   43.1780   87.3120 C.3    63  VAL63       0.0266
    188  CG1       28.8450   43.9640   87.3050 C.3    63  VAL63       0.0020
    189  CG2       26.9710   43.0680   85.9110 C.3    63  VAL63       0.0020
    190  N         28.3950   42.3080   90.2000 N.am   64  ILE64      -0.1980
    191  CA        29.3330   42.4050   91.3130 C.3    64  ILE64       0.1595
    192  C         29.8260   41.0260   91.7170 C.2    64  ILE64       0.2287
    193  O         31.0090   40.8410   92.0240 O.2    64  ILE64      -0.2864
    194  CB        28.6990   43.1470   92.5020 C.3    64  ILE64       0.0276
    195  CG1       28.5680   44.6330   92.1810 C.3    64  ILE64       0.0022
    196  CG2       29.5410   42.9460   93.7490 C.3    64  ILE64       0.0022
    197  CD1       27.7810   45.4020   93.2100 C.3    64  ILE64       0.0001
@<TRIPOS>BOND
     1   169   168    1
     2   189   187    1
     3   168   167    1
     4   188   187    1
     5   187   184    1
     6   167   166    1
     7   181   180   ar
     8   166   165    1
     9   165   162    1
    10   184   183    1
    11   184   185    1
    12   162   161    1
    13   162   163    1
    14   175   176    1
    15   164   163    2
    16   180   182   ar
    17   180   179    1
    18   186   185    2
    19   185   190   am
    20   163   170   am
    21   176   179    1
    22   176   177    1
    23   146   147    1
    24    65    64    1
    25   190   191    1
    26   170   171    1
    27   177   178    2
    28   153   151    1
    29   147   148    1
    30   147   150    1
    31    64    63   ar
    32    64    62   ar
    33    63    61   ar
    34   156   157    2
    35   156   155    1
    36   148   149    2
    37   148   154   am
    38   191   192    1
    39   191   194    1
    40   151   150    1
    41   151   152    1
    42   172   171    1
    43   172   173    2
    44   171   174    1
    45   154   155    1
    46   192   193    2
    47   138   139    1
    48    62    60   ar
    49    61    59   ar
    50    81    79    1
    51    53    51   ar
    52    53    52   ar
    53    51    49   ar
    54   195   194    1
    55   195   197    1
    56   140   141    2
    57   140   139    1
    58   155   158    1
    59    78    79    2
    60    78    77    1
    61   194   196    1
    62    60    59   ar
    63    59    58    1
    64   139   142    1
    65    79    80    1
    66   158   159    1
    67   158   160    1
    68    77    76    1
    69    76    75    1
    70    52    50   ar
    71    49    48   ar
    72   113   111   am
    73    58    55    1
    74   112   111    2
    75    42    41    1
    76   142   143    1
    77   142   144    1
    78   111   110    1
    79   136   135    1
    80    75    72    1
    81    50    48   ar
    82    48    47    1
    83   143   145    1
    84   137   135    1
    85    94    91    1
    86    70    67    1
    87    67    66    1
    88    67    68    1
    89    34    32    1
    90    66    56   am
    91    55    56    1
    92    55    54    1
    93    41    40    1
    94    56    57    2
    95   135   132    1
    96   110   107    1
    97    33    32    1
    98    72    73    1
    99    72    71    1
   100    47    44    1
   101    74    73    2
   102    91    92    1
   103    91    90    1
   104    32    31    1
   105    73    82   am
   106    40    39    1
   107    44    45    1
   108    44    43    1
   109    87    89    1
   110    87    86    1
   111    69    68    2
   112   132   133    1
   113   132   131    1
   114    93    92    2
   115   107   106    1
   116   107   108    1
   117    82    83    1
   118    92    95   am
   119    45    46    2
   120   133   134    2
   121    83    86    1
   122    83    84    1
   123    39    36    1
   124   103   105   ar
   125   103   101   ar
   126   105   104   ar
   127   109   108    2
   128    86    88    1
   129   131   125   am
   130    31    28    1
   131    95    96    1
   132   108   114   am
   133    36    37    1
   134    36    35    1
   135   101   100   ar
   136    38    37    2
   137    85    84    2
   138   104   102   ar
   139   126   125    2
   140    96    97    1
   141    96    99    1
   142   125   124    1
   143    18    16    1
   144    28    29    1
   145    28    27    1
   146   100   102   ar
   147   100    99    1
   148    30    29    2
   149   114   115    1
   150    97    98    2
   151    13    12    1
   152    13    16    1
   153    13    14    1
   154   123   124    1
   155   123   116   am
   156    16    17    1
   157   124   127    1
   158   127   128    1
   159    15    14    2
   160   116   115    1
   161   116   117    2
   162   115   118    1
   163    14    19   am
   164     1     2    1
   165   130   128   am
   166   128   129    2
   167   118   119    1
   168    19    20    1
   169     2     3    1
   170     2     5    1
   171     4     3    2
   172    22    21    2
   173    21    20    1
   174   119   120    1
   175    20    23    1
   176     5     6    1
   177   120   121    1
   178    23    24    1
   179     6     7    1
   180    26    24    1
   181    24    25    1
   182   122   121    1
   183     7     8    1
   184     8     9    2
   185     9    10    1
   186     9    11    1
