@<TRIPOS>MOLECULE
tmp/5wm1C01.pdb
 160 154 0 0 0
SMALL
GASTEIGER

@<TRIPOS>ATOM
      1  N         20.0360   -5.7860   -8.4930 N.3    19  ARG19      -0.1231
      2  CA        18.8880   -6.4240   -9.1110 C.3    19  ARG19       0.1694
      3  C         19.2550   -7.3260  -10.2850 C.2    19  ARG19       0.2591
      4  O         18.5710   -8.3050  -10.5270 O.2    19  ARG19      -0.2718
      5  CB        17.7950   -5.4130   -9.4750 C.3    19  ARG19       0.0321
      6  CG        17.6460   -4.9720  -10.9090 C.3    19  ARG19       0.0489
      7  CD        18.4840   -3.7890  -11.2750 C.3    19  ARG19       0.2205
      8  NE        18.1330   -3.2580  -12.5890 N.pl3  19  ARG19      -0.0865
      9  CZ        18.8230   -2.3040  -13.2160 C.cat  19  ARG19       0.5346
     10  NH1       19.8880   -1.7320  -12.6430 N.pl3  19  ARG19       0.1354
     11  NH2       18.4530   -1.9120  -14.4200 N.pl3  19  ARG19       0.1354
     12  N         20.3420   -7.0130  -10.9930 N.am   20  LEU20      -0.1980
     13  CA        20.7520   -7.8450  -12.1190 C.3    20  LEU20       0.1596
     14  C         21.3730   -9.1790  -11.6420 C.2    20  LEU20       0.2287
     15  O         21.1890  -10.2250  -12.2780 O.2    20  LEU20      -0.2864
     16  CB        21.6760   -7.0560  -13.0420 C.3    20  LEU20       0.0297
     17  CG        20.9960   -5.8160  -13.6600 C.3    20  LEU20       0.0022
     18  CD1       21.9850   -4.8480  -14.2850 C.3    20  LEU20       0.0001
     19  CD2       19.9210   -6.2350  -14.6470 C.3    20  LEU20       0.0001
     20  N         18.2550  -11.1970  -10.8580 N.3    23  LEU23      -0.1245
     21  CA        17.6390  -11.7240  -12.0840 C.3    23  LEU23       0.1561
     22  C         18.3530  -12.9770  -12.5880 C.2    23  LEU23       0.2260
     23  O         17.7110  -13.9640  -12.9050 O.2    23  LEU23      -0.2867
     24  CB        17.6100  -10.7170  -13.2190 C.3    23  LEU23       0.0270
     25  CG        16.6360   -9.5730  -13.0470 C.3    23  LEU23       0.0019
     26  CD1       16.8360   -8.5460  -14.1470 C.3    23  LEU23       0.0001
     27  CD2       15.1960  -10.0970  -13.0380 C.3    23  LEU23       0.0001
     28  N          3.7560  -12.8010  -18.8710 N.3    57  ASP57      -0.1225
     29  CA         4.6200  -12.0340  -17.9490 C.3    57  ASP57       0.1805
     30  C          3.8630  -11.0130  -17.1000 C.2    57  ASP57       0.2597
     31  O          2.8240  -10.4760  -17.4970 O.2    57  ASP57      -0.2718
     32  CB         5.9230  -11.4450  -18.6150 C.3    57  ASP57       0.1424
     33  CG         5.8270   -9.9850  -18.9810 C.2    57  ASP57       0.3668
     34  OD1        4.7800   -9.6810  -19.5880 O.co2  57  ASP57      -0.2456
     35  OD2        6.7690   -9.1560  -18.7430 O.co2  57  ASP57      -0.2456
     36  N          4.3880  -10.7790  -15.9090 N.am   58  PHE58      -0.1976
     37  CA         3.8390   -9.7560  -15.0260 C.3    58  PHE58       0.1639
     38  C          4.0190   -8.3510  -15.6310 C.2    58  PHE58       0.2290
     39  O          5.0910   -7.9980  -16.2180 O.2    58  PHE58      -0.2864
     40  CB         4.5490   -9.7120  -13.6870 C.3    58  PHE58       0.0560
     41  CG         4.2520  -10.8400  -12.7250 C.ar   58  PHE58      -0.0200
     42  CD1        4.8040  -12.0880  -12.8840 C.ar   58  PHE58      -0.0042
     43  CD2        3.5760  -10.5730  -11.5330 C.ar   58  PHE58      -0.0042
     44  CE1        4.6240  -13.0880  -11.9460 C.ar   58  PHE58      -0.0003
     45  CE2        3.4040  -11.5660  -10.5680 C.ar   58  PHE58      -0.0003
     46  CZ         3.9390  -12.8300  -10.7700 C.ar   58  PHE58      -0.0000
     47  N          4.7590   -4.5370  -15.1200 N.3    60  CYS60      -0.1221
     48  CA         5.6600   -3.7510  -14.2360 C.3    60  CYS60       0.1808
     49  C          5.9690   -4.4630  -12.9100 C.2    60  CYS60       0.2601
     50  O          5.6040   -4.0120  -11.8190 O.2    60  CYS60      -0.2717
     51  CB         5.1550   -2.3210  -14.0230 C.3    60  CYS60       0.0970
     52  SG         3.4500   -2.1500  -13.4690 S.3    60  CYS60      -0.0800
     53  N          6.6560   -5.5880  -13.0510 N.am   61  PHE61      -0.1962
     54  CA         6.7680   -6.5760  -11.9920 C.3    61  PHE61       0.1771
     55  C          7.2860   -6.0100  -10.6700 C.2    61  PHE61       0.2619
     56  O          6.5870   -6.0900   -9.6550 O.2    61  PHE61      -0.2715
     57  CB         7.6350   -7.7380  -12.4650 C.3    61  PHE61       0.0574
     58  CG         7.8420   -8.8140  -11.4330 C.ar   61  PHE61      -0.0200
     59  CD1        6.7570   -9.4020  -10.7850 C.ar   61  PHE61      -0.0042
     60  CD2        9.1200   -9.2490  -11.1210 C.ar   61  PHE61      -0.0042
     61  CE1        6.9490  -10.4260   -9.8700 C.ar   61  PHE61      -0.0003
     62  CE2        9.3190  -10.2490  -10.1890 C.ar   61  PHE61      -0.0003
     63  CZ         8.2390  -10.8380   -9.5640 C.ar   61  PHE61      -0.0000
     64  N          8.4920   -5.4320  -10.6600 N.am   62  PHE62      -0.1974
     65  CA         9.0230   -4.9150   -9.3920 C.3    62  PHE62       0.1639
     66  C          8.1240   -3.8010   -8.8310 C.2    62  PHE62       0.2290
     67  O          7.9250   -3.7440   -7.6330 O.2    62  PHE62      -0.2864
     68  CB        10.4500   -4.4000   -9.4830 C.3    62  PHE62       0.0560
     69  CG        11.5400   -5.4640   -9.5590 C.ar   62  PHE62      -0.0200
     70  CD1       11.2870   -6.8180   -9.7450 C.ar   62  PHE62      -0.0042
     71  CD2       12.8580   -5.0480   -9.5050 C.ar   62  PHE62      -0.0042
     72  CE1       12.3400   -7.7350   -9.8270 C.ar   62  PHE62      -0.0003
     73  CE2       13.9110   -5.9410   -9.5850 C.ar   62  PHE62      -0.0003
     74  CZ        13.6540   -7.2980   -9.7400 C.ar   62  PHE62      -0.0000
     75  N         14.5150    0.3550  -11.9630 N.3    96  ALA96      -0.1231
     76  CA        14.3680   -1.0800  -12.2610 C.3    96  ALA96       0.1694
     77  C         13.0360   -1.3450  -12.9170 C.2    96  ALA96       0.2592
     78  O         12.9400   -2.1090  -13.8620 O.2    96  ALA96      -0.2718
     79  CB        14.4760   -1.9100  -10.9750 C.3    96  ALA96       0.0304
     80  N         12.0050   -0.6970  -12.3830 N.am   97  SER97      -0.1952
     81  CA        10.6490   -0.8810  -12.8840 C.3    97  SER97       0.1924
     82  C          9.8670    0.3800  -12.5860 C.2    97  SER97       0.2314
     83  O         10.0720    0.9920  -11.5560 O.2    97  SER97      -0.2863
     84  CB         9.9840   -2.0830  -12.1910 C.3    97  SER97       0.2116
     85  OG         8.6960   -2.4010  -12.7050 O.3    97  SER97      -0.2180
     86  N          2.5880    2.0400  -15.0120 N.3   100  TYR100     -0.1241
     87  CA         2.0960    2.5410  -16.2860 C.3   100  TYR100      0.1605
     88  C          1.7080    4.0310  -16.2140 C.2   100  TYR100      0.2264
     89  O          1.7180    4.7030  -17.2470 O.2   100  TYR100     -0.2867
     90  CB         1.0140    1.6220  -16.8660 C.3   100  TYR100      0.0534
     91  CG         1.6760    0.4270  -17.5280 C.ar  100  TYR100     -0.0201
     92  CD1        2.2500   -0.5960  -16.7610 C.ar  100  TYR100     -0.0009
     93  CD2        1.8060    0.3530  -18.9120 C.ar  100  TYR100     -0.0009
     94  CE1        2.9090   -1.6580  -17.3590 C.ar  100  TYR100      0.0417
     95  CE2        2.4580   -0.7150  -19.5230 C.ar  100  TYR100      0.0417
     96  CZ         2.9990   -1.7230  -18.7500 C.ar  100  TYR100      0.1957
     97  OH         3.6290   -2.7780  -19.3750 O.3   100  TYR100     -0.2866
     98  N          4.9360    5.6440  -17.0500 N.3   103  ARG103     -0.1245
     99  CA         5.1600    5.4590  -18.4810 C.3   103  ARG103      0.1563
    100  C          4.3300    6.3880  -19.3650 C.2   103  ARG103      0.2260
    101  O          4.7360    6.6550  -20.4930 O.2   103  ARG103     -0.2867
    102  CB         4.9350    4.0150  -18.9060 C.3   103  ARG103      0.0307
    103  CG         5.9740    3.0750  -18.2920 C.3   103  ARG103      0.0489
    104  CD         5.6340    1.6280  -18.5210 C.3   103  ARG103      0.2205
    105  NE         6.3430    0.7390  -17.5890 N.pl3 103  ARG103     -0.0865
    106  CZ         6.6530   -0.5370  -17.8370 C.cat 103  ARG103      0.5346
    107  NH1        6.3590   -1.1070  -19.0040 N.pl3 103  ARG103      0.1354
    108  NH2        7.3000   -1.2460  -16.9130 N.pl3 103  ARG103      0.1354
    109  N         11.7240    1.8860  -17.9720 N.3   109  ASN109     -0.1225
    110  CA        12.6750    1.0450  -17.2330 C.3   109  ASN109      0.1785
    111  C         14.1030    1.2900  -17.7490 C.2   109  ASN109      0.2597
    112  O         14.3250    1.3260  -18.9640 O.2   109  ASN109     -0.2718
    113  CB        12.3510   -0.4390  -17.4230 C.3   109  ASN109      0.1169
    114  CG        11.0930   -0.8840  -16.6780 C.2   109  ASN109      0.2627
    115  OD1       10.3970   -0.0900  -16.0170 O.2   109  ASN109     -0.2716
    116  ND2       10.8100   -2.1740  -16.7720 N.am  109  ASN109     -0.0877
    117  N         15.0540    1.4390  -16.8340 N.am  110  GLY110     -0.1957
    118  CA        16.4760    1.6240  -17.1860 C.3   110  GLY110      0.1869
    119  C         16.9510    3.0740  -17.2310 C.2   110  GLY110      0.2309
    120  O         18.1480    3.3360  -17.1910 O.2   110  GLY110     -0.2863
    121  N         12.1370  -15.9680  -17.0500 N.3   160  SER160     -0.1202
    122  CA        12.6590  -15.0980  -16.0070 C.3   160  SER160      0.2020
    123  C         11.8170  -15.2550  -14.7470 C.2   160  SER160      0.2619
    124  O         10.8300  -15.9800  -14.7190 O.2   160  SER160     -0.2717
    125  CB        12.6500  -13.6360  -16.4860 C.3   160  SER160      0.2103
    126  OG        13.3310  -12.7560  -15.5890 O.3   160  SER160     -0.2182
    127  N         12.2070  -14.5240  -13.7240 N.am  161  ILE161     -0.1965
    128  CA        11.4570  -14.4580  -12.4830 C.3   161  ILE161      0.1727
    129  C          9.9870  -14.1740  -12.7040 C.2   161  ILE161      0.2616
    130  O          9.1600  -14.7030  -11.9580 O.2   161  ILE161     -0.2715
    131  CB        12.0680  -13.3860  -11.5310 C.3   161  ILE161      0.0290
    132  CG1       11.4630  -13.4310  -10.1300 C.3   161  ILE161      0.0022
    133  CG2       11.9730  -11.9900  -12.0920 C.3   161  ILE161      0.0023
    134  CD1       11.8020  -14.6950   -9.3860 C.3   161  ILE161      0.0001
    135  N          9.6650  -13.3340  -13.6910 N.am  162  ASP162     -0.1957
    136  CA         8.2750  -12.9270  -13.9310 C.3   162  ASP162      0.1840
    137  C          7.6790  -13.3780  -15.2540 C.2   162  ASP162      0.2621
    138  O          6.6690  -12.8230  -15.6640 O.2   162  ASP162     -0.2715
    139  CB         8.1540  -11.3920  -13.8040 C.3   162  ASP162      0.1450
    140  CG         8.5720  -10.6320  -15.0770 C.2   162  ASP162      0.3671
    141  OD1        9.5930  -11.0540  -15.7110 O.co2 162  ASP162     -0.2456
    142  OD2        7.8780   -9.6200  -15.4520 O.co2 162  ASP162     -0.2456
    143  N          8.2860  -14.3590  -15.9280 N.am  163  GLU163     -0.1977
    144  CA         7.9450  -14.6200  -17.3250 C.3   163  GLU163      0.1602
    145  C          8.1560  -16.0770  -17.7090 C.2   163  GLU163      0.2287
    146  O          9.2280  -16.6400  -17.4630 O.2   163  GLU163     -0.2864
    147  CB         8.7960  -13.6970  -18.2060 C.3   163  GLU163      0.0415
    148  CG         8.5580  -13.7480  -19.7010 C.3   163  GLU163      0.1163
    149  CD         9.2850  -12.6290  -20.4620 C.2   163  GLU163      0.3649
    150  OE1        9.5100  -12.7630  -21.6780 O.co2 163  GLU163     -0.2457
    151  OE2        9.6380  -11.5880  -19.8530 O.co2 163  GLU163     -0.2457
    152  N          0.1000   -5.5300  -23.4630 N.3   220  LYS220     -0.1245
    153  CA         0.3630   -4.7960  -22.2190 C.3   220  LYS220      0.1561
    154  C         -0.2960   -3.4090  -22.1610 C.2   220  LYS220      0.2260
    155  O         -0.3660   -2.7390  -23.1900 O.2   220  LYS220     -0.2867
    156  CB         1.8670   -4.6700  -22.0030 C.3   220  LYS220      0.0271
    157  CG         2.4690   -6.0050  -21.6050 C.3   220  LYS220      0.0035
    158  CD         3.8510   -5.8730  -21.0300 C.3   220  LYS220      0.0206
    159  CE         4.2500   -7.1590  -20.3700 C.3   220  LYS220      0.1093
    160  NZ         3.8910   -7.2910  -18.9400 N.3   220  LYS220     -0.1314
@<TRIPOS>BOND
     1   152   153    1
     2   155   154    2
     3   153   154    1
     4   153   156    1
     5   156   157    1
     6   150   149   ar
     7   157   158    1
     8   158   159    1
     9   101   100    2
    10   149   151   ar
    11   149   148    1
    12   159   160    1
    13   148   147    1
    14    34    33   ar
    15    95    93   ar
    16    95    96   ar
    17    97    96    1
    18   100    99    1
    19   107   106    1
    20    33    35   ar
    21    33    32    1
    22   112   111    2
    23    93    91   ar
    24   102    99    1
    25   102   103    1
    26    28    29    1
    27    96    94   ar
    28    32    29    1
    29   104   103    1
    30   104   105    1
    31    99    98    1
    32   147   144    1
    33   109   110    1
    34    29    30    1
    35   106   105    2
    36   106   108    1
    37   111   110    1
    38   111   117   am
    39   145   146    2
    40   145   144    1
    41    91    90    1
    42    91    92   ar
    43    31    30    2
    44   113   110    1
    45   113   114    1
    46    94    92   ar
    47   144   143    1
    48    89    88    2
    49   119   120    2
    50   119   118    1
    51   118   117    1
    52    30    36   am
    53   121   122    1
    54    90    87    1
    55   116   114   am
    56   114   115    2
    57   125   122    1
    58   125   126    1
    59    87    88    1
    60    87    86    1
    61    39    38    2
    62   122   123    1
    63   143   137   am
    64    36    37    1
    65   141   140   ar
    66   138   137    2
    67    38    37    1
    68   142   140   ar
    69   137   136    1
    70    47    48    1
    71   140   139    1
    72    37    40    1
    73   123   124    2
    74   123   127   am
    75    19    17    1
    76    11     9    1
    77    18    17    1
    78    48    51    1
    79    48    49    1
    80    26    25    1
    81    51    52    1
    82   136   139    1
    83   136   135    1
    84    78    77    2
    85   127   128    1
    86   135   129   am
    87    40    41    1
    88    17    16    1
    89    24    25    1
    90    24    21    1
    91     9    10    1
    92     9     8    2
    93    53    49   am
    94    53    54    1
    95    25    27    1
    96    16    13    1
    97    77    80   am
    98    77    76    1
    99    49    50    2
   100    23    22    2
   101    81    82    1
   102    81    80    1
   103    81    84    1
   104    42    41   ar
   105    42    44   ar
   106    41    43   ar
   107    85    84    1
   108   129   128    1
   109   129   130    2
   110     8     7    1
   111    22    21    1
   112    82    83    2
   113   128   131    1
   114    57    54    1
   115    57    58    1
   116    15    14    2
   117    76    75    1
   118    76    79    1
   119    13    14    1
   120    13    12    1
   121   133   131    1
   122    21    20    1
   123    54    55    1
   124    44    46   ar
   125    43    45   ar
   126   131   132    1
   127    58    60   ar
   128    58    59   ar
   129     7     6    1
   130    60    62   ar
   131    12     3   am
   132     6     5    1
   133    59    61   ar
   134    46    45   ar
   135    55    64   am
   136    55    56    2
   137    64    65    1
   138     4     3    2
   139     3     2    1
   140    62    63   ar
   141   132   134    1
   142    61    63   ar
   143    72    70   ar
   144    72    74   ar
   145    70    69   ar
   146    74    73   ar
   147    73    71   ar
   148    69    71   ar
   149    69    68    1
   150    68    65    1
   151     5     2    1
   152    65    66    1
   153     2     1    1
   154    66    67    2
