@<TRIPOS>MOLECULE
tmp/5wm2A00.pdb
 84 78 0 0 0
SMALL
GASTEIGER

@<TRIPOS>ATOM
      1  N         -9.5600   49.3040    8.2710 N.3   237  HIS237     -0.1226
      2  CA        -9.6690   50.4920    7.4360 C.3   237  HIS237      0.1752
      3  C         -8.9580   50.2500    6.1060 C.2   237  HIS237      0.2596
      4  O         -7.7910   49.8590    6.0910 O.2   237  HIS237     -0.2718
      5  CB        -9.0490   51.6870    8.1630 C.3   237  HIS237      0.0759
      6  CG        -9.3990   53.0140    7.5720 C.ar  237  HIS237      0.0818
      7  ND1       -9.0480   53.3780    6.2910 N.ar  237  HIS237     -0.2268
      8  CD2      -10.0510   54.0770    8.0980 C.ar  237  HIS237      0.1154
      9  CE1       -9.4730   54.6050    6.0510 C.ar  237  HIS237      0.1986
     10  NE2      -10.0810   55.0530    7.1320 N.ar  237  HIS237     -0.2212
     11  N         -9.6670   50.4890    4.9940 N.am  238  ASN238     -0.1960
     12  CA        -9.1130   50.2510    3.6570 C.3   238  ASN238      0.1819
     13  C         -7.7330   50.8850    3.4830 C.2   238  ASN238      0.2621
     14  O         -6.8290   50.2710    2.9080 O.2   238  ASN238     -0.2715
     15  CB       -10.0960   50.7860    2.6060 C.3   238  ASN238      0.1195
     16  CG        -9.6960   50.4450    1.1760 C.2   238  ASN238      0.2630
     17  OD1       -9.3650   49.3070    0.8570 O.2   238  ASN238     -0.2716
     18  ND2       -9.7390   51.4430    0.3070 N.am  238  ASN238     -0.0877
     19  N         -7.5610   52.1100    3.9920 N.am  239  PHE239     -0.1974
     20  CA        -6.3000   52.8430    3.8690 C.3   239  PHE239      0.1639
     21  C         -5.1340   52.0490    4.4530 C.2   239  PHE239      0.2290
     22  O         -4.0790   51.9140    3.8250 O.2   239  PHE239     -0.2864
     23  CB        -6.4570   54.1950    4.5730 C.3   239  PHE239      0.0560
     24  CG        -5.3750   55.2160    4.2810 C.ar  239  PHE239     -0.0200
     25  CD1       -4.3890   55.0090    3.3250 C.ar  239  PHE239     -0.0042
     26  CD2       -5.3660   56.4070    4.9930 C.ar  239  PHE239     -0.0042
     27  CE1       -3.4200   55.9720    3.1080 C.ar  239  PHE239     -0.0003
     28  CE2       -4.4030   57.3640    4.7780 C.ar  239  PHE239     -0.0003
     29  CZ        -3.4330   57.1490    3.8330 C.ar  239  PHE239     -0.0000
     30  N         -3.8230   50.1810    0.9460 N.3   243  CYS243     -0.1235
     31  CA        -3.4550   51.3470    0.1360 C.3   243  CYS243      0.1677
     32  C         -2.1080   51.9690    0.5360 C.2   243  CYS243      0.2270
     33  O         -2.0300   53.1590    0.8550 O.2   243  CYS243     -0.2867
     34  CB        -4.5750   52.3870    0.2020 C.3   243  CYS243      0.0956
     35  SG        -6.2320   51.7290   -0.1970 S.3   243  CYS243     -0.0801
     36  N         -7.9570   60.4450    4.1280 N.3   310  GLY310     -0.1225
     37  CA        -9.1980   60.3310    4.8770 C.3   310  GLY310      0.1811
     38  C         -9.9530   61.6430    4.9180 C.2   310  GLY310      0.2280
     39  O        -11.1840   61.6770    4.8780 O.2   310  GLY310     -0.2866
     40  N         -3.0930   61.2670    0.0660 N.3   332  VAL332     -0.1245
     41  CA        -3.8870   60.1660   -0.4620 C.3   332  VAL332      0.1561
     42  C         -5.3560   60.5530   -0.3640 C.2   332  VAL332      0.2260
     43  O         -5.8670   60.7910    0.7360 O.2   332  VAL332     -0.2867
     44  CB        -3.6260   58.8550    0.2910 C.3   332  VAL332      0.0252
     45  CG1       -4.4360   57.7370   -0.3310 C.3   332  VAL332      0.0019
     46  CG2       -2.1350   58.5280    0.3140 C.3   332  VAL332      0.0019
     47  N         -8.6560   58.8040   -1.1970 N.3   334  GLY334     -0.1210
     48  CA        -9.1600   57.4930   -1.5430 C.3   334  GLY334      0.1956
     49  C        -10.5340   57.2320   -0.9560 C.2   334  GLY334      0.2612
     50  O        -11.1250   58.0750   -0.2790 O.2   334  GLY334     -0.2717
     51  N        -11.0220   56.0310   -1.2330 N.am  335  MET335     -0.1965
     52  CA       -12.3360   55.6060   -0.7960 C.3   335  MET335      0.1736
     53  C        -12.3730   54.0890   -0.8080 C.2   335  MET335      0.2616
     54  O        -11.7400   53.4480   -1.6500 O.2   335  MET335     -0.2715
     55  CB       -13.4330   56.1940   -1.6940 C.3   335  MET335      0.0427
     56  CG       -13.1820   56.0020   -3.1830 C.3   335  MET335      0.0599
     57  SD       -13.9580   57.2360   -4.2330 S.3   335  MET335     -0.1393
     58  CE       -12.9240   58.6560   -3.9250 C.3   335  MET335      0.0692
     59  N        -13.1140   53.5240    0.1450 N.am  336  ALA336     -0.1977
     60  CA       -13.3430   52.0840    0.1480 C.3   336  ALA336      0.1597
     61  C        -14.0470   51.6330   -1.1290 C.2   336  ALA336      0.2287
     62  O        -13.9160   50.4760   -1.5470 O.2   336  ALA336     -0.2864
     63  CB       -14.1520   51.6880    1.3860 C.3   336  ALA336      0.0319
     64  N         -8.3090   55.4970   -5.9170 N.3   340  LEU340     -0.1245
     65  CA        -7.2590   56.0340   -5.0680 C.3   340  LEU340      0.1561
     66  C         -6.4690   57.0560   -5.8590 C.2   340  LEU340      0.2260
     67  O         -6.0710   56.7930   -7.0010 O.2   340  LEU340     -0.2867
     68  CB        -6.3240   54.9380   -4.5680 C.3   340  LEU340      0.0270
     69  CG        -7.0060   53.8190   -3.7950 C.3   340  LEU340      0.0019
     70  CD1       -6.1400   52.5620   -3.7840 C.3   340  LEU340      0.0001
     71  CD2       -7.3570   54.2800   -2.3900 C.3   340  LEU340      0.0001
     72  N        -11.8350   62.3840    9.5030 N.3   440  GLY440     -0.1225
     73  CA       -11.6960   61.1720    8.7360 C.3   440  GLY440      0.1811
     74  C        -12.8830   60.2370    8.8360 C.2   440  GLY440      0.2280
     75  O        -13.0970   59.4350    7.9240 O.2   440  GLY440     -0.2866
     76  N        -16.6700   59.1730    8.6220 N.3   442  LYS442     -0.1245
     77  CA       -17.7600   59.5800    7.7490 C.3   442  LYS442      0.1561
     78  C        -19.0920   59.3430    8.4370 C.2   442  LYS442      0.2260
     79  O        -19.3810   58.2240    8.8620 O.2   442  LYS442     -0.2867
     80  CB       -17.7100   58.8150    6.4250 C.3   442  LYS442      0.0271
     81  CG       -16.4240   59.0040    5.6510 C.3   442  LYS442      0.0035
     82  CD       -16.0790   60.4540    5.5420 C.3   442  LYS442      0.0206
     83  CE       -14.8390   60.6340    4.6990 C.3   442  LYS442      0.1093
     84  NZ       -13.6910   59.8710    5.2490 N.3   442  LYS442     -0.1314
@<TRIPOS>BOND
     1    67    66    2
     2    64    65    1
     3    66    65    1
     4    65    68    1
     5    68    69    1
     6    57    58    1
     7    57    56    1
     8    69    70    1
     9    69    71    1
    10    56    55    1
    11    55    52    1
    12    54    53    2
    13    62    61    2
    14    48    47    1
    15    48    49    1
    16    51    49   am
    17    51    52    1
    18    61    60    1
    19    49    50    2
    20    53    52    1
    21    53    59   am
    22    41    42    1
    23    41    40    1
    24    41    44    1
    25    42    43    2
    26    45    44    1
    27    35    34    1
    28    31    34    1
    29    31    32    1
    30    31    30    1
    31    59    60    1
    32    60    63    1
    33    44    46    1
    34    18    16   am
    35    32    33    2
    36    17    16    2
    37    16    15    1
    38    15    12    1
    39    14    13    2
    40    27    25   ar
    41    27    29   ar
    42    25    24   ar
    43    13    12    1
    44    13    19   am
    45    12    11    1
    46    22    21    2
    47    29    28   ar
    48    20    19    1
    49    20    21    1
    50    20    23    1
    51    36    37    1
    52    24    23    1
    53    24    26   ar
    54    83    84    1
    55    83    82    1
    56    28    26   ar
    57    37    38    1
    58    39    38    2
    59    11     3   am
    60    82    81    1
    61    81    80    1
    62     9     7   ar
    63     9    10   ar
    64     4     3    2
    65     3     2    1
    66     7     6   ar
    67    80    77    1
    68    10     8   ar
    69     2     5    1
    70     2     1    1
    71     6     8   ar
    72     6     5    1
    73    77    78    1
    74    77    76    1
    75    75    74    2
    76    78    79    2
    77    73    74    1
    78    73    72    1
