@<TRIPOS>MOLECULE
tmp/5wm2A01.pdb
 191 181 0 0 0
SMALL
GASTEIGER

@<TRIPOS>ATOM
      1  N        -17.1290   48.4440    4.6270 N.3   192  LEU192     -0.1231
      2  CA       -18.2050   49.3270    5.0580 C.3   192  LEU192      0.1693
      3  C        -17.9160   50.7520    4.6070 C.2   192  LEU192      0.2593
      4  O        -16.7660   51.1950    4.6200 O.2   192  LEU192     -0.2718
      5  CB       -18.3530   49.2890    6.5810 C.3   192  LEU192      0.0284
      6  CG       -19.5700   49.9620    7.2050 C.3   192  LEU192      0.0019
      7  CD1      -20.7880   49.3690    6.5550 C.3   192  LEU192      0.0001
      8  CD2      -19.5960   49.7190    8.6970 C.3   192  LEU192      0.0001
      9  N        -18.9560   51.4700    4.2040 N.am  193  SER193     -0.1938
     10  CA       -18.8310   52.9010    3.9600 C.3   193  SER193      0.2055
     11  C        -19.9030   53.6290    4.7470 C.2   193  SER193      0.2644
     12  O        -21.0420   53.1570    4.8290 O.2   193  SER193     -0.2714
     13  CB       -18.9710   53.2390    2.4790 C.3   193  SER193      0.2130
     14  OG       -20.2230   52.7970    1.9940 O.3   193  SER193     -0.2179
     15  N        -19.5420   54.7840    5.3130 N.am  194  GLY194     -0.1939
     16  CA       -20.5320   55.6010    5.9970 C.3   194  GLY194      0.2014
     17  C        -21.7170   55.9200    5.1100 C.2   194  GLY194      0.2639
     18  O        -22.8720   55.8320    5.5320 O.2   194  GLY194     -0.2714
     19  N        -21.4530   56.2590    3.8720 N.am  195  GLY195     -0.1954
     20  CA       -22.5350   56.4460    2.9420 C.3   195  GLY195      0.1869
     21  C        -23.3480   57.6980    3.2160 C.2   195  GLY195      0.2309
     22  O        -23.0050   58.5500    4.0320 O.2   195  GLY195     -0.2863
     23  N         -0.9990   60.6520    4.2730 N.3   308  VAL308     -0.1231
     24  CA        -2.0320   61.3820    5.0000 C.3   308  VAL308      0.1692
     25  C         -3.2750   61.4620    4.1270 C.2   308  VAL308      0.2593
     26  O         -3.2280   62.0190    3.0280 O.2   308  VAL308     -0.2718
     27  CB        -1.5700   62.7870    5.4220 C.3   308  VAL308      0.0266
     28  CG1       -2.7030   63.5220    6.1510 C.3   308  VAL308      0.0020
     29  CG2       -0.3390   62.6910    6.3110 C.3   308  VAL308      0.0020
     30  N         -4.3800   60.9180    4.6190 N.am  309  GLY309     -0.1942
     31  CA        -5.6080   60.8870    3.8560 C.3   309  GLY309      0.2014
     32  C         -6.8060   60.6690    4.7560 C.2   309  GLY309      0.2639
     33  O         -6.6980   60.6990    5.9830 O.2   309  GLY309     -0.2714
     34  N         -7.9570   60.4450    4.1280 N.am  310  GLY310     -0.1939
     35  CA        -9.1980   60.3310    4.8770 C.3   310  GLY310      0.2014
     36  C         -9.9530   61.6430    4.9180 C.2   310  GLY310      0.2640
     37  O        -11.1840   61.6770    4.8780 O.2   310  GLY310     -0.2714
     38  N         -9.2010   62.7350    5.0090 N.am  311  SER311     -0.1935
     39  CA        -9.6880   64.0780    4.7360 C.3   311  SER311      0.2055
     40  C         -8.5020   64.8960    4.2410 C.2   311  SER311      0.2643
     41  O         -7.3550   64.4400    4.2630 O.2   311  SER311     -0.2714
     42  CB       -10.3510   64.7300    5.9560 C.3   311  SER311      0.2130
     43  OG        -9.4100   65.0470    6.9610 O.3   311  SER311     -0.2179
     44  N         -8.7870   66.1100    3.7860 N.am  312  LYS312     -0.1963
     45  CA        -7.7830   66.9100    3.0930 C.3   312  LYS312      0.1728
     46  C         -6.8090   67.5210    4.0940 C.2   312  LYS312      0.2616
     47  O         -7.2130   68.2910    4.9650 O.2   312  LYS312     -0.2715
     48  CB        -8.4500   68.0040    2.2650 C.3   312  LYS312      0.0311
     49  CG        -7.4610   68.9230    1.5890 C.3   312  LYS312      0.0038
     50  CD        -8.1600   70.0330    0.8610 C.3   312  LYS312      0.0206
     51  CE        -7.2150   70.7690   -0.0560 C.3   312  LYS312      0.1093
     52  NZ        -7.8720   71.9310   -0.7060 N.3   312  LYS312     -0.1314
     53  N         -5.5260   67.1960    3.9570 N.am  313  LEU313     -0.1977
     54  CA        -4.4960   67.8590    4.7400 C.3   313  LEU313      0.1596
     55  C         -4.2180   69.2430    4.1670 C.2   313  LEU313      0.2287
     56  O         -3.9670   69.3870    2.9680 O.2   313  LEU313     -0.2864
     57  CB        -3.2100   67.0330    4.7570 C.3   313  LEU313      0.0297
     58  CG        -2.0480   67.5890    5.5800 C.3   313  LEU313      0.0022
     59  CD1       -2.3060   67.4860    7.0830 C.3   313  LEU313      0.0001
     60  CD2       -0.7500   66.8910    5.1960 C.3   313  LEU313      0.0001
     61  N          0.1160   62.6610   -0.0320 N.3   331  GLN331     -0.1231
     62  CA        -1.3110   62.8900    0.1290 C.3   331  GLN331      0.1698
     63  C         -2.0670   61.7920   -0.5960 C.2   331  GLN331      0.2592
     64  O         -1.7120   61.4020   -1.7120 O.2   331  GLN331     -0.2718
     65  CB        -1.7190   64.2670   -0.4060 C.3   331  GLN331      0.0381
     66  CG        -1.0600   65.4330    0.3390 C.3   331  GLN331      0.0905
     67  CD        -1.9810   66.6300    0.5380 C.2   331  GLN331      0.2608
     68  OE1       -3.1880   66.4800    0.7550 O.2   331  GLN331     -0.2717
     69  NE2       -1.4120   67.8240    0.4710 N.am  331  GLN331     -0.0878
     70  N         -3.0930   61.2670    0.0660 N.am  332  VAL332     -0.1966
     71  CA        -3.8870   60.1660   -0.4620 C.3   332  VAL332      0.1727
     72  C         -5.3560   60.5530   -0.3640 C.2   332  VAL332      0.2616
     73  O         -5.8670   60.7910    0.7360 O.2   332  VAL332     -0.2715
     74  CB        -3.6260   58.8550    0.2910 C.3   332  VAL332      0.0290
     75  CG1       -4.4360   57.7370   -0.3310 C.3   332  VAL332      0.0023
     76  CG2       -2.1350   58.5280    0.3140 C.3   332  VAL332      0.0023
     77  N         -6.0240   60.6230   -1.5040 N.am  333  PHE333     -0.1960
     78  CA        -7.4570   60.8770   -1.5690 C.3   333  PHE333      0.1771
     79  C         -8.0740   59.5910   -2.0990 C.2   333  PHE333      0.2620
     80  O         -8.0170   59.3120   -3.2970 O.2   333  PHE333     -0.2715
     81  CB        -7.7610   62.0960   -2.4430 C.3   333  PHE333      0.0574
     82  CG        -9.1960   62.2030   -2.8950 C.ar  333  PHE333     -0.0200
     83  CD1      -10.2540   61.8360   -2.0730 C.ar  333  PHE333     -0.0042
     84  CD2       -9.4860   62.6950   -4.1550 C.ar  333  PHE333     -0.0042
     85  CE1      -11.5660   61.9480   -2.5130 C.ar  333  PHE333     -0.0003
     86  CE2      -10.7900   62.8030   -4.5970 C.ar  333  PHE333     -0.0003
     87  CZ       -11.8300   62.4350   -3.7740 C.ar  333  PHE333     -0.0000
     88  N         -8.6560   58.8040   -1.1970 N.am  334  GLY334     -0.1940
     89  CA        -9.1600   57.4930   -1.5430 C.3   334  GLY334      0.2014
     90  C        -10.5340   57.2320   -0.9560 C.2   334  GLY334      0.2639
     91  O        -11.1250   58.0750   -0.2790 O.2   334  GLY334     -0.2714
     92  N        -11.0220   56.0310   -1.2330 N.am  335  MET335     -0.1963
     93  CA       -12.3360   55.6060   -0.7960 C.3   335  MET335      0.1736
     94  C        -12.3730   54.0890   -0.8080 C.2   335  MET335      0.2616
     95  O        -11.7400   53.4480   -1.6500 O.2   335  MET335     -0.2715
     96  CB       -13.4330   56.1940   -1.6940 C.3   335  MET335      0.0427
     97  CG       -13.1820   56.0020   -3.1830 C.3   335  MET335      0.0599
     98  SD       -13.9580   57.2360   -4.2330 S.3   335  MET335     -0.1393
     99  CE       -12.9240   58.6560   -3.9250 C.3   335  MET335      0.0692
    100  N        -13.1140   53.5240    0.1450 N.am  336  ALA336     -0.1963
    101  CA       -13.3430   52.0840    0.1480 C.3   336  ALA336      0.1728
    102  C        -14.0470   51.6330   -1.1290 C.2   336  ALA336      0.2616
    103  O        -13.9160   50.4760   -1.5470 O.2   336  ALA336     -0.2715
    104  CB       -14.1520   51.6880    1.3860 C.3   336  ALA336      0.0334
    105  N        -14.7950   52.5370   -1.7560 N.am  337  GLU337     -0.1977
    106  CA       -15.5050   52.2390   -2.9910 C.3   337  GLU337      0.1602
    107  C        -14.5640   51.9460   -4.1520 C.2   337  GLU337      0.2287
    108  O        -14.9840   51.3100   -5.1240 O.2   337  GLU337     -0.2864
    109  CB       -16.4270   53.4100   -3.3360 C.3   337  GLU337      0.0415
    110  CG       -17.7410   53.3980   -2.5770 C.3   337  GLU337      0.1163
    111  CD       -17.6560   54.0930   -1.2280 C.2   337  GLU337      0.3649
    112  OE1      -16.5490   54.5040   -0.8300 O.co2 337  GLU337     -0.2457
    113  OE2      -18.7040   54.2260   -0.5700 O.co2 337  GLU337     -0.2457
    114  N         -4.0620   66.6370   -3.7670 N.3   356  GLN356     -0.1245
    115  CA        -4.4270   65.3680   -3.1600 C.3   356  GLN356      0.1566
    116  C         -4.1290   64.1960   -4.0910 C.2   356  GLN356      0.2260
    117  O         -4.7680   63.1490   -3.9930 O.2   356  GLN356     -0.2867
    118  CB        -5.9050   65.3920   -2.7570 C.3   356  GLN356      0.0367
    119  CG        -6.2140   66.1990   -1.4960 C.3   356  GLN356      0.0905
    120  CD        -5.8990   67.6800   -1.6370 C.2   356  GLN356      0.2608
    121  OE1       -6.5600   68.3890   -2.3830 O.2   356  GLN356     -0.2717
    122  NE2       -4.8930   68.1490   -0.9160 N.am  356  GLN356     -0.0878
    123  N        -19.3330   55.8700  -10.7400 N.3   412  TYR412     -0.1241
    124  CA       -19.7010   56.0530   -9.3430 C.3   412  TYR412      0.1605
    125  C        -19.6590   57.5370   -9.0110 C.2   412  TYR412      0.2264
    126  O        -18.6680   58.2110   -9.3020 O.2   412  TYR412     -0.2867
    127  CB       -18.7490   55.2610   -8.4370 C.3   412  TYR412      0.0534
    128  CG       -18.7680   55.6360   -6.9670 C.ar  412  TYR412     -0.0201
    129  CD1      -19.9180   55.4670   -6.1990 C.ar  412  TYR412     -0.0009
    130  CD2      -17.6230   56.1280   -6.3410 C.ar  412  TYR412     -0.0009
    131  CE1      -19.9350   55.7980   -4.8600 C.ar  412  TYR412      0.0417
    132  CE2      -17.6350   56.4680   -5.0020 C.ar  412  TYR412      0.0417
    133  CZ       -18.7900   56.2980   -4.2650 C.ar  412  TYR412      0.1957
    134  OH       -18.7960   56.6350   -2.9300 O.3   412  TYR412     -0.2866
    135  N        -19.0510   60.1110   -6.5140 N.3   414  THR414     -0.1218
    136  CA       -18.3480   60.1050   -5.2270 C.3   414  THR414      0.1862
    137  C        -18.9470   61.0790   -4.2200 C.2   414  THR414      0.2287
    138  O        -18.7790   60.8890   -3.0080 O.2   414  THR414     -0.2866
    139  CB       -16.8690   60.4470   -5.4160 C.3   414  THR414      0.1770
    140  OG1      -16.7510   61.8160   -5.8370 O.3   414  THR414     -0.2211
    141  CG2      -16.2310   59.5400   -6.4390 C.3   414  THR414      0.0375
    142  N        -17.7990   64.0480   -3.9050 N.3   416  ASP416     -0.1239
    143  CA       -16.7220   64.9800   -3.6140 C.3   416  ASP416      0.1674
    144  C        -16.6630   66.0580   -4.6890 C.2   416  ASP416      0.2266
    145  O        -16.8660   65.7740   -5.8690 O.2   416  ASP416     -0.2867
    146  CB       -15.3880   64.2320   -3.5500 C.3   416  ASP416      0.1410
    147  CG       -15.3810   63.1320   -2.5000 C.2   416  ASP416      0.3668
    148  OD1      -15.7280   63.4370   -1.3410 O.co2 416  ASP416     -0.2456
    149  OD2      -15.0390   61.9750   -2.8320 O.co2 416  ASP416     -0.2456
    150  N         -9.0020   68.6980   -3.7610 N.3   428  VAL428     -0.1245
    151  CA       -10.3130   68.4910   -3.1540 C.3   428  VAL428      0.1561
    152  C        -10.8280   69.8420   -2.6900 C.2   428  VAL428      0.2260
    153  O        -10.1640   70.5270   -1.9050 O.2   428  VAL428     -0.2867
    154  CB       -10.2420   67.4930   -1.9910 C.3   428  VAL428      0.0252
    155  CG1      -11.5410   67.4840   -1.2080 C.3   428  VAL428      0.0019
    156  CG2       -9.9160   66.1020   -2.5060 C.3   428  VAL428      0.0019
    157  N        -22.1990   65.5370   -1.2160 N.3   433  LYS433     -0.1245
    158  CA       -22.9810   64.5480   -0.4920 C.3   433  LYS433      0.1561
    159  C        -23.3000   65.0070    0.9320 C.2   433  LYS433      0.2260
    160  O        -22.5540   65.7730    1.5490 O.2   433  LYS433     -0.2867
    161  CB       -22.2210   63.2220   -0.4580 C.3   433  LYS433      0.0271
    162  CG       -20.7860   63.3630    0.0190 C.3   433  LYS433      0.0035
    163  CD       -20.0560   62.0300    0.0110 C.3   433  LYS433      0.0206
    164  CE       -18.5610   62.2050    0.2230 C.3   433  LYS433      0.1093
    165  NZ       -17.8370   60.9130    0.0530 N.3   433  LYS433     -0.1314
    166  N        -23.0050   64.0840    4.0420 N.3   435  GLN435     -0.1245
    167  CA       -22.2010   63.1950    4.8700 C.3   435  GLN435      0.1566
    168  C        -21.0710   64.0050    5.4810 C.2   435  GLN435      0.2260
    169  O        -20.3000   64.6270    4.7480 O.2   435  GLN435     -0.2867
    170  CB       -21.6470   62.0360    4.0450 C.3   435  GLN435      0.0367
    171  CG       -20.5930   61.2200    4.7560 C.3   435  GLN435      0.0905
    172  CD       -19.7010   60.4640    3.8000 C.2   435  GLN435      0.2608
    173  OE1      -18.6570   60.9550    3.3920 O.2   435  GLN435     -0.2717
    174  NE2      -20.1140   59.2610    3.4280 N.am  435  GLN435     -0.0878
    175  N        -17.5880   64.7170    7.4520 N.3   437  ASN437     -0.1240
    176  CA       -16.2630   64.0980    7.5280 C.3   437  ASN437      0.1653
    177  C        -15.5960   64.6350    8.7890 C.2   437  ASN437      0.2266
    178  O        -14.9730   65.6950    8.7800 O.2   437  ASN437     -0.2867
    179  CB       -15.4400   64.3730    6.2660 C.3   437  ASN437      0.1155
    180  CG       -14.1110   63.6360    6.2600 C.2   437  ASN437      0.2627
    181  OD1      -13.7750   62.9500    7.2070 O.2   437  ASN437     -0.2716
    182  ND2      -13.3890   63.7300    5.1630 N.am  437  ASN437     -0.0877
    183  N        -16.6700   59.1730    8.6220 N.3   442  LYS442     -0.1245
    184  CA       -17.7600   59.5800    7.7490 C.3   442  LYS442      0.1561
    185  C        -19.0920   59.3430    8.4370 C.2   442  LYS442      0.2260
    186  O        -19.3810   58.2240    8.8620 O.2   442  LYS442     -0.2867
    187  CB       -17.7100   58.8150    6.4250 C.3   442  LYS442      0.0271
    188  CG       -16.4240   59.0040    5.6510 C.3   442  LYS442      0.0035
    189  CD       -16.0790   60.4540    5.5420 C.3   442  LYS442      0.0206
    190  CE       -14.8390   60.6340    4.6990 C.3   442  LYS442      0.1093
    191  NZ       -13.6910   59.8710    5.2490 N.3   442  LYS442     -0.1314
@<TRIPOS>BOND
     1   123   124    1
     2   124   125    1
     3   124   127    1
     4   126   125    2
     5   127   128    1
     6   128   130   ar
     7   128   129   ar
     8   135   136    1
     9   141   139    1
    10   130   132   ar
    11   129   131   ar
    12   145   144    2
    13   140   139    1
    14   139   136    1
    15   136   137    1
    16   108   107    2
    17   132   133   ar
    18   131   133   ar
    19   144   143    1
    20    86    84   ar
    21    86    87   ar
    22   133   134    1
    23    98    99    1
    24    98    97    1
    25   137   138    2
    26    84    82   ar
    27   107   106    1
    28   116   117    2
    29   116   115    1
    30   142   143    1
    31    87    85   ar
    32   114   115    1
    33   150   151    1
    34   143   146    1
    35   146   147    1
    36   109   106    1
    37   109   110    1
    38    80    79    2
    39    97    96    1
    40   115   118    1
    41   151   152    1
    42   151   154    1
    43   106   105    1
    44    82    81    1
    45    82    83   ar
    46   149   147   ar
    47   118   119    1
    48   152   153    2
    49   110   111    1
    50    85    83   ar
    51   156   154    1
    52   147   148   ar
    53    81    78    1
    54   121   120    2
    55    79    78    1
    56    79    88   am
    57   154   155    1
    58   105   102   am
    59    64    63    2
    60    96    93    1
    61    95    94    2
    62   120   119    1
    63   120   122   am
    64    78    77    1
    65   103   102    2
    66    89    88    1
    67    89    90    1
    68    77    72   am
    69    92    90   am
    70    92    93    1
    71   111   112   ar
    72   111   113   ar
    73   157   158    1
    74   102   101    1
    75    90    91    2
    76    94    93    1
    77    94   100   am
    78    52    51    1
    79    63    70   am
    80    63    62    1
    81   158   161    1
    82   158   159    1
    83    71    72    1
    84    71    70    1
    85    71    74    1
    86   161   162    1
    87    65    62    1
    88    65    66    1
    89    72    73    2
    90    75    74    1
    91    51    50    1
    92    61    62    1
    93   163   162    1
    94   163   164    1
    95   165   164    1
    96   100   101    1
    97   101   104    1
    98    74    76    1
    99    66    67    1
   100    69    67   am
   101    67    68    2
   102    50    49    1
   103   159   160    2
   104    49    48    1
   105    14    13    1
   106    48    45    1
   107    13    10    1
   108    20    21    1
   109    20    19    1
   110    56    55    2
   111    26    25    2
   112    45    44    1
   113    45    46    1
   114    21    22    2
   115   173   172    2
   116   174   172   am
   117    44    40   am
   118   172   171    1
   119    31    30    1
   120    31    32    1
   121    19    17   am
   122    53    46   am
   123    53    54    1
   124    10     9    1
   125    10    11    1
   126   166   167    1
   127   170   171    1
   128   170   167    1
   129    46    47    2
   130    25    30   am
   131    25    24    1
   132    34    32   am
   133    34    35    1
   134    55    54    1
   135     9     3   am
   136    40    41    2
   137    40    39    1
   138    23    24    1
   139     3     4    2
   140     3     2    1
   141     1     2    1
   142   190   191    1
   143   190   189    1
   144    39    38    1
   145    39    42    1
   146    54    57    1
   147    11    12    2
   148    11    15   am
   149   169   168    2
   150    32    33    2
   151    57    58    1
   152   167   168    1
   153    35    36    1
   154    37    36    2
   155    36    38   am
   156    24    27    1
   157     2     5    1
   158    17    18    2
   159    17    16    1
   160   182   180   am
   161    60    58    1
   162    15    16    1
   163    27    28    1
   164    27    29    1
   165   189   188    1
   166    58    59    1
   167   188   187    1
   168    42    43    1
   169   180   179    1
   170   180   181    2
   171   179   176    1
   172   187   184    1
   173     7     6    1
   174     5     6    1
   175     6     8    1
   176   175   176    1
   177   176   177    1
   178   184   185    1
   179   184   183    1
   180   185   186    2
   181   178   177    2
