@<TRIPOS>MOLECULE
tmp/5wmaA00.pdb
 118 115 0 0 0
SMALL
GASTEIGER

@<TRIPOS>ATOM
      1  N         -3.8230   -0.1650   -1.1050 N.3    40  TRP40      -0.1228
      2  CA        -3.5780   -1.5070   -1.6340 C.3    40  TRP40       0.1722
      3  C         -4.8230   -2.3810   -1.8760 C.2    40  TRP40       0.2437
      4  O         -4.8730   -3.0800   -2.8840 O.2    40  TRP40      -0.2733
      5  CB        -2.5100   -2.2480   -0.8100 C.3    40  TRP40       0.0563
      6  CG        -2.8210   -2.4040    0.6410 C.ar   40  TRP40       0.0003
      7  CD1       -2.5270   -1.5270    1.6460 C.ar   40  TRP40       0.0946
      8  CD2       -3.4800   -3.5100    1.2520 C.ar   40  TRP40       0.0152
      9  NE1       -2.9760   -2.0210    2.8490 N.ar   40  TRP40      -0.2442
     10  CE2       -3.5660   -3.2380    2.6310 C.ar   40  TRP40       0.0810
     11  CE3       -4.0170   -4.7040    0.7630 C.ar   40  TRP40       0.0012
     12  CZ2       -4.1590   -4.1230    3.5280 C.ar   40  TRP40       0.0191
     13  CZ3       -4.6070   -5.5770    1.6530 C.ar   40  TRP40       0.0001
     14  CH2       -4.6790   -5.2810    3.0160 C.ar   40  TRP40       0.0015
     15  N         -5.8370   -2.3410   -0.9890 N.am   41  PRO41      -0.2718
     16  CA        -6.9840   -3.2090   -1.2990 C.3    41  PRO41       0.1535
     17  C         -7.7780   -2.7600   -2.5160 C.2    41  PRO41       0.2598
     18  O         -8.5910   -3.5320   -3.0240 O.2    41  PRO41      -0.2715
     19  CB        -7.8750   -3.0770   -0.0560 C.3    41  PRO41       0.0310
     20  CG        -6.9920   -2.5640    1.0110 C.3    41  PRO41       0.0237
     21  CD        -6.0090   -1.6750    0.3120 C.3    41  PRO41       0.0939
     22  N         -7.5520   -1.5230   -2.9560 N.am   42  PHE42      -0.1974
     23  CA        -8.3370   -0.8990   -4.0120 C.3    42  PHE42       0.1639
     24  C         -7.5770   -0.8490   -5.3320 C.2    42  PHE42       0.2290
     25  O         -8.0820   -0.3060   -6.3150 O.2    42  PHE42      -0.2864
     26  CB        -8.7390    0.5200   -3.5910 C.3    42  PHE42       0.0560
     27  CG        -9.5010    0.5660   -2.2970 C.ar   42  PHE42      -0.0200
     28  CD1      -10.8740    0.3880   -2.2770 C.ar   42  PHE42      -0.0042
     29  CD2       -8.8420    0.7680   -1.1010 C.ar   42  PHE42      -0.0042
     30  CE1      -11.5750    0.4130   -1.0820 C.ar   42  PHE42      -0.0003
     31  CE2       -9.5410    0.7910    0.0910 C.ar   42  PHE42      -0.0003
     32  CZ       -10.9020    0.6140    0.1000 C.ar   42  PHE42      -0.0000
     33  N         -6.7510   -3.2580   -7.3590 N.3    44  GLN44      -0.1245
     34  CA        -7.1290   -4.2990   -8.3130 C.3    44  GLN44       0.1566
     35  C         -8.5430   -4.7450   -7.9910 C.2    44  GLN44       0.2260
     36  O         -9.0380   -4.4770   -6.9020 O.2    44  GLN44      -0.2867
     37  CB        -6.1670   -5.4890   -8.2410 C.3    44  GLN44       0.0367
     38  CG        -6.0710   -6.1410   -6.8650 C.3    44  GLN44       0.0905
     39  CD        -5.2670   -5.3120   -5.8750 C.2    44  GLN44       0.2608
     40  OE1       -4.1460   -4.8890   -6.1660 O.2    44  GLN44      -0.2717
     41  NE2       -5.8350   -5.0820   -4.6970 N.am   44  GLN44      -0.0878
     42  N        -11.6800   -6.8300   -6.6800 N.3    46  VAL46      -0.1231
     43  CA       -11.8540   -7.7260   -5.5480 C.3    46  VAL46       0.1692
     44  C        -11.7820   -9.1710   -6.0310 C.2    46  VAL46       0.2592
     45  O        -12.5720   -9.5950   -6.8780 O.2    46  VAL46      -0.2718
     46  CB       -13.2030   -7.4800   -4.8480 C.3    46  VAL46       0.0266
     47  CG1      -13.4760   -8.5590   -3.8070 C.3    46  VAL46       0.0020
     48  CG2      -13.2200   -6.1010   -4.2060 C.3    46  VAL46       0.0020
     49  N        -10.8180   -9.9200   -5.5050 N.am   47  ASP47      -0.1974
     50  CA       -10.7200  -11.3450   -5.7810 C.3    47  ASP47       0.1709
     51  C        -11.5250  -12.0690   -4.7130 C.2    47  ASP47       0.2293
     52  O        -11.0210  -12.3700   -3.6310 O.2    47  ASP47      -0.2864
     53  CB        -9.2620  -11.8080   -5.7700 C.3    47  ASP47       0.1436
     54  CG        -9.1000  -13.2500   -6.2160 C.2    47  ASP47       0.3671
     55  OD1      -10.0790  -14.0280   -6.1370 O.co2  47  ASP47      -0.2456
     56  OD2       -7.9820  -13.6160   -6.6450 O.co2  47  ASP47      -0.2456
     57  N        -10.2040  -14.1460   -1.2980 N.3    51  LEU51      -0.1245
     58  CA       -10.6620  -13.5480   -0.0400 C.3    51  LEU51       0.1561
     59  C        -11.7650  -14.3650    0.6370 C.2    51  LEU51       0.2260
     60  O        -12.1900  -14.0460    1.7470 O.2    51  LEU51      -0.2867
     61  CB       -11.1530  -12.1220   -0.2820 C.3    51  LEU51       0.0270
     62  CG       -10.0810  -11.1440   -0.7680 C.3    51  LEU51       0.0019
     63  CD1      -10.7050   -9.8110   -1.1620 C.3    51  LEU51       0.0001
     64  CD2       -9.0140  -10.9450    0.2970 C.3    51  LEU51       0.0001
     65  N        -14.9710  -14.6400   -0.1910 N.3    53  LEU53      -0.1245
     66  CA       -16.1700  -13.8180   -0.0860 C.3    53  LEU53       0.1561
     67  C        -17.1120  -14.1840   -1.2250 C.2    53  LEU53       0.2260
     68  O        -17.3350  -13.3930   -2.1350 O.2    53  LEU53      -0.2867
     69  CB       -15.8050  -12.3380   -0.1760 C.3    53  LEU53       0.0270
     70  CG       -14.8170  -11.8090    0.8680 C.3    53  LEU53       0.0019
     71  CD1      -14.5440  -10.3370    0.6090 C.3    53  LEU53       0.0001
     72  CD2      -15.3240  -12.0240    2.2820 C.3    53  LEU53       0.0001
     73  N        -19.7450  -11.7090   -2.5420 N.3    56  TYR56      -0.1241
     74  CA       -19.3740  -10.3460   -2.9250 C.3    56  TYR56       0.1605
     75  C        -20.0600   -9.9180   -4.2220 C.2    56  TYR56       0.2264
     76  O        -20.6880   -8.8600   -4.2840 O.2    56  TYR56      -0.2867
     77  CB       -17.8540  -10.1640   -3.0530 C.3    56  TYR56       0.0534
     78  CG       -17.4920   -8.7280   -3.3530 C.ar   56  TYR56      -0.0201
     79  CD1      -17.3830   -7.7920   -2.3320 C.ar   56  TYR56      -0.0009
     80  CD2      -17.3110   -8.2920   -4.6600 C.ar   56  TYR56      -0.0009
     81  CE1      -17.0820   -6.4730   -2.6000 C.ar   56  TYR56       0.0417
     82  CE2      -17.0080   -6.9780   -4.9350 C.ar   56  TYR56       0.0417
     83  CZ       -16.8990   -6.0720   -3.9070 C.ar   56  TYR56       0.1957
     84  OH       -16.6030   -4.7640   -4.2090 O.3    56  TYR56      -0.2866
     85  N        -17.7850   -0.3650   -1.4520 N.3    95  CYS95      -0.1235
     86  CA       -17.1240   -0.7270   -0.2130 C.3    95  CYS95       0.1677
     87  C        -18.0720   -0.5220    0.9680 C.2    95  CYS95       0.2270
     88  O        -18.1660   -1.3630    1.8630 O.2    95  CYS95      -0.2867
     89  CB       -15.8590    0.1110   -0.0400 C.3    95  CYS95       0.0956
     90  SG       -14.8650   -0.3460    1.3770 S.3    95  CYS95      -0.0801
     91  N        -21.0430   -3.1990    0.8380 N.3    98  TYR98      -0.1227
     92  CA       -20.7140   -4.5810    1.1650 C.3    98  TYR98       0.1736
     93  C        -20.3100   -4.7650    2.6260 C.2    98  TYR98       0.2595
     94  O        -20.6780   -5.7540    3.2590 O.2    98  TYR98      -0.2718
     95  CB       -19.6010   -5.1180    0.2530 C.3    98  TYR98       0.0548
     96  CG       -19.2900   -6.5610    0.5630 C.ar   98  TYR98      -0.0200
     97  CD1      -20.1390   -7.5760    0.1430 C.ar   98  TYR98      -0.0009
     98  CD2      -18.1810   -6.9080    1.3190 C.ar   98  TYR98      -0.0009
     99  CE1      -19.8780   -8.8990    0.4440 C.ar   98  TYR98       0.0417
    100  CE2      -17.9140   -8.2320    1.6360 C.ar   98  TYR98       0.0417
    101  CZ       -18.7660   -9.2190    1.1930 C.ar   98  TYR98       0.1957
    102  OH       -18.5110  -10.5360    1.5020 O.3    98  TYR98      -0.2866
    103  N        -19.5530   -3.8200    3.1670 N.am   99  ASN99      -0.1974
    104  CA       -18.9570   -3.9750    4.4900 C.3    99  ASN99       0.1688
    105  C        -19.7650   -3.3110    5.6020 C.2    99  ASN99       0.2292
    106  O        -20.7960   -2.7180    5.3500 O.2    99  ASN99      -0.2864
    107  CB       -17.5240   -3.4450    4.4690 C.3    99  ASN99       0.1181
    108  CG       -16.6380   -4.2130    3.5090 C.2    99  ASN99       0.2629
    109  OD1      -16.2040   -5.3180    3.8050 O.2    99  ASN99      -0.2716
    110  ND2      -16.3760   -3.6320    2.3500 N.am   99  ASN99      -0.0877
    111  N        -11.6350   -1.9270    6.2900 N.3   105  ILE105     -0.1245
    112  CA       -11.6950   -1.5920    4.8770 C.3   105  ILE105      0.1561
    113  C        -12.5190   -0.3170    4.6650 C.2   105  ILE105      0.2260
    114  O        -12.2230    0.4780    3.7800 O.2   105  ILE105     -0.2867
    115  CB       -12.2350   -2.7830    4.0350 C.3   105  ILE105      0.0252
    116  CG1      -12.0320   -2.5270    2.5390 C.3   105  ILE105      0.0019
    117  CG2      -13.6970   -3.0750    4.3620 C.3   105  ILE105      0.0019
    118  CD1      -10.5810   -2.5360    2.1120 C.3   105  ILE105      0.0001
@<TRIPOS>BOND
     1    34    37    1
     2    34    35    1
     3    34    33    1
     4    37    38    1
     5    35    36    2
     6    45    44    2
     7    38    39    1
     8    42    43    1
     9    56    54   ar
    10    25    24    2
    11    54    55   ar
    12    54    53    1
    13    40    39    2
    14    44    43    1
    15    44    49   am
    16    39    41   am
    17    50    53    1
    18    50    49    1
    19    50    51    1
    20    43    46    1
    21    24    23    1
    22    82    80   ar
    23    82    83   ar
    24    46    48    1
    25    46    47    1
    26    51    52    2
    27    80    78   ar
    28    76    75    2
    29    75    74    1
    30    84    83    1
    31    23    26    1
    32    23    22    1
    33    83    81   ar
    34    26    27    1
    35    78    77    1
    36    78    79   ar
    37    77    74    1
    38    18    17    2
    39    22    17   am
    40    74    73    1
    41     4     3    2
    42    81    79   ar
    43    17    16    1
    44    27    28   ar
    45    27    29   ar
    46    28    30   ar
    47    68    67    2
    48     3     2    1
    49     3    15   am
    50     2     1    1
    51     2     5    1
    52    85    86    1
    53    16    15    1
    54    16    19    1
    55    57    58    1
    56    67    66    1
    57    63    62    1
    58    29    31   ar
    59    30    32   ar
    60    15    21    1
    61     5     6    1
    62    62    61    1
    63    62    64    1
    64    61    58    1
    65    86    89    1
    66    86    87    1
    67    65    66    1
    68    69    66    1
    69    69    70    1
    70    19    20    1
    71    89    90    1
    72    58    59    1
    73    31    32   ar
    74    97    99   ar
    75    97    96   ar
    76    95    96    1
    77    95    92    1
    78    21    20    1
    79    99   101   ar
    80    96    98   ar
    81    71    70    1
    82    59    60    2
    83     6     8   ar
    84     6     7   ar
    85    11     8   ar
    86    11    13   ar
    87    91    92    1
    88    70    72    1
    89    87    88    2
    90    92    93    1
    91   101   102    1
    92   101   100   ar
    93     8    10   ar
    94    98   100   ar
    95     7     9   ar
    96    13    14   ar
    97   118   116    1
    98   110   108   am
    99   116   115    1
   100    93   103   am
   101    93    94    2
   102    10     9   ar
   103    10    12   ar
   104    14    12   ar
   105   103   104    1
   106   108   109    2
   107   108   107    1
   108   114   113    2
   109   115   117    1
   110   115   112    1
   111   107   104    1
   112   104   105    1
   113   113   112    1
   114   112   111    1
   115   106   105    2
