@<TRIPOS>MOLECULE
tmp/5wmdA00.pdb
 157 156 0 0 0
SMALL
GASTEIGER

@<TRIPOS>ATOM
      1  N          3.3730    0.0130    1.3460 N.3    40  TRP40      -0.1228
      2  CA         3.1370   -1.3340    1.8740 C.3    40  TRP40       0.1722
      3  C          4.3980   -2.2080    2.0750 C.2    40  TRP40       0.2437
      4  O          4.4770   -2.8770    3.0960 O.2    40  TRP40      -0.2733
      5  CB         2.0300   -2.0690    1.0960 C.3    40  TRP40       0.0563
      6  CG         2.3220   -2.2740   -0.3490 C.ar   40  TRP40       0.0003
      7  CD1        2.0320   -1.4280   -1.3810 C.ar   40  TRP40       0.0946
      8  CD2        2.9760   -3.4070   -0.9250 C.ar   40  TRP40       0.0152
      9  NE1        2.4910   -1.9560   -2.5620 N.ar   40  TRP40      -0.2442
     10  CE2        3.0610   -3.1800   -2.3060 C.ar   40  TRP40       0.0810
     11  CE3        3.4790   -4.6040   -0.4040 C.ar   40  TRP40       0.0012
     12  CZ2        3.6210   -4.1150   -3.1770 C.ar   40  TRP40       0.0191
     13  CZ3        4.0390   -5.5180   -1.2680 C.ar   40  TRP40       0.0001
     14  CH2        4.1040   -5.2780   -2.6330 C.ar   40  TRP40       0.0015
     15  N          5.3980   -2.1970    1.1550 N.am   41  PRO41      -0.2718
     16  CA         6.5620   -3.0720    1.4450 C.3    41  PRO41       0.1535
     17  C          7.3430   -2.6470    2.6690 C.2    41  PRO41       0.2598
     18  O          8.1410   -3.4260    3.2010 O.2    41  PRO41      -0.2715
     19  CB         7.4400   -2.9180    0.2060 C.3    41  PRO41       0.0310
     20  CG         6.4850   -2.4380   -0.8940 C.3    41  PRO41       0.0237
     21  CD         5.5530   -1.5130   -0.1410 C.3    41  PRO41       0.0939
     22  N          7.1590   -1.3880    3.0630 N.am   42  PHE42      -0.1974
     23  CA         7.9230   -0.7630    4.1330 C.3    42  PHE42       0.1639
     24  C          7.1600   -0.6790    5.4510 C.2    42  PHE42       0.2290
     25  O          7.6700   -0.1090    6.4020 O.2    42  PHE42      -0.2864
     26  CB         8.3600    0.6460    3.6850 C.3    42  PHE42       0.0560
     27  CG         9.1410    0.6310    2.4120 C.ar   42  PHE42      -0.0200
     28  CD1       10.4860    0.3380    2.4150 C.ar   42  PHE42      -0.0042
     29  CD2        8.5240    0.8600    1.1960 C.ar   42  PHE42      -0.0042
     30  CE1       11.2130    0.2740    1.2330 C.ar   42  PHE42      -0.0003
     31  CE2        9.2510    0.8320    0.0260 C.ar   42  PHE42      -0.0003
     32  CZ        10.5950    0.5150    0.0440 C.ar   42  PHE42      -0.0000
     33  N          6.3210   -3.0850    7.5040 N.3    44  GLN44      -0.1231
     34  CA         6.7070   -4.1140    8.4590 C.3    44  GLN44       0.1683
     35  C          8.0960   -4.6160    8.0730 C.2    44  GLN44       0.2434
     36  O          8.5450   -4.3850    6.9530 O.2    44  GLN44      -0.2733
     37  CB         5.6940   -5.2810    8.4660 C.3    44  GLN44       0.0380
     38  CG         5.5110   -6.0040    7.1280 C.3    44  GLN44       0.0905
     39  CD         4.7410   -5.1700    6.1220 C.2    44  GLN44       0.2608
     40  OE1        3.6570   -4.6820    6.4140 O.2    44  GLN44      -0.2717
     41  NE2        5.3180   -4.9680    4.9460 N.am   44  GLN44      -0.0878
     42  N          8.7810   -5.3000    8.9960 N.am   45  PRO45      -0.2718
     43  CA        10.1090   -5.8380    8.6670 C.3    45  PRO45       0.1535
     44  C         10.0570   -6.6990    7.3960 C.2    45  PRO45       0.2598
     45  O          9.0610   -7.3630    7.0980 O.2    45  PRO45      -0.2715
     46  CB        10.4440   -6.6800    9.9160 C.3    45  PRO45       0.0310
     47  CG         9.7280   -5.9500   11.0250 C.3    45  PRO45       0.0237
     48  CD         8.4290   -5.5270   10.4070 C.3    45  PRO45       0.0939
     49  N         11.1670   -6.7450    6.6740 N.am   46  VAL46      -0.1964
     50  CA        11.2970   -7.6300    5.5290 C.3    46  VAL46       0.1727
     51  C         11.2430   -9.0930    6.0010 C.2    46  VAL46       0.2616
     52  O         12.0480   -9.5230    6.8470 O.2    46  VAL46      -0.2715
     53  CB        12.6080   -7.3490    4.7730 C.3    46  VAL46       0.0290
     54  CG1       12.8850   -8.4270    3.7510 C.3    46  VAL46       0.0023
     55  CG2       12.5670   -5.9840    4.1150 C.3    46  VAL46       0.0023
     56  N         10.2880   -9.8450    5.4780 N.am   47  ASP47      -0.1971
     57  CA        10.2000  -11.2710    5.7400 C.3    47  ASP47       0.1709
     58  C         11.0370  -11.9810    4.6820 C.2    47  ASP47       0.2293
     59  O         10.5740  -12.2780    3.5670 O.2    47  ASP47      -0.2864
     60  CB         8.7510  -11.7210    5.6930 C.3    47  ASP47       0.1436
     61  CG         8.5880  -13.2070    5.9950 C.2    47  ASP47       0.3671
     62  OD1        9.5890  -13.9330    5.9720 O.co2  47  ASP47      -0.2456
     63  OD2        7.4500  -13.6360    6.2260 O.co2  47  ASP47      -0.2456
     64  N          9.6830  -14.1290    1.3090 N.3    51  LEU51      -0.1231
     65  CA        10.1290  -13.4850    0.0710 C.3    51  LEU51       0.1693
     66  C         11.3090  -14.1940   -0.5750 C.2    51  LEU51       0.2592
     67  O         11.7500  -13.8110   -1.6430 O.2    51  LEU51      -0.2718
     68  CB        10.5010  -12.0220    0.3150 C.3    51  LEU51       0.0284
     69  CG         9.3420  -11.1390    0.7720 C.3    51  LEU51       0.0019
     70  CD1        9.8540   -9.7880    1.2110 C.3    51  LEU51       0.0001
     71  CD2        8.3070  -10.9660   -0.3270 C.3    51  LEU51       0.0001
     72  N         11.8210  -15.2560    0.0570 N.am   52  ASN52      -0.1960
     73  CA        12.9380  -16.0270   -0.4950 C.3    52  ASN52       0.1819
     74  C         14.1380  -15.1160   -0.7860 C.2    52  ASN52       0.2621
     75  O         14.6600  -15.0830   -1.8990 O.2    52  ASN52      -0.2715
     76  CB        12.5120  -16.7740   -1.7680 C.3    52  ASN52       0.1195
     77  CG        13.5970  -17.6680   -2.2930 C.2    52  ASN52       0.2630
     78  OD1       14.3770  -18.2070   -1.5190 O.2    52  ASN52      -0.2716
     79  ND2       13.6650  -17.8290   -3.6150 N.am   52  ASN52      -0.0877
     80  N         14.5640  -14.3890    0.2410 N.am   53  LEU53      -0.1977
     81  CA        15.7170  -13.4900    0.1760 C.3    53  LEU53       0.1596
     82  C         16.7510  -13.9300    1.2340 C.2    53  LEU53       0.2287
     83  O         17.0260  -13.2250    2.1960 O.2    53  LEU53      -0.2864
     84  CB        15.2910  -12.0410    0.4360 C.3    53  LEU53       0.0297
     85  CG        14.1620  -11.5090   -0.4410 C.3    53  LEU53       0.0022
     86  CD1       13.7480  -10.1500    0.0710 C.3    53  LEU53       0.0001
     87  CD2       14.5820  -11.4210   -1.9150 C.3    53  LEU53       0.0001
     88  N         19.3530  -11.5000    2.4400 N.3    56  TYR56      -0.1241
     89  CA        18.9420  -10.1490    2.8590 C.3    56  TYR56       0.1605
     90  C         19.6260   -9.7350    4.1480 C.2    56  TYR56       0.2264
     91  O         20.2110   -8.6640    4.2170 O.2    56  TYR56      -0.2867
     92  CB        17.4110  -10.0290    2.9810 C.3    56  TYR56       0.0534
     93  CG        16.9720   -8.6110    3.2390 C.ar   56  TYR56      -0.0201
     94  CD1       16.7950   -7.7200    2.1940 C.ar   56  TYR56      -0.0009
     95  CD2       16.8100   -8.1340    4.5330 C.ar   56  TYR56      -0.0009
     96  CE1       16.4650   -6.4080    2.4380 C.ar   56  TYR56       0.0417
     97  CE2       16.4710   -6.8180    4.7770 C.ar   56  TYR56       0.0417
     98  CZ        16.2980   -5.9620    3.7240 C.ar   56  TYR56       0.1957
     99  OH        15.9960   -4.6510    3.9710 O.3    56  TYR56      -0.2866
    100  N         17.2490   -0.4490    1.3670 N.3    95  CYS95      -0.1235
    101  CA        16.6130   -0.8190    0.1160 C.3    95  CYS95       0.1677
    102  C         17.5740   -0.6250   -1.0590 C.2    95  CYS95       0.2270
    103  O         17.6740   -1.4990   -1.9300 O.2    95  CYS95      -0.2867
    104  CB        15.3390   -0.0100   -0.0620 C.3    95  CYS95       0.0956
    105  SG        14.3460   -0.4710   -1.4720 S.3    95  CYS95      -0.0801
    106  N         20.5410   -3.2560   -0.9070 N.3    98  TYR98      -0.1227
    107  CA        20.2330   -4.6510   -1.2440 C.3    98  TYR98       0.1736
    108  C         19.8820   -4.8240   -2.7420 C.2    98  TYR98       0.2595
    109  O         20.2880   -5.7720   -3.3730 O.2    98  TYR98      -0.2718
    110  CB        19.0900   -5.1940   -0.3380 C.3    98  TYR98       0.0548
    111  CG        18.7840   -6.6250   -0.6540 C.ar   98  TYR98      -0.0200
    112  CD1       19.6020   -7.6310   -0.2160 C.ar   98  TYR98      -0.0009
    113  CD2       17.7180   -6.9540   -1.4690 C.ar   98  TYR98      -0.0009
    114  CE1       19.3710   -8.9430   -0.5870 C.ar   98  TYR98       0.0417
    115  CE2       17.4840   -8.2490   -1.8290 C.ar   98  TYR98       0.0417
    116  CZ        18.3170   -9.2440   -1.3950 C.ar   98  TYR98       0.1957
    117  OH        18.0930  -10.5590   -1.7700 O.3    98  TYR98      -0.2866
    118  N         19.0870   -3.9050   -3.2640 N.am   99  ASN99      -0.1974
    119  CA        18.5060   -4.0150   -4.5930 C.3    99  ASN99       0.1688
    120  C         19.3530   -3.2980   -5.6490 C.2    99  ASN99       0.2292
    121  O         20.4590   -2.9390   -5.4020 O.2    99  ASN99      -0.2864
    122  CB        17.0780   -3.4670   -4.5340 C.3    99  ASN99       0.1181
    123  CG        16.1890   -4.3150   -3.6540 C.2    99  ASN99       0.2629
    124  OD1       15.8040   -5.4110   -4.0270 O.2    99  ASN99      -0.2716
    125  ND2       15.8620   -3.8090   -2.4830 N.am   99  ASN99      -0.0877
    126  N         15.0240   -1.0640  -10.0040 N.3   103  ASP103     -0.1225
    127  CA        14.1150   -2.0870   -9.5190 C.3   103  ASP103      0.1805
    128  C         12.8650   -1.3730   -9.0250 C.2   103  ASP103      0.2598
    129  O         12.9310   -0.2830   -8.4630 O.2   103  ASP103     -0.2718
    130  CB        14.6960   -2.8780   -8.3430 C.3   103  ASP103      0.1424
    131  CG        15.7180   -3.9030   -8.7380 C.2   103  ASP103      0.3668
    132  OD1       15.8190   -4.2600   -9.9360 O.co2 103  ASP103     -0.2456
    133  OD2       16.4120   -4.3870   -7.8000 O.co2 103  ASP103     -0.2456
    134  N         11.7180   -1.9930   -9.1940 N.am  104  ASP104     -0.1960
    135  CA        10.4650   -1.4270   -8.7080 C.3   104  ASP104      0.1840
    136  C         10.5880   -1.0010   -7.2620 C.2   104  ASP104      0.2621
    137  O         10.1310    0.0630   -6.8880 O.2   104  ASP104     -0.2715
    138  CB         9.3130   -2.4530   -8.8010 C.3   104  ASP104      0.1450
    139  CG         8.7470   -2.5950  -10.1830 C.2   104  ASP104      0.3671
    140  OD1        9.0720   -1.7520  -11.0510 O.co2 104  ASP104     -0.2456
    141  OD2        7.9750   -3.5710  -10.4150 O.co2 104  ASP104     -0.2456
    142  N         11.1340   -1.8750   -6.4250 N.am  105  ILE105     -0.1977
    143  CA        11.1910   -1.5550   -5.0010 C.3   105  ILE105      0.1596
    144  C         12.0330   -0.3060   -4.7390 C.2   105  ILE105      0.2287
    145  O         11.7420    0.4490   -3.8150 O.2   105  ILE105     -0.2864
    146  CB        11.6610   -2.7630   -4.1530 C.3   105  ILE105      0.0276
    147  CG1       11.5120   -2.4760   -2.6370 C.3   105  ILE105      0.0022
    148  CG2       13.0930   -3.1490   -4.4810 C.3   105  ILE105      0.0022
    149  CD1       10.0670   -2.2420   -2.1550 C.3   105  ILE105      0.0001
    150  N          9.9580    2.6610   -5.5430 N.3   108  MET108     -0.1245
    151  CA         9.0190    2.8670   -4.4550 C.3   108  MET108      0.1570
    152  C          9.6830    3.6120   -3.2980 C.2   108  MET108      0.2261
    153  O          9.1390    4.5980   -2.7830 O.2   108  MET108     -0.2867
    154  CB         8.4520    1.5390   -4.0010 C.3   108  MET108      0.0387
    155  CG         7.5600    0.8840   -5.0690 C.3   108  MET108      0.0595
    156  SD         7.1340   -0.8380   -4.6370 S.3   108  MET108     -0.1393
    157  CE         5.5880   -0.5940   -3.8050 C.3   108  MET108      0.0692
@<TRIPOS>BOND
     1   140   139   ar
     2   141   139   ar
     3   139   138    1
     4   126   127    1
     5   132   131   ar
     6   127   128    1
     7   127   130    1
     8   134   128   am
     9   134   135    1
    10   128   129    2
    11   138   135    1
    12   131   130    1
    13   131   133   ar
    14   135   136    1
    15   136   137    2
    16   136   142   am
    17   142   143    1
    18   120   121    2
    19   120   119    1
    20   150   151    1
    21   155   156    1
    22   155   154    1
    23   143   144    1
    24   143   146    1
    25   144   145    2
    26   156   157    1
    27   119   122    1
    28   119   118    1
    29   122   123    1
    30   148   146    1
    31   151   154    1
    32   151   152    1
    33   146   147    1
    34   124   123    2
    35   123   125   am
    36    79    77   am
    37   109   108    2
    38   152   153    2
    39   118   108   am
    40    12    14   ar
    41    12    10   ar
    42   108   107    1
    43   147   149    1
    44    14    13   ar
    45     9    10   ar
    46     9     7   ar
    47    10     8   ar
    48    77    76    1
    49    77    78    2
    50   103   102    2
    51    87    85    1
    52    75    74    2
    53   115   113   ar
    54   115   116   ar
    55   117   116    1
    56    76    73    1
    57    67    66    2
    58   105   104    1
    59   113   111   ar
    60   116   114   ar
    61     7     6   ar
    62    13    11   ar
    63   107   106    1
    64   107   110    1
    65   102   101    1
    66     8    11   ar
    67     8     6   ar
    68    20    21    1
    69    20    19    1
    70    74    73    1
    71    74    80   am
    72   111   110    1
    73   111   112   ar
    74   114   112   ar
    75    66    72   am
    76    66    65    1
    77    73    72    1
    78    85    86    1
    79    85    84    1
    80     6     5    1
    81    71    69    1
    82    21    15    1
    83   104   101    1
    84    31    32   ar
    85    31    29   ar
    86    32    30   ar
    87    65    68    1
    88    65    64    1
    89   101   100    1
    90    81    80    1
    91    81    84    1
    92    81    82    1
    93    19    16    1
    94    68    69    1
    95    69    70    1
    96     5     2    1
    97    15    16    1
    98    15     3   am
    99    29    27   ar
   100    30    28   ar
   101    82    83    2
   102     1     2    1
   103    16    17    1
   104     2     3    1
   105     3     4    2
   106    94    96   ar
   107    94    93   ar
   108    27    28   ar
   109    27    26    1
   110    96    98   ar
   111    88    89    1
   112    17    22   am
   113    17    18    2
   114    89    92    1
   115    89    90    1
   116    92    93    1
   117    22    23    1
   118    93    95   ar
   119    59    58    2
   120    26    23    1
   121    98    99    1
   122    98    97   ar
   123    54    53    1
   124    55    53    1
   125    23    24    1
   126    90    91    2
   127    95    97   ar
   128    58    57    1
   129    53    50    1
   130    41    39   am
   131    24    25    2
   132    56    57    1
   133    56    51   am
   134    50    51    1
   135    50    49    1
   136    60    57    1
   137    60    61    1
   138    62    61   ar
   139    61    63   ar
   140    51    52    2
   141    39    40    2
   142    39    38    1
   143    49    44   am
   144    36    35    2
   145    45    44    2
   146    38    37    1
   147    44    43    1
   148    33    34    1
   149    35    34    1
   150    35    42   am
   151    34    37    1
   152    43    42    1
   153    43    46    1
   154    42    48    1
   155    46    47    1
   156    48    47    1
