@<TRIPOS>MOLECULE
tmp/5wmgA00.pdb
 135 131 0 0 0
SMALL
GASTEIGER

@<TRIPOS>ATOM
      1  N        -17.3230   -7.6140    7.4850 N.3    40  TRP40      -0.1228
      2  CA       -17.5070   -8.9530    8.0430 C.3    40  TRP40       0.1722
      3  C        -16.3100   -9.9130    7.9180 C.2    40  TRP40       0.2437
      4  O        -16.0590  -10.6690    8.8520 O.2    40  TRP40      -0.2733
      5  CB       -18.8070   -9.5990    7.5380 C.3    40  TRP40       0.0563
      6  CG       -18.8920   -9.7380    6.0510 C.ar   40  TRP40       0.0003
      7  CD1      -19.3590   -8.8130    5.1690 C.ar   40  TRP40       0.0946
      8  CD2      -18.4910  -10.8710    5.2720 C.ar   40  TRP40       0.0152
      9  NE1      -19.2710   -9.2930    3.8880 N.ar   40  TRP40      -0.2442
     10  CE2      -18.7420  -10.5570    3.9220 C.ar   40  TRP40       0.0810
     11  CE3      -17.9450  -12.1190    5.5800 C.ar   40  TRP40       0.0012
     12  CZ2      -18.4740  -11.4490    2.8850 C.ar   40  TRP40       0.0191
     13  CZ3      -17.6750  -13.0020    4.5480 C.ar   40  TRP40       0.0001
     14  CH2      -17.9410  -12.6630    3.2190 C.ar   40  TRP40       0.0015
     15  N        -15.5480   -9.8790    6.8000 N.am   41  PRO41      -0.2718
     16  CA       -14.3970  -10.7930    6.7720 C.3    41  PRO41       0.1535
     17  C        -13.3100  -10.4360    7.7860 C.2    41  PRO41       0.2598
     18  O        -12.4230  -11.2480    8.0370 O.2    41  PRO41      -0.2715
     19  CB       -13.8530  -10.6410    5.3410 C.3    41  PRO41       0.0310
     20  CG       -14.9880  -10.0440    4.5470 C.3    41  PRO41       0.0237
     21  CD       -15.6810   -9.1440    5.5270 C.3    41  PRO41       0.0939
     22  N        -13.3910   -9.2310    8.3460 N.am   42  PHE42      -0.1974
     23  CA       -12.3780   -8.7100    9.2560 C.3    42  PHE42       0.1639
     24  C        -12.8530   -8.6960   10.7080 C.2    42  PHE42       0.2290
     25  O        -12.1610   -8.1830   11.5810 O.2    42  PHE42      -0.2864
     26  CB       -11.9930   -7.2930    8.8150 C.3    42  PHE42       0.0560
     27  CG       -11.5220   -7.2250    7.3900 C.ar   42  PHE42      -0.0200
     28  CD1      -10.1980   -7.4570    7.0710 C.ar   42  PHE42      -0.0042
     29  CD2      -12.4170   -6.9770    6.3630 C.ar   42  PHE42      -0.0042
     30  CE1       -9.7690   -7.4220    5.7520 C.ar   42  PHE42      -0.0003
     31  CE2      -11.9950   -6.9400    5.0450 C.ar   42  PHE42      -0.0003
     32  CZ       -10.6750   -7.1680    4.7400 C.ar   42  PHE42      -0.0000
     33  N        -13.3830  -11.2600   12.7320 N.3    44  GLN44      -0.1245
     34  CA       -12.8840  -12.3860   13.5130 C.3    44  GLN44       0.1566
     35  C        -11.6110  -12.8940   12.8540 C.2    44  GLN44       0.2260
     36  O        -11.3470  -12.5820   11.6930 O.2    44  GLN44      -0.2867
     37  CB       -13.9280  -13.5090   13.6010 C.3    44  GLN44       0.0367
     38  CG       -14.3600  -14.0850   12.2590 C.3    44  GLN44       0.0905
     39  CD       -15.2570  -13.1420   11.4790 C.2    44  GLN44       0.2608
     40  OE1      -16.2690  -12.6680   11.9930 O.2    44  GLN44      -0.2717
     41  NE2      -14.8910  -12.8660   10.2300 N.am   44  GLN44      -0.0878
     42  N         -8.9950  -15.0610   10.7670 N.3    46  VAL46      -0.1245
     43  CA        -9.1290  -15.8960    9.5820 C.3    46  VAL46       0.1561
     44  C         -9.1480  -17.3690    9.9910 C.2    46  VAL46       0.2260
     45  O         -8.1940  -17.8670   10.5850 O.2    46  VAL46      -0.2867
     46  CB        -7.9790  -15.6350    8.5940 C.3    46  VAL46       0.0252
     47  CG1       -8.0050  -16.6370    7.4470 C.3    46  VAL46       0.0019
     48  CG2       -8.0550  -14.2110    8.0680 C.3    46  VAL46       0.0019
     49  N        -11.5710  -23.6910    7.9470 N.3    50  LYS50      -0.1231
     50  CA       -12.9060  -23.5930    7.3660 C.3    50  LYS50       0.1693
     51  C        -12.8490  -23.0410    5.9430 C.2    50  LYS50       0.2591
     52  O        -13.5920  -23.4800    5.0650 O.2    50  LYS50      -0.2718
     53  CB       -13.7930  -22.7010    8.2400 C.3    50  LYS50       0.0285
     54  CG       -15.2440  -22.6380    7.7960 C.3    50  LYS50       0.0035
     55  CD       -16.0210  -21.5780    8.5630 C.3    50  LYS50       0.0206
     56  CE       -16.3530  -20.3910    7.6810 C.3    50  LYS50       0.1093
     57  NZ       -17.6450  -19.7720    8.0640 N.3    50  LYS50      -0.1314
     58  N        -11.9580  -22.0820    5.7180 N.am   51  LEU51      -0.1980
     59  CA       -11.8590  -21.4120    4.4260 C.3    51  LEU51       0.1596
     60  C        -10.9170  -22.1340    3.4670 C.2    51  LEU51       0.2287
     61  O        -10.7400  -21.7040    2.3250 O.2    51  LEU51      -0.2864
     62  CB       -11.3920  -19.9660    4.6130 C.3    51  LEU51       0.0297
     63  CG       -12.3450  -19.0450    5.3740 C.3    51  LEU51       0.0022
     64  CD1      -11.6570  -17.7280    5.6860 C.3    51  LEU51       0.0001
     65  CD2      -13.6170  -18.8050    4.5720 C.3    51  LEU51       0.0001
     66  N         -7.5390  -22.5010    3.5240 N.3    53  LEU53      -0.1245
     67  CA        -6.3840  -21.6680    3.1990 C.3    53  LEU53       0.1561
     68  C         -5.1430  -22.2020    3.9080 C.2    53  LEU53       0.2260
     69  O         -4.6400  -21.5830    4.8450 O.2    53  LEU53      -0.2867
     70  CB        -6.6180  -20.2200    3.6390 C.3    53  LEU53       0.0270
     71  CG        -7.9250  -19.5490    3.2150 C.3    53  LEU53       0.0019
     72  CD1       -8.0440  -18.1820    3.8750 C.3    53  LEU53       0.0001
     73  CD2       -8.0100  -19.4220    1.7010 C.3    53  LEU53       0.0001
     74  N         -2.1830  -19.8070    4.6610 N.3    56  TYR56      -0.1241
     75  CA        -2.4040  -18.5100    5.2910 C.3    56  TYR56       0.1605
     76  C         -1.4470  -18.2750    6.4640 C.2    56  TYR56       0.2264
     77  O         -0.7420  -17.2620    6.5040 O.2    56  TYR56      -0.2867
     78  CB        -3.8610  -18.3330    5.7400 C.3    56  TYR56       0.0534
     79  CG        -4.1070  -16.9280    6.2260 C.ar   56  TYR56      -0.0201
     80  CD1       -4.4180  -15.9070    5.3380 C.ar   56  TYR56      -0.0009
     81  CD2       -3.9710  -16.6110    7.5680 C.ar   56  TYR56      -0.0009
     82  CE1       -4.6130  -14.6110    5.7800 C.ar   56  TYR56       0.0417
     83  CE2       -4.1610  -15.3210    8.0200 C.ar   56  TYR56       0.0417
     84  CZ        -4.4780  -14.3240    7.1210 C.ar   56  TYR56       0.1957
     85  OH        -4.6580  -13.0390    7.5720 O.3    56  TYR56      -0.2866
     86  N         -3.7080   -8.5260    4.8830 N.3    95  CYS95      -0.1235
     87  CA        -4.5870   -8.7470    3.7500 C.3    95  CYS95       0.1677
     88  C         -3.8410   -8.4700    2.4450 C.2    95  CYS95       0.2270
     89  O         -3.9810   -9.2070    1.4670 O.2    95  CYS95      -0.2867
     90  CB        -5.8240   -7.8520    3.8770 C.3    95  CYS95       0.0956
     91  SG        -7.1110   -8.1810    2.6440 S.3    95  CYS95      -0.0801
     92  N         -1.1540  -11.4250    1.8010 N.3    98  TYR98      -0.1227
     93  CA        -1.6650  -12.7470    1.4420 C.3    98  TYR98       0.1736
     94  C         -2.4190  -12.7600    0.1080 C.2    98  TYR98       0.2595
     95  O         -2.4170  -13.7680   -0.6000 O.2    98  TYR98      -0.2718
     96  CB        -2.5710  -13.3140    2.5510 C.3    98  TYR98       0.0548
     97  CG        -3.0960  -14.6810    2.1800 C.ar   98  TYR98      -0.0200
     98  CD1       -2.2980  -15.8070    2.3080 C.ar   98  TYR98      -0.0009
     99  CD2       -4.3730  -14.8400    1.6600 C.ar   98  TYR98      -0.0009
    100  CE1       -2.7560  -17.0570    1.9320 C.ar   98  TYR98       0.0417
    101  CE2       -4.8430  -16.0830    1.2850 C.ar   98  TYR98       0.0417
    102  CZ        -4.0310  -17.1900    1.4220 C.ar   98  TYR98       0.1957
    103  OH        -4.4860  -18.4370    1.0430 O.3    98  TYR98      -0.2866
    104  N         -3.0700  -11.6590   -0.2230 N.am   99  ASN99      -0.1974
    105  CA        -3.9280  -11.5730   -1.3990 C.3    99  ASN99       0.1688
    106  C         -3.3460  -10.6660   -2.4720 C.2    99  ASN99       0.2292
    107  O         -2.7130   -9.6820   -2.1880 O.2    99  ASN99      -0.2864
    108  CB        -5.3060  -11.0530   -0.9990 C.3    99  ASN99       0.1181
    109  CG        -5.9570  -11.9010    0.0750 C.2    99  ASN99       0.2629
    110  OD1       -6.5040  -12.9490   -0.1970 O.2    99  ASN99      -0.2716
    111  ND2       -5.8790  -11.4340    1.3050 N.am   99  ASN99      -0.0877
    112  N        -10.9450   -9.0630   -4.7320 N.3   104  ASP104     -0.1225
    113  CA       -12.1280   -8.5850   -4.0200 C.3   104  ASP104      0.1805
    114  C        -11.8340   -8.2370   -2.5650 C.2   104  ASP104      0.2597
    115  O        -12.1920   -7.1600   -2.0860 O.2   104  ASP104     -0.2718
    116  CB       -13.2200   -9.6570   -4.0290 C.3   104  ASP104      0.1424
    117  CG       -13.6440  -10.0680   -5.4250 C.2   104  ASP104      0.3668
    118  OD1      -13.5010   -9.2610   -6.3660 O.co2 104  ASP104     -0.2456
    119  OD2      -14.1330  -11.2090   -5.5720 O.co2 104  ASP104     -0.2456
    120  N        -11.1840   -9.1540   -1.8570 N.am  105  ILE105     -0.1980
    121  CA       -10.9390   -8.9600   -0.4330 C.3   105  ILE105      0.1595
    122  C        -10.0010   -7.7700   -0.1900 C.2   105  ILE105      0.2287
    123  O        -10.1120   -7.0690    0.8240 O.2   105  ILE105     -0.2864
    124  CB       -10.3920  -10.2590    0.2250 C.3   105  ILE105      0.0276
    125  CG1      -10.3850  -10.1500    1.7520 C.3   105  ILE105      0.0022
    126  CG2       -8.9980  -10.5910   -0.2800 C.3   105  ILE105      0.0022
    127  CD1      -11.7620  -10.1070    2.3810 C.3   105  ILE105      0.0001
    128  N        -11.9920   -4.6020   -0.4860 N.3   108  MET108     -0.1245
    129  CA       -12.7560   -4.4470    0.7450 C.3   108  MET108      0.1570
    130  C        -11.8790   -3.8510    1.8410 C.2   108  MET108      0.2261
    131  O        -12.2660   -2.8860    2.5020 O.2   108  MET108     -0.2867
    132  CB       -13.3220   -5.8000    1.1740 C.3   108  MET108      0.0387
    133  CG       -14.3820   -6.3220    0.2120 C.3   108  MET108      0.0595
    134  SD       -14.9240   -8.0170    0.5080 S.3   108  MET108     -0.1393
    135  CE       -16.0550   -7.7720    1.8510 C.3   108  MET108      0.0692
@<TRIPOS>BOND
     1   118   117   ar
     2   119   117   ar
     3   117   116    1
     4   112   113    1
     5   116   113    1
     6   113   114    1
     7   114   115    2
     8   114   120   am
     9   106   107    2
    10   106   105    1
    11   120   121    1
    12   105   108    1
    13   105   104    1
    14   108   109    1
    15    95    94    2
    16   128   129    1
    17   121   122    1
    18   121   124    1
    19   126   124    1
    20   104    94   am
    21   110   109    2
    22   122   123    2
    23   109   111   am
    24    94    93    1
    25   133   134    1
    26   133   132    1
    27   124   125    1
    28   134   135    1
    29   129   132    1
    30   129   130    1
    31   103   102    1
    32   101   102   ar
    33   101    99   ar
    34   102   100   ar
    35    93    92    1
    36    93    96    1
    37    89    88    2
    38    99    97   ar
    39    73    71    1
    40   125   127    1
    41   130   131    2
    42   100    98   ar
    43    97    98   ar
    44    97    96    1
    45    61    60    2
    46    88    87    1
    47    91    90    1
    48    12    14   ar
    49    12    10   ar
    50    67    66    1
    51    67    70    1
    52    67    68    1
    53    71    70    1
    54    71    72    1
    55    14    13   ar
    56    60    59    1
    57    87    90    1
    58    87    86    1
    59     9    10   ar
    60     9     7   ar
    61    68    69    2
    62    10     8   ar
    63    59    62    1
    64    59    58    1
    65    20    19    1
    66    20    21    1
    67    13    11   ar
    68    65    63    1
    69    62    63    1
    70    74    75    1
    71    32    31   ar
    72    32    30   ar
    73    31    29   ar
    74    52    51    2
    75     7     6   ar
    76     8    11   ar
    77     8     6   ar
    78    75    78    1
    79    75    76    1
    80    80    82   ar
    81    80    79   ar
    82    19    16    1
    83    63    64    1
    84    21    15    1
    85    58    51   am
    86    78    79    1
    87    30    28   ar
    88    82    84   ar
    89    51    50    1
    90     6     5    1
    91    79    81   ar
    92    29    27   ar
    93    76    77    2
    94    16    15    1
    95    16    17    1
    96    15     3   am
    97    28    27   ar
    98    84    85    1
    99    84    83   ar
   100    50    49    1
   101    50    53    1
   102    27    26    1
   103    47    46    1
   104     1     2    1
   105     5     2    1
   106    81    83   ar
   107    56    57    1
   108    56    55    1
   109    17    18    2
   110    17    22   am
   111    54    53    1
   112    54    55    1
   113     3     2    1
   114     3     4    2
   115    48    46    1
   116    22    23    1
   117    46    43    1
   118    26    23    1
   119    23    24    1
   120    43    44    1
   121    43    42    1
   122    44    45    2
   123    41    39   am
   124    24    25    2
   125    39    40    2
   126    39    38    1
   127    36    35    2
   128    38    37    1
   129    33    34    1
   130    35    34    1
   131    34    37    1
