@<TRIPOS>MOLECULE
tmp/5wmiA00.pdb
 131 125 0 0 0
SMALL
GASTEIGER

@<TRIPOS>ATOM
      1  N          6.5180    2.9400   47.3200 N.3    15  VAL15      -0.1231
      2  CA         6.5650    1.5510   47.7650 C.3    15  VAL15       0.1692
      3  C          5.9430    0.6310   46.7070 C.2    15  VAL15       0.2591
      4  O          6.5530   -0.3450   46.2610 O.2    15  VAL15      -0.2718
      5  CB         5.8420    1.3740   49.1040 C.3    15  VAL15       0.0266
      6  CG1        5.4210   -0.0960   49.3170 C.3    15  VAL15       0.0020
      7  CG2        6.7210    1.8870   50.2380 C.3    15  VAL15       0.0020
      8  N          4.7360    0.9740   46.2840 N.am   16  MET16      -0.1979
      9  CA         4.0390    0.1960   45.2720 C.3    16  MET16       0.1605
     10  C          4.6940    0.3000   43.8850 C.2    16  MET16       0.2287
     11  O          4.7640   -0.6860   43.1440 O.2    16  MET16      -0.2864
     12  CB         2.5790    0.6400   45.2210 C.3    16  MET16       0.0413
     13  CG         1.9860    0.8610   46.6140 C.3    16  MET16       0.0598
     14  SD         0.3180    0.1960   46.7880 S.3    16  MET16      -0.1393
     15  CE        -0.3900    0.8310   45.2800 C.3    16  MET16       0.0692
     16  N          8.2900   -3.7150   49.1080 N.3    36  ALA36      -0.1231
     17  CA         7.0330   -3.8590   49.8330 C.3    36  ALA36       0.1694
     18  C          7.1760   -4.8360   50.9950 C.2    36  ALA36       0.2593
     19  O          7.9130   -5.8180   50.9060 O.2    36  ALA36      -0.2718
     20  CB         5.9260   -4.3080   48.8920 C.3    36  ALA36       0.0304
     21  N          6.4650   -4.5610   52.0840 N.am   37  GLY37      -0.1942
     22  CA         6.5100   -5.4080   53.2560 C.3    37  GLY37       0.2014
     23  C          5.3560   -6.3940   53.3010 C.2    37  GLY37       0.2638
     24  O          4.3100   -6.1100   53.8900 O.2    37  GLY37      -0.2714
     25  N          5.5580   -7.5570   52.6830 N.am   38  GLU38      -0.1977
     26  CA         4.5510   -8.6150   52.6410 C.3    38  GLU38       0.1602
     27  C          5.1130   -9.9180   53.2050 C.2    38  GLU38       0.2287
     28  O          6.0950  -10.4520   52.6780 O.2    38  GLU38      -0.2864
     29  CB         4.0610   -8.8410   51.2050 C.3    38  GLU38       0.0415
     30  CG         3.7950   -7.5650   50.4040 C.3    38  GLU38       0.1163
     31  CD         2.6730   -6.7120   50.9830 C.2    38  GLU38       0.3649
     32  OE1        1.8640   -7.2350   51.7760 O.co2  38  GLU38      -0.2457
     33  OE2        2.5980   -5.5120   50.6410 O.co2  38  GLU38      -0.2457
     34  N         -6.2090   -1.6450   56.5300 N.3    98  ALA98      -0.1231
     35  CA        -5.9570   -0.5290   57.4260 C.3    98  ALA98       0.1694
     36  C         -5.8220    0.8000   56.7030 C.2    98  ALA98       0.2591
     37  O         -5.9370    1.8510   57.3180 O.2    98  ALA98      -0.2718
     38  CB        -4.7090   -0.7990   58.2530 C.3    98  ALA98       0.0304
     39  N         -5.5630    0.7600   55.4020 N.am   99  LYS99      -0.1980
     40  CA        -5.4080    1.9850   54.6330 C.3    99  LYS99       0.1596
     41  C         -6.7310    2.7260   54.5600 C.2    99  LYS99       0.2287
     42  O         -6.7960    3.9460   54.7350 O.2    99  LYS99      -0.2864
     43  CB        -4.8850    1.6670   53.2280 C.3    99  LYS99       0.0298
     44  CG        -4.3710    2.8670   52.4760 C.3    99  LYS99       0.0038
     45  CD        -3.0250    2.5760   51.8300 C.3    99  LYS99       0.0206
     46  CE        -3.0910    1.3800   50.9080 C.3    99  LYS99       0.1093
     47  NZ        -1.7520    1.0900   50.3050 N.3    99  LYS99      -0.1314
     48  N          5.1400    6.3780   57.3250 N.3   123  TRP123     -0.1227
     49  CA         4.5250    5.5580   56.3020 C.3   123  TRP123      0.1737
     50  C          3.9790    6.4740   55.2040 C.2   123  TRP123      0.2595
     51  O          3.4440    7.5430   55.4930 O.2   123  TRP123     -0.2718
     52  CB         3.4310    4.6900   56.9000 C.3   123  TRP123      0.0564
     53  CG         2.7810    3.8060   55.9010 C.ar  123  TRP123      0.0003
     54  CD1        3.4020    2.9580   55.0280 C.ar  123  TRP123      0.0946
     55  CD2        1.3800    3.6670   55.6710 C.ar  123  TRP123      0.0152
     56  NE1        2.4670    2.3030   54.2630 N.ar  123  TRP123     -0.2442
     57  CE2        1.2180    2.7190   54.6410 C.ar  123  TRP123      0.0810
     58  CE3        0.2450    4.2490   56.2360 C.ar  123  TRP123      0.0012
     59  CZ2       -0.0310    2.3460   54.1640 C.ar  123  TRP123      0.0191
     60  CZ3       -0.9940    3.8770   55.7630 C.ar  123  TRP123      0.0001
     61  CH2       -1.1240    2.9330   54.7380 C.ar  123  TRP123      0.0015
     62  N          4.1170    6.0500   53.9510 N.am  124  VAL124     -0.1980
     63  CA         3.9710    6.9590   52.8140 C.3   124  VAL124      0.1595
     64  C          2.5820    7.5780   52.6890 C.2   124  VAL124      0.2287
     65  O          2.4400    8.6810   52.1680 O.2   124  VAL124     -0.2864
     66  CB         4.3400    6.2460   51.4780 C.3   124  VAL124      0.0276
     67  CG1        5.6790    5.5680   51.6140 C.3   124  VAL124      0.0022
     68  CG2        3.2860    5.2280   51.0810 C.3   124  VAL124      0.0022
     69  N          6.4380    1.5860   60.7060 N.3   173  ASN173     -0.1240
     70  CA         6.8180    1.4620   59.3100 C.3   173  ASN173      0.1653
     71  C          7.2060    2.8970   58.9210 C.2   173  ASN173      0.2266
     72  O          6.3710    3.7960   59.0070 O.2   173  ASN173     -0.2867
     73  CB         5.6530    0.9190   58.4650 C.3   173  ASN173      0.1155
     74  CG         6.0380    0.6540   57.0120 C.2   173  ASN173      0.2627
     75  OD1        7.0770    1.1100   56.5350 O.2   173  ASN173     -0.2716
     76  ND2        5.1840   -0.0770   56.2950 N.am  173  ASN173     -0.0877
     77  N          1.5840   -3.4580   63.3440 N.3   205  TYR205     -0.1241
     78  CA         2.7500   -4.3520   63.5100 C.3   205  TYR205      0.1605
     79  C          2.9260   -4.8030   64.9620 C.2   205  TYR205      0.2264
     80  O          3.9660   -5.3490   65.3190 O.2   205  TYR205     -0.2867
     81  CB         4.0620   -3.6810   62.9940 C.3   205  TYR205      0.0534
     82  CG         4.0700   -3.5060   61.4960 C.ar  205  TYR205     -0.0201
     83  CD1        4.4580   -4.5440   60.6560 C.ar  205  TYR205     -0.0009
     84  CD2        3.6280   -2.3210   60.9120 C.ar  205  TYR205     -0.0009
     85  CE1        4.4150   -4.4000   59.2770 C.ar  205  TYR205      0.0417
     86  CE2        3.5880   -2.1700   59.5320 C.ar  205  TYR205      0.0417
     87  CZ         3.9970   -3.2110   58.7200 C.ar  205  TYR205      0.1957
     88  OH         3.9540   -3.0670   57.3490 O.3   205  TYR205     -0.2866
     89  N         -0.4580   -8.3110   58.5260 N.3   236  LYS236     -0.1245
     90  CA         0.9700   -8.4270   58.8100 C.3   236  LYS236      0.1561
     91  C          1.2370   -9.5620   59.7880 C.2   236  LYS236      0.2260
     92  O          2.1480  -10.3670   59.5890 O.2   236  LYS236     -0.2867
     93  CB         1.5360   -7.1150   59.3690 C.3   236  LYS236      0.0271
     94  CG         1.3520   -5.8950   58.4730 C.3   236  LYS236      0.0035
     95  CD         1.5570   -6.2480   57.0210 C.3   236  LYS236      0.0206
     96  CE         1.6820   -5.0090   56.1680 C.3   236  LYS236      0.1093
     97  NZ         1.9350   -5.4170   54.7710 N.3   236  LYS236     -0.1314
     98  N         -7.2210   -8.7610   53.1580 N.3   244  ARG244     -0.1245
     99  CA        -7.6150   -7.3740   53.3760 C.3   244  ARG244      0.1563
    100  C         -8.6460   -7.2620   54.4940 C.2   244  ARG244      0.2260
    101  O         -9.8510   -7.2920   54.2450 O.2   244  ARG244     -0.2867
    102  CB        -8.1690   -6.7660   52.0860 C.3   244  ARG244      0.0307
    103  CG        -7.1110   -6.1460   51.1880 C.3   244  ARG244      0.0489
    104  CD        -6.0540   -5.4170   52.0010 C.3   244  ARG244      0.2205
    105  NE        -4.7030   -5.7070   51.5290 N.pl3 244  ARG244     -0.0865
    106  CZ        -3.5950   -5.3000   52.1390 C.cat 244  ARG244      0.5346
    107  NH1       -3.6730   -4.5800   53.2500 N.pl3 244  ARG244      0.1354
    108  NH2       -2.4070   -5.6110   51.6380 N.pl3 244  ARG244      0.1354
    109  N         11.1790   -4.0530   58.8920 N.3   325  TYR325     -0.1241
    110  CA        11.9050   -3.1010   58.0560 C.3   325  TYR325      0.1605
    111  C         13.2050   -2.6320   58.6880 C.2   325  TYR325      0.2264
    112  O         13.2970   -2.4620   59.9160 O.2   325  TYR325     -0.2867
    113  CB        11.0440   -1.8780   57.7540 C.3   325  TYR325      0.0534
    114  CG         9.6810   -2.2410   57.2190 C.ar  325  TYR325     -0.0201
    115  CD1        9.5210   -2.6730   55.8990 C.ar  325  TYR325     -0.0009
    116  CD2        8.5600   -2.1560   58.0290 C.ar  325  TYR325     -0.0009
    117  CE1        8.2710   -3.0020   55.4120 C.ar  325  TYR325      0.0417
    118  CE2        7.3050   -2.4900   57.5550 C.ar  325  TYR325      0.0417
    119  CZ         7.1660   -2.9130   56.2540 C.ar  325  TYR325      0.1957
    120  OH         5.9220   -3.2360   55.7850 O.3   325  TYR325     -0.2866
    121  N         14.9550    2.0860   52.7510 N.3   375  ARG375     -0.1245
    122  CA        14.2660    1.0550   53.5140 C.3   375  ARG375      0.1563
    123  C         14.4170   -0.3060   52.8750 C.2   375  ARG375      0.2260
    124  O         14.1910   -0.4620   51.6680 O.2   375  ARG375     -0.2867
    125  CB        12.7690    1.3760   53.6550 C.3   375  ARG375      0.0307
    126  CG        12.0400    0.3810   54.5420 C.3   375  ARG375      0.0489
    127  CD        10.5150    0.5410   54.4990 C.3   375  ARG375      0.2205
    128  NE         9.9440   -0.2390   53.4000 N.pl3 375  ARG375     -0.0865
    129  CZ         8.6400   -0.3940   53.1820 C.cat 375  ARG375      0.5346
    130  NH1        7.7630    0.1770   53.9930 N.pl3 375  ARG375      0.1354
    131  NH2        8.2180   -1.1270   52.1560 N.pl3 375  ARG375      0.1354
@<TRIPOS>BOND
     1    11    10    2
     2    10     9    1
     3    12     9    1
     4    12    13    1
     5     9     8    1
     6    15    14    1
     7     4     3    2
     8     8     3   am
     9    13    14    1
    10     3     2    1
    11     1     2    1
    12     2     5    1
    13    20    17    1
    14     5     6    1
    15     5     7    1
    16    16    17    1
    17    17    18    1
    18    47    46    1
    19    30    31    1
    20    30    29    1
    21    33    31   ar
    22    19    18    2
    23    46    45    1
    24    31    32   ar
    25    18    21   am
    26    68    66    1
    27   103   104    1
    28   103   102    1
    29    29    26    1
    30    66    67    1
    31    66    63    1
    32   105   104    1
    33   105   106    2
    34   108   106    1
    35   124   123    2
    36    45    44    1
    37    21    22    1
    38   102    99    1
    39   106   107    1
    40   131   129    1
    41    65    64    2
    42    44    43    1
    43    26    25    1
    44    26    27    1
    45    28    27    2
    46    25    23   am
    47    64    63    1
    48   121   122    1
    49    63    62    1
    50   123   122    1
    51    98    99    1
    52   129   128    2
    53   129   130    1
    54    43    40    1
    55    22    23    1
    56    23    24    2
    57    99   100    1
    58   128   127    1
    59   122   125    1
    60   125   126    1
    61    62    50   am
    62    59    57   ar
    63    59    61   ar
    64   101   100    2
    65    56    57   ar
    66    56    54   ar
    67   127   126    1
    68    41    40    1
    69    41    42    2
    70    40    39    1
    71    57    55   ar
    72    61    60   ar
    73    97    96    1
    74    54    53   ar
    75    50    51    2
    76    50    49    1
    77    39    36   am
    78   117   115   ar
    79   117   119   ar
    80    55    53   ar
    81    55    58   ar
    82    60    58   ar
    83   120   119    1
    84   115   114   ar
    85    53    52    1
    86    96    95    1
    87   119   118   ar
    88    76    74   am
    89    49    52    1
    90    49    48    1
    91    34    35    1
    92    75    74    2
    93    36    37    2
    94    36    35    1
    95    74    73    1
    96    95    94    1
    97   114   113    1
    98   114   116   ar
    99    88    87    1
   100    35    38    1
   101   118   116   ar
   102   113   110    1
   103   110   111    1
   104   110   109    1
   105    73    70    1
   106    94    93    1
   107    89    90    1
   108   111   112    2
   109    87    85   ar
   110    87    86   ar
   111    90    93    1
   112    90    91    1
   113    71    72    2
   114    71    70    1
   115    85    83   ar
   116    70    69    1
   117    86    84   ar
   118    92    91    2
   119    83    82   ar
   120    84    82   ar
   121    82    81    1
   122    81    78    1
   123    77    78    1
   124    78    79    1
   125    79    80    2
