@<TRIPOS>MOLECULE
tmp/5wmkA00.pdb
 97 92 0 0 0
SMALL
GASTEIGER

@<TRIPOS>ATOM
      1  N         18.3990    2.7770   -1.8750 N.3    14  VAL14      -0.1245
      2  CA        18.3280    1.3650   -1.5150 C.3    14  VAL14       0.1561
      3  C         17.6020    0.5930   -2.6080 C.2    14  VAL14       0.2260
      4  O         18.0550   -0.4650   -3.0580 O.2    14  VAL14      -0.2867
      5  CB        17.6390    1.1900   -0.1520 C.3    14  VAL14       0.0252
      6  CG1       17.4330   -0.2980    0.1450 C.3    14  VAL14       0.0019
      7  CG2       18.4280    1.8840    0.9660 C.3    14  VAL14       0.0019
      8  N         19.9480   -3.8900   -0.0330 N.3    36  ALA36      -0.1231
      9  CA        18.7590   -3.9730    0.8030 C.3    36  ALA36       0.1694
     10  C         18.9420   -5.0150    1.9020 C.2    36  ALA36       0.2592
     11  O         19.5720   -6.0580    1.7000 O.2    36  ALA36      -0.2718
     12  CB        17.5370   -4.3200   -0.0460 C.3    36  ALA36       0.0304
     13  N         18.3850   -4.7210    3.0730 N.am   37  GLY37      -0.1957
     14  CA        18.5010   -5.6020    4.2190 C.3    37  GLY37       0.1869
     15  C         17.4570   -6.6920    4.2000 C.2    37  GLY37       0.2309
     16  O         16.3430   -6.4990    4.6950 O.2    37  GLY37      -0.2863
     17  N          6.4240    0.4700    6.1800 N.3    99  VAL99      -0.1245
     18  CA         6.6900    1.7440    5.5160 C.3    99  VAL99       0.1561
     19  C          5.3890    2.4980    5.2810 C.2    99  VAL99       0.2260
     20  O          5.3330    3.7280    5.4110 O.2    99  VAL99      -0.2867
     21  CB         7.4880    1.5230    4.2180 C.3    99  VAL99       0.0252
     22  CG1        7.7990    2.8600    3.5510 C.3    99  VAL99       0.0019
     23  CG2        8.7750    0.7720    4.5200 C.3    99  VAL99       0.0019
     24  N         16.9510    6.5200    8.1560 N.3   123  TRP123     -0.1241
     25  CA        16.4820    5.6040    7.1340 C.3   123  TRP123      0.1605
     26  C         16.0430    6.3940    5.9040 C.2   123  TRP123      0.2264
     27  O         15.5380    7.5120    6.0050 O.2   123  TRP123     -0.2867
     28  CB        15.3680    4.7040    7.6540 C.3   123  TRP123      0.0550
     29  CG        15.0040    3.7100    6.6220 C.ar  123  TRP123      0.0003
     30  CD1       15.8290    2.7950    6.0460 C.ar  123  TRP123      0.0946
     31  CD2       13.7290    3.5550    5.9990 C.ar  123  TRP123      0.0152
     32  NE1       15.1440    2.0680    5.1000 N.ar  123  TRP123     -0.2442
     33  CE2       13.8480    2.5120    5.0610 C.ar  123  TRP123      0.0810
     34  CE3       12.4940    4.1830    6.1580 C.ar  123  TRP123      0.0012
     35  CZ2       12.7780    2.0900    4.2780 C.ar  123  TRP123      0.0191
     36  CZ3       11.4340    3.7660    5.3770 C.ar  123  TRP123      0.0001
     37  CH2       11.5810    2.7280    4.4530 C.ar  123  TRP123      0.0015
     38  N         18.2130    1.5750   11.5070 N.3   173  ASN173     -0.1240
     39  CA        18.6780    1.4070   10.1460 C.3   173  ASN173      0.1653
     40  C         19.0080    2.8210    9.7010 C.2   173  ASN173      0.2266
     41  O         18.1010    3.6720    9.6860 O.2   173  ASN173     -0.2867
     42  CB        17.5270    0.8300    9.3190 C.3   173  ASN173      0.1155
     43  CG        17.8540    0.6660    7.8440 C.2   173  ASN173      0.2627
     44  OD1       18.8280    1.2260    7.3350 O.2   173  ASN173     -0.2716
     45  ND2       17.0180   -0.1000    7.1380 N.am  173  ASN173     -0.0877
     46  N         10.8010   -1.6900   14.1000 N.3   204  ILE204     -0.1231
     47  CA        10.7510   -2.8990   13.2760 C.3   204  ILE204      0.1692
     48  C         11.9310   -3.8410   13.5220 C.2   204  ILE204      0.2592
     49  O         11.8080   -5.0520   13.3080 O.2   204  ILE204     -0.2718
     50  CB        10.6000   -2.5340   11.7840 C.3   204  ILE204      0.0266
     51  CG1       10.3750   -3.7840   10.9370 C.3   204  ILE204      0.0019
     52  CG2       11.8050   -1.7610   11.2890 C.3   204  ILE204      0.0020
     53  CD1        8.9590   -4.3130   11.0150 C.3   204  ILE204      0.0001
     54  N         13.0960   -3.3200   13.9230 N.am  205  TYR205     -0.1976
     55  CA        14.2570   -4.1720   14.1790 C.3   205  TYR205      0.1639
     56  C         14.3600   -4.6410   15.6250 C.2   205  TYR205      0.2290
     57  O         15.3860   -5.2310   16.0030 O.2   205  TYR205     -0.2864
     58  CB        15.5630   -3.4830   13.7360 C.3   205  TYR205      0.0560
     59  CG        15.6590   -3.3590   12.2350 C.ar  205  TYR205     -0.0198
     60  CD1       16.1230   -4.4170   11.4660 C.ar  205  TYR205     -0.0009
     61  CD2       15.2520   -2.1990   11.5880 C.ar  205  TYR205     -0.0009
     62  CE1       16.1860   -4.3220   10.0850 C.ar  205  TYR205      0.0417
     63  CE2       15.2980   -2.0990   10.2020 C.ar  205  TYR205      0.0417
     64  CZ        15.7630   -3.1670    9.4610 C.ar  205  TYR205      0.1957
     65  OH        15.8260   -3.0760    8.0870 O.3   205  TYR205     -0.2866
     66  N         11.2840   -8.1810    9.2050 N.3   236  LYS236     -0.1245
     67  CA        12.6780   -8.3450    9.6010 C.3   236  LYS236      0.1561
     68  C         12.8590   -9.4670   10.6180 C.2   236  LYS236      0.2260
     69  O         13.7500  -10.3100   10.4610 O.2   236  LYS236     -0.2867
     70  CB        13.2280   -7.0160   10.1360 C.3   236  LYS236      0.0271
     71  CG        13.1240   -5.8680    9.1240 C.3   236  LYS236      0.0035
     72  CD        13.7110   -6.2660    7.7790 C.3   236  LYS236      0.0206
     73  CE        13.2080   -5.3810    6.6520 C.3   236  LYS236      0.1093
     74  NZ        13.4120   -3.9440    6.9540 N.3   236  LYS236     -0.1314
     75  N         22.9600   -4.1740    9.7770 N.3   325  TYR325     -0.1241
     76  CA        23.7230   -3.2670    8.9260 C.3   325  TYR325      0.1605
     77  C         24.9960   -2.8140    9.6250 C.2   325  TYR325      0.2264
     78  O         24.9990   -2.5640   10.8330 O.2   325  TYR325     -0.2867
     79  CB        22.9200   -2.0070    8.6030 C.3   325  TYR325      0.0534
     80  CG        21.5680   -2.3270    8.0360 C.ar  325  TYR325     -0.0201
     81  CD1       21.4250   -2.7100    6.7080 C.ar  325  TYR325     -0.0009
     82  CD2       20.4300   -2.2770    8.8340 C.ar  325  TYR325     -0.0009
     83  CE1       20.2020   -3.0250    6.1920 C.ar  325  TYR325      0.0417
     84  CE2       19.1940   -2.6000    8.3310 C.ar  325  TYR325      0.0417
     85  CZ        19.0830   -2.9690    7.0050 C.ar  325  TYR325      0.1957
     86  OH        17.8510   -3.2930    6.4890 O.3   325  TYR325     -0.2866
     87  N         26.7180    1.8800    3.7440 N.3   375  ARG375     -0.1245
     88  CA        25.9560    0.8640    4.4500 C.3   375  ARG375      0.1563
     89  C         26.1360   -0.4990    3.7950 C.2   375  ARG375      0.2260
     90  O         25.9400   -0.6480    2.5800 O.2   375  ARG375     -0.2867
     91  CB        24.4710    1.2210    4.4800 C.3   375  ARG375      0.0307
     92  CG        23.6980    0.4210    5.5430 C.3   375  ARG375      0.0489
     93  CD        22.1830    0.5770    5.4170 C.3   375  ARG375      0.2205
     94  NE        21.6730   -0.1810    4.2750 N.pl3 375  ARG375     -0.0865
     95  CZ        20.3780   -0.3160    3.9850 C.cat 375  ARG375      0.5346
     96  NH1       19.4600    0.2800    4.7350 N.pl3 375  ARG375      0.1354
     97  NH2       19.9970   -1.0230    2.9250 N.pl3 375  ARG375      0.1354
@<TRIPOS>BOND
     1     4     3    2
     2     3     2    1
     3     1     2    1
     4     2     5    1
     5     5     6    1
     6     5     7    1
     7    12     9    1
     8     8     9    1
     9     9    10    1
    10    11    10    2
    11    10    13   am
    12    90    89    2
    13    97    95    1
    14    13    14    1
    15    22    21    1
    16    87    88    1
    17    89    88    1
    18    95    94    2
    19    95    96    1
    20    15    14    1
    21    15    16    2
    22    21    23    1
    23    21    18    1
    24    94    93    1
    25    35    37   ar
    26    35    33   ar
    27    88    91    1
    28    37    36   ar
    29    91    92    1
    30    33    32   ar
    31    33    31   ar
    32    32    30   ar
    33    19    20    2
    34    19    18    1
    35    36    34   ar
    36    93    92    1
    37    18    17    1
    38    26    27    2
    39    26    25    1
    40    31    34   ar
    41    31    29   ar
    42    30    29   ar
    43    83    81   ar
    44    83    85   ar
    45    86    85    1
    46    29    28    1
    47    73    74    1
    48    73    72    1
    49    81    80   ar
    50    85    84   ar
    51    25    28    1
    52    25    24    1
    53    45    43   am
    54    44    43    2
    55    72    71    1
    56    43    42    1
    57    80    79    1
    58    80    82   ar
    59    65    64    1
    60    84    82   ar
    61    79    76    1
    62    76    77    1
    63    76    75    1
    64    71    70    1
    65    66    67    1
    66    42    39    1
    67    64    62   ar
    68    64    63   ar
    69    67    70    1
    70    67    68    1
    71    77    78    2
    72    41    40    2
    73    40    39    1
    74    62    60   ar
    75    39    38    1
    76    63    61   ar
    77    69    68    2
    78    51    53    1
    79    51    50    1
    80    52    50    1
    81    60    59   ar
    82    61    59   ar
    83    50    47    1
    84    59    58    1
    85    47    48    1
    86    47    46    1
    87    49    48    2
    88    48    54   am
    89    58    55    1
    90    54    55    1
    91    55    56    1
    92    56    57    2
