@<TRIPOS>MOLECULE
tmp/5wmlA01.pdb
 131 125 0 0 0
SMALL
GASTEIGER

@<TRIPOS>ATOM
      1  N         -6.3650   -4.2190  -13.5050 N.3    13  SER13      -0.1217
      2  CA        -5.5240   -5.4100  -13.6280 C.3    13  SER13       0.1889
      3  C         -6.3800   -6.6400  -13.8710 C.2    13  SER13       0.2288
      4  O         -7.1330   -7.0390  -12.9860 O.2    13  SER13      -0.2866
      5  CB        -4.6870   -5.6200  -12.3770 C.3    13  SER13       0.2089
      6  OG        -4.2850   -6.9780  -12.3050 O.3    13  SER13      -0.2183
      7  N         -5.6240   -9.6910  -14.0430 N.3    15  THR15      -0.1203
      8  CA        -5.2440  -10.7010  -13.0710 C.3    15  THR15       0.1994
      9  C         -6.0750  -10.5800  -11.7890 C.2    15  THR15       0.2617
     10  O         -6.6480  -11.5650  -11.3150 O.2    15  THR15      -0.2717
     11  CB        -3.7570  -10.5930  -12.7090 C.3    15  THR15       0.1784
     12  OG1       -2.9670  -10.9470  -13.8510 O.3    15  THR15      -0.2211
     13  CG2       -3.4540  -11.5240  -11.5930 C.3    15  THR15       0.0376
     14  N         -6.1340   -9.3670  -11.2420 N.am   16  MET16      -0.1979
     15  CA        -6.9120   -9.0950  -10.0320 C.3    16  MET16       0.1605
     16  C         -8.4070   -9.2980  -10.2900 C.2    16  MET16       0.2287
     17  O         -9.1080   -9.9150   -9.4870 O.2    16  MET16      -0.2864
     18  CB        -6.6540   -7.6690   -9.5330 C.3    16  MET16       0.0413
     19  CG        -5.1810   -7.3350   -9.2710 C.3    16  MET16       0.0598
     20  SD        -4.7560   -7.1960   -7.5150 S.3    16  MET16      -0.1393
     21  CE        -4.3690   -8.9000   -7.1090 C.3    16  MET16       0.0692
     22  N         -4.4720  -16.0160  -10.5610 N.3    37  ALA37      -0.1231
     23  CA        -3.3780  -15.4840   -9.7470 C.3    37  ALA37       0.1694
     24  C         -2.3070  -16.5430   -9.4690 C.2    37  ALA37       0.2592
     25  O         -2.6210  -17.7180   -9.2550 O.2    37  ALA37      -0.2718
     26  CB        -3.9210  -14.9300   -8.4290 C.3    37  ALA37       0.0304
     27  N         -1.0450  -16.1130   -9.4690 N.am   38  GLY38      -0.1957
     28  CA         0.0740  -16.9880   -9.1740 C.3    38  GLY38       0.1869
     29  C          0.2370  -17.1580   -7.6750 C.2    38  GLY38       0.2309
     30  O          1.1480  -16.5990   -7.0660 O.2    38  GLY38      -0.2863
     31  N          4.7610   -4.9830   -5.7560 N.3   100  LYS100     -0.1245
     32  CA         3.9890   -4.1400   -6.6650 C.3   100  LYS100      0.1561
     33  C          4.1630   -2.6570   -6.3160 C.2   100  LYS100      0.2260
     34  O          4.2990   -1.7980   -7.1850 O.2   100  LYS100     -0.2867
     35  CB         2.4960   -4.5260   -6.6370 C.3   100  LYS100      0.0271
     36  CG         1.6360   -3.6840   -7.5780 C.3   100  LYS100      0.0035
     37  CD         0.1820   -4.1310   -7.5590 C.3   100  LYS100      0.0206
     38  CE         0.0110   -5.4680   -8.2520 C.3   100  LYS100      0.1093
     39  NZ        -1.3830   -5.9490   -8.1760 N.3   100  LYS100     -0.1314
     40  N          4.2300   -8.4390  -17.5850 N.3   124  TRP124     -0.1227
     41  CA         3.3590   -8.4810  -16.4170 C.3   124  TRP124      0.1737
     42  C          2.3610   -7.3200  -16.5260 C.2   124  TRP124      0.2595
     43  O          2.7320   -6.1920  -16.8360 O.2   124  TRP124     -0.2718
     44  CB         4.1800   -8.4030  -15.1250 C.3   124  TRP124      0.0564
     45  CG         3.3430   -8.4120  -13.8790 C.ar  124  TRP124      0.0003
     46  CD1        2.4060   -9.3480  -13.5240 C.ar  124  TRP124      0.0946
     47  CD2        3.3700   -7.4540  -12.8180 C.ar  124  TRP124      0.0152
     48  NE1        1.8460   -9.0200  -12.3160 N.ar  124  TRP124     -0.2442
     49  CE2        2.4200   -7.8620  -11.8630 C.ar  124  TRP124      0.0810
     50  CE3        4.0980   -6.2860  -12.5870 C.ar  124  TRP124      0.0012
     51  CZ2        2.1900   -7.1490  -10.6940 C.ar  124  TRP124      0.0191
     52  CZ3        3.8650   -5.5780  -11.4330 C.ar  124  TRP124      0.0001
     53  CH2        2.9170   -6.0090  -10.4990 C.ar  124  TRP124      0.0015
     54  N          1.0940   -7.6180  -16.2810 N.am  125  VAL125     -0.1966
     55  CA        -0.0050   -6.7120  -16.5920 C.3   125  VAL125      0.1727
     56  C          0.1290   -5.2810  -16.0120 C.2   125  VAL125      0.2616
     57  O         -0.3520   -4.3280  -16.6000 O.2   125  VAL125     -0.2715
     58  CB        -1.3470   -7.3470  -16.1300 C.3   125  VAL125      0.0290
     59  CG1       -1.4350   -7.3840  -14.5980 C.3   125  VAL125      0.0023
     60  CG2       -2.4970   -6.5970  -16.6990 C.3   125  VAL125      0.0023
     61  N          0.8120   -5.1050  -14.8870 N.am  126  SER126     -0.1950
     62  CA         0.8200   -3.7800  -14.2770 C.3   126  SER126      0.1924
     63  C          1.8840   -2.8060  -14.7950 C.2   126  SER126      0.2314
     64  O          1.7840   -1.6010  -14.5380 O.2   126  SER126     -0.2863
     65  CB         0.9490   -3.9230  -12.7540 C.3   126  SER126      0.2116
     66  OG        -0.2450   -4.4930  -12.2350 O.3   126  SER126     -0.2180
     67  N          7.0870  -13.2490  -15.7950 N.3   174  ASN174     -0.1240
     68  CA         5.6420  -13.3940  -15.6780 C.3   174  ASN174      0.1653
     69  C          5.1310  -12.5970  -16.8750 C.2   174  ASN174      0.2266
     70  O          5.3990  -11.3990  -16.9620 O.2   174  ASN174     -0.2867
     71  CB         5.1390  -12.8450  -14.3330 C.3   174  ASN174      0.1155
     72  CG         3.6120  -12.8550  -14.1940 C.2   174  ASN174      0.2627
     73  OD1        2.8710  -13.1620  -15.1310 O.2   174  ASN174     -0.2716
     74  ND2        3.1390  -12.5030  -12.9960 N.am  174  ASN174     -0.0877
     75  N         10.7180  -13.8330   -9.0610 N.3   206  TYR206     -0.1241
     76  CA        10.6490  -15.2800   -9.2910 C.3   206  TYR206      0.1605
     77  C         12.0350  -15.9380   -9.3840 C.2   206  TYR206      0.2264
     78  O         12.1670  -17.0960   -9.8080 O.2   206  TYR206     -0.2867
     79  CB         9.8360  -15.5720  -10.5570 C.3   206  TYR206      0.0534
     80  CG         8.4110  -15.0880  -10.4420 C.ar  206  TYR206     -0.0201
     81  CD1        7.4820  -15.7890   -9.6760 C.ar  206  TYR206     -0.0009
     82  CD2        7.9930  -13.9260  -11.0790 C.ar  206  TYR206     -0.0009
     83  CE1        6.1610  -15.3500   -9.5530 C.ar  206  TYR206      0.0417
     84  CE2        6.6860  -13.4720  -10.9510 C.ar  206  TYR206      0.0417
     85  CZ         5.7750  -14.1890  -10.1840 C.ar  206  TYR206      0.1957
     86  OH         4.4700  -13.7460  -10.0530 O.3   206  TYR206     -0.2866
     87  N          2.3350   -9.4370    2.3710 N.3   245  ARG245     -0.1245
     88  CA         2.6140   -8.1300    1.7600 C.3   245  ARG245      0.1563
     89  C          4.0140   -7.5880    2.1420 C.2   245  ARG245      0.2260
     90  O          4.1530   -6.7120    3.0070 O.2   245  ARG245     -0.2867
     91  CB         1.5320   -7.0980    2.1360 C.3   245  ARG245      0.0307
     92  CG         0.0700   -7.5220    1.9000 C.3   245  ARG245      0.0489
     93  CD        -0.1300   -8.2350    0.5690 C.3   245  ARG245      0.2205
     94  NE         0.1560   -7.3780   -0.5830 N.pl3 245  ARG245     -0.0865
     95  CZ         0.8250   -7.7770   -1.6680 C.cat 245  ARG245      0.5346
     96  NH1        1.2920   -9.0220   -1.7490 N.pl3 245  ARG245      0.1354
     97  NH2        1.0280   -6.9330   -2.6770 N.pl3 245  ARG245      0.1354
     98  N          4.2390  -19.9270  -14.3980 N.3   326  TYR326     -0.1241
     99  CA         3.2680  -19.6070  -15.4420 C.3   326  TYR326      0.1605
    100  C          3.5610  -20.2760  -16.7870 C.2   326  TYR326      0.2264
    101  O          4.7190  -20.3410  -17.2590 O.2   326  TYR326     -0.2867
    102  CB         3.2020  -18.0870  -15.6370 C.3   326  TYR326      0.0534
    103  CG         3.0200  -17.3510  -14.3360 C.ar  326  TYR326     -0.0201
    104  CD1        1.7810  -17.3140  -13.7080 C.ar  326  TYR326     -0.0009
    105  CD2        4.0800  -16.6890  -13.7340 C.ar  326  TYR326     -0.0009
    106  CE1        1.6080  -16.6420  -12.4930 C.ar  326  TYR326      0.0417
    107  CE2        3.9170  -16.0180  -12.5280 C.ar  326  TYR326      0.0417
    108  CZ         2.6810  -16.0000  -11.9100 C.ar  326  TYR326      0.1957
    109  OH         2.5190  -15.3260  -10.7150 O.3   326  TYR326     -0.2866
    110  N         -1.5300   -9.0300  -21.1100 N.3   369  PHE369     -0.1241
    111  CA        -0.0670   -9.0510  -21.0350 C.3   369  PHE369      0.1605
    112  C          0.5690   -8.5160  -22.3110 C.2   369  PHE369      0.2264
    113  O          1.7840   -8.5910  -22.4930 O.2   369  PHE369     -0.2867
    114  CB         0.4320  -10.4750  -20.7720 C.3   369  PHE369      0.0534
    115  CG        -0.2200  -11.1500  -19.5800 C.ar  369  PHE369     -0.0203
    116  CD1        0.2850  -10.9760  -18.2980 C.ar  369  PHE369     -0.0042
    117  CD2       -1.3240  -11.9730  -19.7510 C.ar  369  PHE369     -0.0042
    118  CE1       -0.3110  -11.6120  -17.2060 C.ar  369  PHE369     -0.0003
    119  CE2       -1.9210  -12.6030  -18.6700 C.ar  369  PHE369     -0.0003
    120  CZ        -1.4140  -12.4200  -17.4000 C.ar  369  PHE369     -0.0000
    121  N         -2.7190  -17.1970  -20.1500 N.3   376  ARG376     -0.1245
    122  CA        -1.8340  -17.5520  -19.0410 C.3   376  ARG376      0.1563
    123  C         -2.5140  -18.4560  -18.0330 C.2   376  ARG376      0.2260
    124  O         -3.5800  -18.1290  -17.5070 O.2   376  ARG376     -0.2867
    125  CB        -1.3050  -16.3190  -18.3130 C.3   376  ARG376      0.0307
    126  CG        -0.1270  -16.6810  -17.3760 C.3   376  ARG376      0.0489
    127  CD         0.2040  -15.5970  -16.3750 C.3   376  ARG376      0.2205
    128  NE        -0.7830  -15.4760  -15.3020 N.pl3 376  ARG376     -0.0865
    129  CZ        -0.6620  -14.6340  -14.2780 C.cat 376  ARG376      0.5346
    130  NH1        0.3980  -13.8450  -14.1990 N.pl3 376  ARG376      0.1354
    131  NH2       -1.5960  -14.5830  -13.3270 N.pl3 376  ARG376      0.1354
@<TRIPOS>BOND
     1   113   112    2
     2   112   111    1
     3   110   111    1
     4   111   114    1
     5   114   115    1
     6   121   122    1
     7   117   115   ar
     8   117   119   ar
     9   115   116   ar
    10   122   125    1
    11   122   123    1
    12   119   120   ar
    13   125   126    1
    14   116   118   ar
    15   123   124    2
    16    40    41    1
    17   120   118   ar
    18   126   127    1
    19   101   100    2
    20    70    69    2
    21    69    68    1
    22    43    42    2
    23   100    99    1
    24    60    58    1
    25    57    56    2
    26    55    54    1
    27    55    58    1
    28    55    56    1
    29    42    41    1
    30    42    54   am
    31    41    44    1
    32   127   128    1
    33    58    59    1
    34    56    61   am
    35    67    68    1
    36    68    71    1
    37   102    99    1
    38   102   103    1
    39    99    98    1
    40   128   129    2
    41    73    72    2
    42    44    45    1
    43    61    62    1
    44    63    64    2
    45    63    62    1
    46   103   105   ar
    47   103   104   ar
    48    71    72    1
    49   129   130    1
    50   129   131    1
    51    62    65    1
    52    72    74   am
    53     7     8    1
    54    45    46   ar
    55    45    47   ar
    56     3     2    1
    57     3     4    2
    58    12    11    1
    59   105   107   ar
    60   104   106   ar
    61     2     1    1
    62     2     5    1
    63    46    48   ar
    64     8    11    1
    65     8     9    1
    66    47    50   ar
    67    47    49   ar
    68    65    66    1
    69    11    13    1
    70    50    52   ar
    71   107   108   ar
    72   106   108   ar
    73     5     6    1
    74    48    49   ar
    75   108   109    1
    76    49    51   ar
    77     9    10    2
    78     9    14   am
    79    52    53   ar
    80    14    15    1
    81    82    84   ar
    82    82    80   ar
    83    84    85   ar
    84    51    53   ar
    85    22    23    1
    86    79    80    1
    87    79    76    1
    88    80    81   ar
    89    16    15    1
    90    16    17    2
    91    85    86    1
    92    85    83   ar
    93    15    18    1
    94    78    77    2
    95    23    24    1
    96    23    26    1
    97    81    83   ar
    98    18    19    1
    99    24    27   am
   100    24    25    2
   101    27    28    1
   102    77    76    1
   103    76    75    1
   104    19    20    1
   105    28    29    1
   106    38    39    1
   107    38    37    1
   108    29    30    2
   109    36    37    1
   110    36    35    1
   111    20    21    1
   112    34    33    2
   113    32    35    1
   114    32    33    1
   115    32    31    1
   116    97    95    1
   117    96    95    1
   118    95    94    2
   119    94    93    1
   120    93    92    1
   121    88    91    1
   122    88    89    1
   123    88    87    1
   124    92    91    1
   125    89    90    2
