@<TRIPOS>MOLECULE
tmp/5wmlA00.pdb
 153 146 0 0 0
SMALL
GASTEIGER

@<TRIPOS>ATOM
      1  N         -1.0450  -16.1130   -9.4690 N.3    38  GLY38      -0.1225
      2  CA         0.0740  -16.9880   -9.1740 C.3    38  GLY38       0.1811
      3  C          0.2370  -17.1580   -7.6750 C.2    38  GLY38       0.2280
      4  O          1.1480  -16.5990   -7.0660 O.2    38  GLY38      -0.2866
      5  N          4.9480   -5.3760   -0.3600 N.3    98  GLY98      -0.1210
      6  CA         4.9170   -6.1720   -1.5700 C.3    98  GLY98       0.1956
      7  C          5.6610   -5.4980   -2.7000 C.2    98  GLY98       0.2612
      8  O          5.8630   -4.2790   -2.6910 O.2    98  GLY98      -0.2717
      9  N          6.0520   -6.3020   -3.6830 N.am   99  ALA99      -0.1965
     10  CA         6.8510   -5.8320   -4.7980 C.3    99  ALA99       0.1728
     11  C          6.0880   -4.9090   -5.7440 C.2    99  ALA99       0.2616
     12  O          6.7070   -4.1110   -6.4440 O.2    99  ALA99      -0.2715
     13  CB         7.4210   -7.0200   -5.5630 C.3    99  ALA99       0.0334
     14  N          4.7610   -4.9830   -5.7560 N.am  100  LYS100     -0.1977
     15  CA         3.9890   -4.1400   -6.6650 C.3   100  LYS100      0.1596
     16  C          4.1630   -2.6570   -6.3160 C.2   100  LYS100      0.2287
     17  O          4.2990   -1.7980   -7.1850 O.2   100  LYS100     -0.2864
     18  CB         2.4960   -4.5260   -6.6370 C.3   100  LYS100      0.0298
     19  CG         1.6360   -3.6840   -7.5780 C.3   100  LYS100      0.0038
     20  CD         0.1820   -4.1310   -7.5590 C.3   100  LYS100      0.0206
     21  CE         0.0110   -5.4680   -8.2520 C.3   100  LYS100      0.1093
     22  NZ        -1.3830   -5.9490   -8.1760 N.3   100  LYS100     -0.1314
     23  N          7.7390   -1.5110   -7.1810 N.3   103  LEU103     -0.1245
     24  CA         7.8430   -1.1990   -8.6130 C.3   103  LEU103      0.1561
     25  C          7.2450    0.1750   -8.9440 C.2   103  LEU103      0.2260
     26  O          7.8840    0.9900   -9.6120 O.2   103  LEU103     -0.2867
     27  CB         7.1550   -2.2850   -9.4420 C.3   103  LEU103      0.0270
     28  CG         7.8300   -3.6610   -9.3910 C.3   103  LEU103      0.0019
     29  CD1        6.8660   -4.7600   -9.8420 C.3   103  LEU103      0.0001
     30  CD2        9.0920   -3.6920  -10.2510 C.3   103  LEU103      0.0001
     31  N          4.2300   -8.4390  -17.5850 N.3   124  TRP124     -0.1241
     32  CA         3.3590   -8.4810  -16.4170 C.3   124  TRP124      0.1605
     33  C          2.3610   -7.3200  -16.5260 C.2   124  TRP124      0.2264
     34  O          2.7320   -6.1920  -16.8360 O.2   124  TRP124     -0.2867
     35  CB         4.1800   -8.4030  -15.1250 C.3   124  TRP124      0.0550
     36  CG         3.3430   -8.4120  -13.8790 C.ar  124  TRP124      0.0003
     37  CD1        2.4060   -9.3480  -13.5240 C.ar  124  TRP124      0.0946
     38  CD2        3.3700   -7.4540  -12.8180 C.ar  124  TRP124      0.0152
     39  NE1        1.8460   -9.0200  -12.3160 N.ar  124  TRP124     -0.2442
     40  CE2        2.4200   -7.8620  -11.8630 C.ar  124  TRP124      0.0810
     41  CE3        4.0980   -6.2860  -12.5870 C.ar  124  TRP124      0.0012
     42  CZ2        2.1900   -7.1490  -10.6940 C.ar  124  TRP124      0.0191
     43  CZ3        3.8650   -5.5780  -11.4330 C.ar  124  TRP124      0.0001
     44  CH2        2.9170   -6.0090  -10.4990 C.ar  124  TRP124      0.0015
     45  N          2.8770   -3.2940  -15.5390 N.3   127  TYR127     -0.1241
     46  CA         3.9630   -2.4110  -15.9600 C.3   127  TYR127      0.1605
     47  C          3.4940   -1.2020  -16.7780 C.2   127  TYR127      0.2264
     48  O          3.9600   -0.0870  -16.5590 O.2   127  TYR127     -0.2867
     49  CB         5.0120   -3.1800  -16.7730 C.3   127  TYR127      0.0534
     50  CG         5.8450   -4.1460  -15.9790 C.ar  127  TYR127     -0.0201
     51  CD1        6.2410   -3.8510  -14.6870 C.ar  127  TYR127     -0.0009
     52  CD2        6.2290   -5.3580  -16.5210 C.ar  127  TYR127     -0.0009
     53  CE1        6.9940   -4.7350  -13.9670 C.ar  127  TYR127      0.0417
     54  CE2        6.9890   -6.2500  -15.8070 C.ar  127  TYR127      0.0417
     55  CZ         7.3640   -5.9350  -14.5350 C.ar  127  TYR127      0.1957
     56  OH         8.1140   -6.8340  -13.8240 O.3   127  TYR127     -0.2866
     57  N         11.8680   -8.4010  -16.7180 N.3   170  CYS170     -0.1235
     58  CA        11.3220   -9.3480  -15.7520 C.3   170  CYS170      0.1677
     59  C         11.8860  -10.7370  -16.0340 C.2   170  CYS170      0.2270
     60  O         11.5660  -11.3500  -17.0500 O.2   170  CYS170     -0.2867
     61  CB         9.7870   -9.3600  -15.8110 C.3   170  CYS170      0.0956
     62  SG         8.9860  -10.3190  -14.4860 S.3   170  CYS170     -0.0801
     63  N          7.0870  -13.2490  -15.7950 N.3   174  ASN174     -0.1240
     64  CA         5.6420  -13.3940  -15.6780 C.3   174  ASN174      0.1653
     65  C          5.1310  -12.5970  -16.8750 C.2   174  ASN174      0.2266
     66  O          5.3990  -11.3990  -16.9620 O.2   174  ASN174     -0.2867
     67  CB         5.1390  -12.8450  -14.3330 C.3   174  ASN174      0.1155
     68  CG         3.6120  -12.8550  -14.1940 C.2   174  ASN174      0.2627
     69  OD1        2.8710  -13.1620  -15.1310 O.2   174  ASN174     -0.2716
     70  ND2        3.1390  -12.5030  -12.9960 N.am  174  ASN174     -0.0877
     71  N         13.0210   -6.7680  -12.3640 N.3   203  ASP203     -0.1239
     72  CA        12.0780   -7.4460  -11.4880 C.3   203  ASP203      0.1674
     73  C         12.4740   -8.9120  -11.3200 C.2   203  ASP203      0.2266
     74  O         12.3580   -9.7160  -12.2530 O.2   203  ASP203     -0.2867
     75  CB        10.6620   -7.3360  -12.0570 C.3   203  ASP203      0.1410
     76  CG         9.5740   -7.6560  -11.0300 C.2   203  ASP203      0.3668
     77  OD1        9.8690   -8.2640   -9.9710 O.co2 203  ASP203     -0.2456
     78  OD2        8.4090   -7.2840  -11.2960 O.co2 203  ASP203     -0.2456
     79  N         11.5170  -11.1540   -8.7100 N.3   205  ILE205     -0.1231
     80  CA        10.7030  -11.8020   -7.6710 C.3   205  ILE205      0.1692
     81  C         10.6250  -13.3340   -7.8280 C.2   205  ILE205      0.2592
     82  O         10.5120  -14.0580   -6.8330 O.2   205  ILE205     -0.2718
     83  CB         9.2640  -11.1960   -7.6530 C.3   205  ILE205      0.0266
     84  CG1        8.3660  -11.8780   -6.6220 C.3   205  ILE205      0.0019
     85  CG2        8.6210  -11.3230   -9.0020 C.3   205  ILE205      0.0020
     86  CD1        8.3960  -11.2440   -5.2590 C.3   205  ILE205      0.0001
     87  N         10.7180  -13.8330   -9.0610 N.am  206  TYR206     -0.1976
     88  CA        10.6490  -15.2800   -9.2910 C.3   206  TYR206      0.1639
     89  C         12.0350  -15.9380   -9.3840 C.2   206  TYR206      0.2290
     90  O         12.1670  -17.0960   -9.8080 O.2   206  TYR206     -0.2864
     91  CB         9.8360  -15.5720  -10.5570 C.3   206  TYR206      0.0560
     92  CG         8.4110  -15.0880  -10.4420 C.ar  206  TYR206     -0.0198
     93  CD1        7.4820  -15.7890   -9.6760 C.ar  206  TYR206     -0.0009
     94  CD2        7.9930  -13.9260  -11.0790 C.ar  206  TYR206     -0.0009
     95  CE1        6.1610  -15.3500   -9.5530 C.ar  206  TYR206      0.0417
     96  CE2        6.6860  -13.4720  -10.9510 C.ar  206  TYR206      0.0417
     97  CZ         5.7750  -14.1890  -10.1840 C.ar  206  TYR206      0.1957
     98  OH         4.4700  -13.7460  -10.0530 O.3   206  TYR206     -0.2866
     99  N          6.7690  -13.0430   -1.7480 N.3   236  SER236     -0.1217
    100  CA         5.5210  -13.6850   -2.1670 C.3   236  SER236      0.1889
    101  C          5.6910  -15.0590   -2.8100 C.2   236  SER236      0.2288
    102  O          5.1350  -16.0440   -2.3330 O.2   236  SER236     -0.2866
    103  CB         4.7580  -12.7780   -3.1440 C.3   236  SER236      0.2089
    104  OG         4.2490  -11.6310   -2.4860 O.3   236  SER236     -0.2183
    105  N          2.3310  -14.5910    0.0330 N.3   242  THR242     -0.1218
    106  CA         1.5650  -13.6200   -0.7530 C.3   242  THR242      0.1862
    107  C          0.7060  -12.6970    0.1220 C.2   242  THR242      0.2287
    108  O          0.6850  -11.4760   -0.0730 O.2   242  THR242     -0.2866
    109  CB         0.6660  -14.3200   -1.7800 C.3   242  THR242      0.1770
    110  OG1       -0.1860  -15.2590   -1.1170 O.3   242  THR242     -0.2211
    111  CG2        1.5100  -15.0470   -2.8170 C.3   242  THR242      0.0375
    112  N          2.3350   -9.4370    2.3710 N.3   245  ARG245     -0.1231
    113  CA         2.6140   -8.1300    1.7600 C.3   245  ARG245      0.1694
    114  C          4.0140   -7.5880    2.1420 C.2   245  ARG245      0.2591
    115  O          4.1530   -6.7120    3.0070 O.2   245  ARG245     -0.2718
    116  CB         1.5320   -7.0980    2.1360 C.3   245  ARG245      0.0321
    117  CG         0.0700   -7.5220    1.9000 C.3   245  ARG245      0.0489
    118  CD        -0.1300   -8.2350    0.5690 C.3   245  ARG245      0.2205
    119  NE         0.1560   -7.3780   -0.5830 N.pl3 245  ARG245     -0.0865
    120  CZ         0.8250   -7.7770   -1.6680 C.cat 245  ARG245      0.5346
    121  NH1        1.2920   -9.0220   -1.7490 N.pl3 245  ARG245      0.1354
    122  NH2        1.0280   -6.9330   -2.6770 N.pl3 245  ARG245      0.1354
    123  N          5.0380   -8.1060    1.4710 N.am  246  LEU246     -0.1980
    124  CA         6.4250   -7.7250    1.7380 C.3   246  LEU246      0.1596
    125  C          7.3010   -7.8100    0.4800 C.2   246  LEU246      0.2287
    126  O          7.4590   -8.8810   -0.0980 O.2   246  LEU246     -0.2864
    127  CB         7.0220   -8.6150    2.8360 C.3   246  LEU246      0.0297
    128  CG         8.3610   -8.1800    3.4460 C.3   246  LEU246      0.0022
    129  CD1        8.1890   -6.8890    4.2190 C.3   246  LEU246      0.0001
    130  CD2        8.9360   -9.2690    4.3540 C.3   246  LEU246      0.0001
    131  N          6.0210  -19.5520  -12.2290 N.3   325  PHE325     -0.1227
    132  CA         4.9590  -20.5480  -12.1660 C.3   325  PHE325      0.1736
    133  C          3.8510  -20.2350  -13.1640 C.2   325  PHE325      0.2595
    134  O          2.6690  -20.2700  -12.8240 O.2   325  PHE325     -0.2718
    135  CB         4.3840  -20.6290  -10.7500 C.3   325  PHE325      0.0547
    136  CG         4.3270  -19.3050  -10.0430 C.ar  325  PHE325     -0.0202
    137  CD1        5.4410  -18.8060   -9.3890 C.ar  325  PHE325     -0.0042
    138  CD2        3.1600  -18.5600  -10.0330 C.ar  325  PHE325     -0.0042
    139  CE1        5.3920  -17.5880   -8.7370 C.ar  325  PHE325     -0.0003
    140  CE2        3.1040  -17.3420   -9.3830 C.ar  325  PHE325     -0.0003
    141  CZ         4.2210  -16.8550   -8.7340 C.ar  325  PHE325     -0.0000
    142  N          4.2390  -19.9270  -14.3980 N.am  326  TYR326     -0.1976
    143  CA         3.2680  -19.6070  -15.4420 C.3   326  TYR326      0.1639
    144  C          3.5610  -20.2760  -16.7870 C.2   326  TYR326      0.2290
    145  O          4.7190  -20.3410  -17.2590 O.2   326  TYR326     -0.2864
    146  CB         3.2020  -18.0870  -15.6370 C.3   326  TYR326      0.0560
    147  CG         3.0200  -17.3510  -14.3360 C.ar  326  TYR326     -0.0198
    148  CD1        1.7810  -17.3140  -13.7080 C.ar  326  TYR326     -0.0009
    149  CD2        4.0800  -16.6890  -13.7340 C.ar  326  TYR326     -0.0009
    150  CE1        1.6080  -16.6420  -12.4930 C.ar  326  TYR326      0.0417
    151  CE2        3.9170  -16.0180  -12.5280 C.ar  326  TYR326      0.0417
    152  CZ         2.6810  -16.0000  -11.9100 C.ar  326  TYR326      0.1957
    153  OH         2.5190  -15.3260  -10.7150 O.3   326  TYR326     -0.2866
@<TRIPOS>BOND
     1    31    32    1
     2   145   144    2
     3    60    59    2
     4    66    65    2
     5    65    64    1
     6    34    33    2
     7   144   143    1
     8    47    48    2
     9    47    46    1
    10    49    50    1
    11    49    46    1
    12    57    58    1
    13    33    32    1
    14    52    50   ar
    15    52    54   ar
    16    32    35    1
    17    59    58    1
    18    50    51   ar
    19    46    45    1
    20    61    58    1
    21    61    62    1
    22    54    55   ar
    23    63    64    1
    24    64    67    1
    25   146   143    1
    26   146   147    1
    27   143   142    1
    28    69    68    2
    29    35    36    1
    30    51    53   ar
    31    55    53   ar
    32    55    56    1
    33   142   133   am
    34   147   149   ar
    35   147   148   ar
    36    67    68    1
    37    68    70   am
    38    36    37   ar
    39    36    38   ar
    40   149   151   ar
    41   148   150   ar
    42    37    39   ar
    43   133   134    2
    44   133   132    1
    45    38    41   ar
    46    38    40   ar
    47    41    43   ar
    48   151   152   ar
    49   150   152   ar
    50    71    72    1
    51    39    40   ar
    52    74    73    2
    53   131   132    1
    54   132   135    1
    55    75    72    1
    56    75    76    1
    57   152   153    1
    58    40    42   ar
    59    72    73    1
    60    43    44   ar
    61    78    76   ar
    62    94    96   ar
    63    94    92   ar
    64    76    77   ar
    65    96    97   ar
    66   135   136    1
    67    42    44   ar
    68    91    92    1
    69    91    88    1
    70    92    93   ar
    71    30    28    1
    72    97    98    1
    73    97    95   ar
    74   136   138   ar
    75   136   137   ar
    76   138   140   ar
    77    29    28    1
    78    90    89    2
    79    93    95   ar
    80    26    25    2
    81     1     2    1
    82    27    28    1
    83    27    24    1
    84   137   139   ar
    85    89    88    1
    86   140   141   ar
    87    88    87    1
    88     2     3    1
    89    87    81   am
    90    85    83    1
    91    25    24    1
    92   139   141   ar
    93    79    80    1
    94    24    23    1
    95    21    22    1
    96    21    20    1
    97    81    80    1
    98    81    82    2
    99     3     4    2
   100    80    83    1
   101    83    84    1
   102    19    20    1
   103    19    18    1
   104    17    16    2
   105    15    18    1
   106    15    16    1
   107    15    14    1
   108    84    86    1
   109    12    11    2
   110    14    11   am
   111    11    10    1
   112    13    10    1
   113    10     9    1
   114     9     7   am
   115   103   104    1
   116   103   100    1
   117   111   109    1
   118   101   102    2
   119   101   100    1
   120     7     8    2
   121     7     6    1
   122   122   120    1
   123   100    99    1
   124   109   110    1
   125   109   106    1
   126   121   120    1
   127   120   119    2
   128     6     5    1
   129   106   105    1
   130   106   107    1
   131   119   118    1
   132   126   125    2
   133   108   107    2
   134   125   124    1
   135   118   117    1
   136   123   124    1
   137   123   114   am
   138   124   127    1
   139   113   116    1
   140   113   114    1
   141   113   112    1
   142   117   116    1
   143   114   115    2
   144   127   128    1
   145   128   129    1
   146   128   130    1
