@<TRIPOS>MOLECULE
tmp/5wmmA01.pdb
 239 239 0 0 0
SMALL
GASTEIGER

@<TRIPOS>ATOM
      1  N        -77.0230   44.4160  -24.7390 N.3   446  VAL446     -0.1245
      2  CA       -76.7390   45.5970  -25.5650 C.3   446  VAL446      0.1561
      3  C        -77.0220   46.8960  -24.8010 C.2   446  VAL446      0.2260
      4  O        -76.2590   47.8570  -24.9120 O.2   446  VAL446     -0.2867
      5  CB       -77.5360   45.5670  -26.8950 C.3   446  VAL446      0.0252
      6  CG1      -77.3440   46.8490  -27.7010 C.3   446  VAL446      0.0019
      7  CG2      -77.1070   44.3800  -27.7440 C.3   446  VAL446      0.0019
      8  N        -74.2100   47.7800  -22.3240 N.3   449  TRP449     -0.1241
      9  CA       -73.1100   48.3930  -23.0870 C.3   449  TRP449      0.1605
     10  C        -73.4000   49.8460  -23.4690 C.2   449  TRP449      0.2264
     11  O        -72.5080   50.6960  -23.3990 O.2   449  TRP449     -0.2867
     12  CB       -72.7940   47.5930  -24.3600 C.3   449  TRP449      0.0550
     13  CG       -71.9120   46.3980  -24.1580 C.ar  449  TRP449      0.0003
     14  CD1      -72.1950   45.1100  -24.5030 C.ar  449  TRP449      0.0946
     15  CD2      -70.5970   46.3800  -23.5840 C.ar  449  TRP449      0.0152
     16  NE1      -71.1450   44.2890  -24.1750 N.ar  449  TRP449     -0.2442
     17  CE2      -70.1510   45.0400  -23.6070 C.ar  449  TRP449      0.0810
     18  CE3      -69.7540   47.3640  -23.0450 C.ar  449  TRP449      0.0012
     19  CZ2      -68.8970   44.6560  -23.1150 C.ar  449  TRP449      0.0191
     20  CZ3      -68.5050   46.9820  -22.5540 C.ar  449  TRP449      0.0001
     21  CH2      -68.0900   45.6380  -22.5950 C.ar  449  TRP449      0.0015
     22  N        -71.3650   53.1300  -22.2200 N.3   453  TYR453     -0.1241
     23  CA       -70.7970   54.0730  -23.1980 C.3   453  TYR453      0.1605
     24  C        -71.3900   55.4840  -23.1080 C.2   453  TYR453      0.2264
     25  O        -70.6660   56.4640  -23.2860 O.2   453  TYR453     -0.2867
     26  CB       -70.8900   53.5240  -24.6350 C.3   453  TYR453      0.0534
     27  CG       -69.6650   52.7310  -25.0490 C.ar  453  TYR453     -0.0201
     28  CD1      -68.4270   53.3580  -25.1840 C.ar  453  TYR453     -0.0009
     29  CD2      -69.7370   51.3590  -25.3030 C.ar  453  TYR453     -0.0009
     30  CE1      -67.2970   52.6500  -25.5530 C.ar  453  TYR453      0.0417
     31  CE2      -68.6080   50.6410  -25.6790 C.ar  453  TYR453      0.0417
     32  CZ       -67.3920   51.2940  -25.8020 C.ar  453  TYR453      0.1957
     33  OH       -66.2620   50.6110  -26.1720 O.3   453  TYR453     -0.2866
     34  N        -69.0140   58.6720  -22.5100 N.3   457  TYR457     -0.1241
     35  CA       -69.0210   59.7560  -23.5000 C.3   457  TYR457      0.1605
     36  C        -69.6730   61.0590  -23.0150 C.2   457  TYR457      0.2264
     37  O        -69.1880   62.1420  -23.3470 O.2   457  TYR457     -0.2867
     38  CB       -69.6940   59.2930  -24.8000 C.3   457  TYR457      0.0534
     39  CG       -68.8570   58.3640  -25.6690 C.ar  457  TYR457     -0.0201
     40  CD1      -67.5930   58.7480  -26.1310 C.ar  457  TYR457     -0.0009
     41  CD2      -69.3440   57.1130  -26.0620 C.ar  457  TYR457     -0.0009
     42  CE1      -66.8370   57.9050  -26.9370 C.ar  457  TYR457      0.0417
     43  CE2      -68.6000   56.2730  -26.8780 C.ar  457  TYR457      0.0417
     44  CZ       -67.3470   56.6680  -27.3080 C.ar  457  TYR457      0.1957
     45  OH       -66.6080   55.8290  -28.1080 O.3   457  TYR457     -0.2866
     46  N        -56.3490   52.9780  -22.8250 N.3   471  TRP471     -0.1241
     47  CA       -56.5640   51.5490  -22.8340 C.3   471  TRP471      0.1605
     48  C        -55.5470   50.9500  -21.9170 C.2   471  TRP471      0.2264
     49  O        -54.3650   51.2790  -22.0200 O.2   471  TRP471     -0.2867
     50  CB       -56.3720   50.9830  -24.2370 C.3   471  TRP471      0.0550
     51  CG       -57.5800   51.0020  -25.1310 C.ar  471  TRP471      0.0003
     52  CD1      -57.5610   50.9990  -26.4920 C.ar  471  TRP471      0.0946
     53  CD2      -58.9710   51.0130  -24.7550 C.ar  471  TRP471      0.0152
     54  NE1      -58.8350   51.0070  -26.9940 N.ar  471  TRP471     -0.2442
     55  CE2      -59.7220   51.0190  -25.9530 C.ar  471  TRP471      0.0810
     56  CE3      -59.6620   51.0220  -23.5270 C.ar  471  TRP471      0.0012
     57  CZ2      -61.1190   51.0340  -25.9620 C.ar  471  TRP471      0.0191
     58  CZ3      -61.0480   51.0390  -23.5410 C.ar  471  TRP471      0.0001
     59  CH2      -61.7620   51.0430  -24.7500 C.ar  471  TRP471      0.0015
     60  N        -51.5450   51.2610  -34.0710 N.3   488  TRP488     -0.1241
     61  CA       -52.7360   50.4010  -34.1580 C.3   488  TRP488      0.1605
     62  C        -53.8310   51.0330  -35.0210 C.2   488  TRP488      0.2264
     63  O        -54.4390   50.3600  -35.8580 O.2   488  TRP488     -0.2867
     64  CB       -53.2640   50.1170  -32.7430 C.3   488  TRP488      0.0550
     65  CG       -54.6150   49.4520  -32.6720 C.ar  488  TRP488      0.0003
     66  CD1      -54.8780   48.1160  -32.7490 C.ar  488  TRP488      0.0946
     67  CD2      -55.8800   50.1000  -32.4830 C.ar  488  TRP488      0.0152
     68  NE1      -56.2290   47.8900  -32.6300 N.ar  488  TRP488     -0.2442
     69  CE2      -56.8680   49.0900  -32.4670 C.ar  488  TRP488      0.0810
     70  CE3      -56.2770   51.4380  -32.3350 C.ar  488  TRP488      0.0012
     71  CZ2      -58.2310   49.3760  -32.3060 C.ar  488  TRP488      0.0191
     72  CZ3      -57.6340   51.7230  -32.1750 C.ar  488  TRP488      0.0001
     73  CH2      -58.5930   50.6930  -32.1620 C.ar  488  TRP488      0.0015
     74  N        -68.8910   53.8570  -41.4960 N.3   506  GLU506     -0.1231
     75  CA       -68.3140   53.2810  -40.2760 C.3   506  GLU506      0.1699
     76  C        -69.4210   53.0100  -39.2620 C.2   506  GLU506      0.2592
     77  O        -70.0340   53.9420  -38.7430 O.2   506  GLU506     -0.2718
     78  CB       -67.2560   54.2100  -39.6660 C.3   506  GLU506      0.0402
     79  CG       -66.4110   53.5400  -38.5840 C.3   506  GLU506      0.1161
     80  CD       -65.4280   54.4760  -37.8970 C.2   506  GLU506      0.3649
     81  OE1      -65.2880   55.6450  -38.3130 O.co2 506  GLU506     -0.2457
     82  OE2      -64.7910   54.0360  -36.9170 O.co2 506  GLU506     -0.2457
     83  N        -69.6790   51.7310  -38.9940 N.am  507  ILE507     -0.1966
     84  CA       -70.6200   51.3270  -37.9430 C.3   507  ILE507      0.1727
     85  C        -69.8750   51.3410  -36.6070 C.2   507  ILE507      0.2617
     86  O        -68.8320   50.6970  -36.4630 O.2   507  ILE507     -0.2715
     87  CB       -71.2510   49.9460  -38.2270 C.3   507  ILE507      0.0290
     88  CG1      -72.1320   50.0220  -39.4820 C.3   507  ILE507      0.0022
     89  CG2      -72.0870   49.4630  -37.0400 C.3   507  ILE507      0.0023
     90  CD1      -72.5010   48.6780  -40.0750 C.3   507  ILE507      0.0001
     91  N        -70.4240   52.0760  -35.6410 N.am  508  GLY508     -0.1940
     92  CA       -69.7580   52.3270  -34.3630 C.3   508  GLY508      0.2014
     93  C        -68.6480   53.3490  -34.5300 C.2   508  GLY508      0.2639
     94  O        -67.4900   53.0730  -34.2130 O.2   508  GLY508     -0.2714
     95  N        -69.0140   54.5290  -35.0310 N.am  509  VAL509     -0.1963
     96  CA       -68.0470   55.5880  -35.3710 C.3   509  VAL509      0.1727
     97  C        -67.2060   56.0570  -34.1700 C.2   509  VAL509      0.2617
     98  O        -66.0240   56.3780  -34.3250 O.2   509  VAL509     -0.2715
     99  CB       -68.7410   56.7880  -36.0810 C.3   509  VAL509      0.0290
    100  CG1      -69.6280   57.5860  -35.1320 C.3   509  VAL509      0.0023
    101  CG2      -67.7150   57.6930  -36.7520 C.3   509  VAL509      0.0023
    102  N        -67.8240   56.0910  -32.9900 N.am  510  GLY510     -0.1940
    103  CA       -67.1460   56.4820  -31.7530 C.3   510  GLY510      0.2014
    104  C        -66.8430   57.9670  -31.6980 C.2   510  GLY510      0.2639
    105  O        -67.6260   58.7820  -32.1810 O.2   510  GLY510     -0.2714
    106  N        -65.7010   58.3100  -31.1050 N.am  511  SER511     -0.1949
    107  CA       -65.2170   59.6980  -31.0550 C.3   511  SER511      0.1924
    108  C        -64.6580   60.2100  -32.3930 C.2   511  SER511      0.2314
    109  O        -64.3310   61.3920  -32.5110 O.2   511  SER511     -0.2863
    110  CB       -64.1490   59.8500  -29.9660 C.3   511  SER511      0.2116
    111  OG       -62.9740   59.1220  -30.2870 O.3   511  SER511     -0.2180
    112  N        -62.0640   58.3920  -34.4810 N.3   513  LEU513     -0.1231
    113  CA       -60.6410   58.0810  -34.6620 C.3   513  LEU513      0.1693
    114  C        -60.3130   57.7650  -36.1160 C.2   513  LEU513      0.2591
    115  O        -59.2590   58.1600  -36.6080 O.2   513  LEU513     -0.2718
    116  CB       -60.2060   56.9070  -33.7720 C.3   513  LEU513      0.0284
    117  CG       -60.3970   57.0000  -32.2530 C.3   513  LEU513      0.0019
    118  CD1      -59.6440   55.8770  -31.5490 C.3   513  LEU513      0.0001
    119  CD2      -59.9490   58.3390  -31.7020 C.3   513  LEU513      0.0001
    120  N        -61.2130   57.0450  -36.7830 N.am  514  LEU514     -0.1980
    121  CA       -61.1010   56.7720  -38.2210 C.3   514  LEU514      0.1596
    122  C        -61.7500   57.8570  -39.0920 C.2   514  LEU514      0.2287
    123  O        -61.2800   58.1100  -40.2010 O.2   514  LEU514     -0.2864
    124  CB       -61.6900   55.3970  -38.5540 C.3   514  LEU514      0.0297
    125  CG       -60.9580   54.1840  -37.9690 C.3   514  LEU514      0.0022
    126  CD1      -61.7400   52.9140  -38.2520 C.3   514  LEU514      0.0001
    127  CD2      -59.5420   54.0450  -38.5090 C.3   514  LEU514      0.0001
    128  N        -72.6800   55.5370  -38.0060 N.3   528  THR528     -0.1203
    129  CA       -73.7100   55.1630  -37.0270 C.3   528  THR528      0.1994
    130  C        -73.0750   54.8440  -35.6740 C.2   528  THR528      0.2618
    131  O        -71.9340   54.3800  -35.6070 O.2   528  THR528     -0.2717
    132  CB       -74.5660   53.9570  -37.4820 C.3   528  THR528      0.1784
    133  OG1      -73.7590   52.7760  -37.5670 O.3   528  THR528     -0.2211
    134  CG2      -75.2170   54.2250  -38.8300 C.3   528  THR528      0.0376
    135  N        -73.8250   55.1080  -34.6050 N.am  529  ASP529     -0.1959
    136  CA       -73.4110   54.7770  -33.2370 C.3   529  ASP529      0.1840
    137  C        -74.6160   54.8510  -32.3010 C.2   529  ASP529      0.2622
    138  O        -75.3390   55.8430  -32.3030 O.2   529  ASP529     -0.2715
    139  CB       -72.3140   55.7310  -32.7490 C.3   529  ASP529      0.1450
    140  CG       -71.5610   55.1950  -31.5440 C.2   529  ASP529      0.3671
    141  OD1      -72.1540   55.1370  -30.4480 O.co2 529  ASP529     -0.2456
    142  OD2      -70.3690   54.8470  -31.6880 O.co2 529  ASP529     -0.2456
    143  N        -74.8060   53.8130  -31.4910 N.am  530  PHE530     -0.1960
    144  CA       -75.9750   53.7150  -30.5930 C.3   530  PHE530      0.1771
    145  C        -75.9620   54.6250  -29.3530 C.2   530  PHE530      0.2620
    146  O        -76.9790   54.7440  -28.6690 O.2   530  PHE530     -0.2715
    147  CB       -76.2730   52.2410  -30.2270 C.3   530  PHE530      0.0574
    148  CG       -75.3660   51.6200  -29.1740 C.ar  530  PHE530     -0.0200
    149  CD1      -74.0870   52.1060  -28.8680 C.ar  530  PHE530     -0.0042
    150  CD2      -75.8060   50.4780  -28.5070 C.ar  530  PHE530     -0.0042
    151  CE1      -73.3010   51.4850  -27.9060 C.ar  530  PHE530     -0.0003
    152  CE2      -75.0190   49.8550  -27.5500 C.ar  530  PHE530     -0.0003
    153  CZ       -73.7650   50.3580  -27.2500 C.ar  530  PHE530     -0.0000
    154  N        -74.8260   55.2670  -29.0820 N.am  531  SER531     -0.1950
    155  CA       -74.7030   56.2350  -27.9920 C.3   531  SER531      0.1924
    156  C        -74.9590   57.6460  -28.5300 C.2   531  SER531      0.2314
    157  O        -74.1720   58.1640  -29.3210 O.2   531  SER531     -0.2863
    158  CB       -73.3160   56.1340  -27.3490 C.3   531  SER531      0.2116
    159  OG       -73.0860   57.1810  -26.4190 O.3   531  SER531     -0.2180
    160  N        -78.0750   55.2480  -34.0870 N.3   557  GLN557     -0.1231
    161  CA       -78.8260   53.9960  -34.1700 C.3   557  GLN557      0.1698
    162  C        -77.9420   52.7730  -33.9540 C.2   557  GLN557      0.2592
    163  O        -76.7120   52.8440  -34.0420 O.2   557  GLN557     -0.2718
    164  CB       -79.5660   53.8880  -35.5110 C.3   557  GLN557      0.0381
    165  CG       -78.7060   54.1200  -36.7450 C.3   557  GLN557      0.0905
    166  CD       -79.4910   53.9540  -38.0350 C.2   557  GLN557      0.2608
    167  OE1      -79.7520   54.9270  -38.7460 O.2   557  GLN557     -0.2717
    168  NE2      -79.8800   52.7180  -38.3390 N.am  557  GLN557     -0.0878
    169  N        -78.6000   51.6510  -33.6730 N.am  558  HIS558     -0.1962
    170  CA       -77.9280   50.3840  -33.4080 C.3   558  HIS558      0.1787
    171  C        -77.3720   49.7980  -34.7020 C.2   558  HIS558      0.2620
    172  O        -77.8430   50.1150  -35.7970 O.2   558  HIS558     -0.2715
    173  CB       -78.8930   49.3920  -32.7480 C.3   558  HIS558      0.0785
    174  CG       -79.3000   49.7740  -31.3560 C.ar  558  HIS558      0.0821
    175  ND1      -79.1590   48.9240  -30.2790 N.ar  558  HIS558     -0.2267
    176  CD2      -79.8420   50.9140  -30.8650 C.ar  558  HIS558      0.1154
    177  CE1      -79.5980   49.5230  -29.1870 C.ar  558  HIS558      0.1986
    178  NE2      -80.0170   50.7320  -29.5140 N.ar  558  HIS558     -0.2212
    179  N        -76.3670   48.9420  -34.5600 N.am  559  ALA559     -0.1977
    180  CA       -75.7070   48.3060  -35.7010 C.3   559  ALA559      0.1597
    181  C        -76.6390   47.3050  -36.3950 C.2   559  ALA559      0.2287
    182  O        -76.6300   47.1790  -37.6180 O.2   559  ALA559     -0.2864
    183  CB       -74.4300   47.6220  -35.2410 C.3   559  ALA559      0.0319
    184  N        -64.6440   48.5160  -37.0690 N.3   576  ASN576     -0.1225
    185  CA       -63.3550   48.4850  -36.3660 C.3   576  ASN576      0.1785
    186  C        -63.5290   48.5870  -34.8510 C.2   576  ASN576      0.2598
    187  O        -63.9930   49.6090  -34.3420 O.2   576  ASN576     -0.2718
    188  CB       -62.4360   49.6040  -36.8580 C.3   576  ASN576      0.1169
    189  CG       -61.0080   49.4480  -36.3520 C.2   576  ASN576      0.2627
    190  OD1      -60.3530   48.4360  -36.6170 O.2   576  ASN576     -0.2716
    191  ND2      -60.5190   50.4460  -35.6180 N.am  576  ASN576     -0.0877
    192  N        -63.1470   47.5190  -34.1510 N.am  577  SER577     -0.1938
    193  CA       -63.1940   47.4440  -32.6820 C.3   577  SER577      0.2055
    194  C        -64.5860   47.7580  -32.1160 C.2   577  SER577      0.2642
    195  O        -64.7320   48.5390  -31.1720 O.2   577  SER577     -0.2714
    196  CB       -62.1250   48.3530  -32.0660 C.3   577  SER577      0.2130
    197  OG       -61.9670   48.0830  -30.6850 O.3   577  SER577     -0.2179
    198  N        -65.5910   47.1350  -32.7260 N.am  578  VAL578     -0.1977
    199  CA       -67.0040   47.2850  -32.3340 C.3   578  VAL578      0.1596
    200  C        -67.7340   45.9360  -32.1710 C.2   578  VAL578      0.2287
    201  O        -68.5830   45.8010  -31.2880 O.2   578  VAL578     -0.2864
    202  CB       -67.7570   48.2210  -33.3180 C.3   578  VAL578      0.0276
    203  CG1      -67.6870   47.7040  -34.7480 C.3   578  VAL578      0.0022
    204  CG2      -69.2060   48.4430  -32.8910 C.3   578  VAL578      0.0022
    205  N        -68.5530   44.1430  -28.7550 N.3   581  TYR581     -0.1227
    206  CA       -69.6630   44.5840  -27.8970 C.3   581  TYR581      0.1736
    207  C        -71.0400   44.0390  -28.3080 C.2   581  TYR581      0.2595
    208  O        -72.0610   44.4750  -27.7660 O.2   581  TYR581     -0.2718
    209  CB       -69.6880   46.1150  -27.8330 C.3   581  TYR581      0.0548
    210  CG       -68.3360   46.6880  -27.4850 C.ar  581  TYR581     -0.0200
    211  CD1      -67.7910   46.5100  -26.2140 C.ar  581  TYR581     -0.0009
    212  CD2      -67.5790   47.3680  -28.4350 C.ar  581  TYR581     -0.0009
    213  CE1      -66.5400   47.0130  -25.8920 C.ar  581  TYR581      0.0417
    214  CE2      -66.3270   47.8750  -28.1230 C.ar  581  TYR581      0.0417
    215  CZ       -65.8110   47.6910  -26.8530 C.ar  581  TYR581      0.1957
    216  OH       -64.5730   48.1960  -26.5420 O.3   581  TYR581     -0.2866
    217  N        -71.0710   43.0880  -29.2440 N.am  582  PHE582     -0.1976
    218  CA       -72.3220   42.4380  -29.6540 C.3   582  PHE582      0.1639
    219  C        -72.6430   41.2450  -28.7450 C.2   582  PHE582      0.2290
    220  O        -71.7290   40.6060  -28.2220 O.2   582  PHE582     -0.2864
    221  CB       -72.2540   41.9820  -31.1190 C.3   582  PHE582      0.0560
    222  CG       -72.0110   43.0950  -32.1180 C.ar  582  PHE582     -0.0200
    223  CD1      -72.2890   44.4390  -31.8280 C.ar  582  PHE582     -0.0042
    224  CD2      -71.5330   42.7830  -33.3850 C.ar  582  PHE582     -0.0042
    225  CE1      -72.0630   45.4320  -32.7700 C.ar  582  PHE582     -0.0003
    226  CE2      -71.3110   43.7750  -34.3290 C.ar  582  PHE582     -0.0003
    227  CZ       -71.5750   45.1000  -34.0220 C.ar  582  PHE582     -0.0000
    228  N        -76.4770   37.9830  -33.8080 N.3   587  TYR587     -0.1241
    229  CA       -76.4170   39.4480  -33.9080 C.3   587  TYR587      0.1605
    230  C        -75.3070   39.8910  -34.8660 C.2   587  TYR587      0.2264
    231  O        -75.5220   40.7760  -35.6960 O.2   587  TYR587     -0.2867
    232  CB       -76.1920   40.0610  -32.5210 C.3   587  TYR587      0.0534
    233  CG       -76.3880   41.5680  -32.4230 C.ar  587  TYR587     -0.0201
    234  CD1      -75.3890   42.4560  -32.8370 C.ar  587  TYR587     -0.0009
    235  CD2      -77.5500   42.1070  -31.8650 C.ar  587  TYR587     -0.0009
    236  CE1      -75.5570   43.8310  -32.7290 C.ar  587  TYR587      0.0417
    237  CE2      -77.7240   43.4800  -31.7520 C.ar  587  TYR587      0.0417
    238  CZ       -76.7240   44.3380  -32.1820 C.ar  587  TYR587      0.1957
    239  OH       -76.8930   45.7000  -32.0730 O.3   587  TYR587     -0.2866
@<TRIPOS>BOND
     1    74    75    1
     2    75    78    1
     3    75    76    1
     4   123   122    2
     5    90    88    1
     6    78    79    1
     7    88    87    1
     8    76    83   am
     9    76    77    2
    10   122   121    1
    11    83    84    1
    12   134   132    1
    13   167   166    2
    14    79    80    1
    15   124   121    1
    16   124   125    1
    17   127   125    1
    18   168   166   am
    19    81    80   ar
    20   126   125    1
    21    87    84    1
    22    87    89    1
    23   121   120    1
    24   166   165    1
    25   128   129    1
    26    84    85    1
    27    80    82   ar
    28   182   181    2
    29   133   132    1
    30   132   129    1
    31   184   185    1
    32   129   130    1
    33   188   185    1
    34   188   189    1
    35   120   114   am
    36   101    99    1
    37   165   164    1
    38   190   189    2
    39   115   114    2
    40    85    86    2
    41    85    91   am
    42   181   180    1
    43   185   186    1
    44   189   191   am
    45   114   113    1
    46    99    96    1
    47    99   100    1
    48    63    62    2
    49   172   171    2
    50   180   183    1
    51   180   179    1
    52   231   230    2
    53   130   131    2
    54   130   135   am
    55    91    92    1
    56   164   161    1
    57    96    95    1
    58    96    97    1
    59    95    93   am
    60    62    61    1
    61   230   229    1
    62   186   187    2
    63   186   192   am
    64   203   202    1
    65   171   179   am
    66   171   170    1
    67   113   112    1
    68   113   116    1
    69   135   136    1
    70    93    92    1
    71    93    94    2
    72   226   227   ar
    73   226   224   ar
    74    98    97    2
    75    97   102   am
    76   161   160    1
    77   161   162    1
    78    61    60    1
    79    61    64    1
    80   192   193    1
    81   163   162    2
    82   227   225   ar
    83   162   169   am
    84   229   228    1
    85   229   232    1
    86   116   117    1
    87   169   170    1
    88   170   173    1
    89   224   222   ar
    90   202   204    1
    91   202   199    1
    92   136   139    1
    93   136   137    1
    94   102   103    1
    95   234   236   ar
    96   234   233   ar
    97   225   223   ar
    98   139   140    1
    99    66    65   ar
   100    66    68   ar
   101   173   174    1
   102    64    65    1
   103   236   238   ar
   104   198   199    1
   105   198   194   am
   106   193   194    1
   107   193   196    1
   108    65    67   ar
   109    68    69   ar
   110   232   233    1
   111   109   108    2
   112    67    69   ar
   113    67    70   ar
   114    69    71   ar
   115   233   235   ar
   116   108   107    1
   117    70    72   ar
   118   199   200    1
   119    71    73   ar
   120   138   137    2
   121   137   143   am
   122   117   119    1
   123   117   118    1
   124   238   239    1
   125   238   237   ar
   126   105   104    2
   127    72    73   ar
   128   200   201    2
   129   222   223   ar
   130   222   221    1
   131   194   195    2
   132   196   197    1
   133   235   237   ar
   134   103   104    1
   135   104   106   am
   136   142   140   ar
   137   140   141   ar
   138   143   144    1
   139   174   176   ar
   140   174   175   ar
   141   221   218    1
   142   106   107    1
   143   107   110    1
   144   176   178   ar
   145   144   147    1
   146   144   145    1
   147   111   110    1
   148   175   177   ar
   149   147   148    1
   150   218   217    1
   151   218   219    1
   152   178   177   ar
   153   145   154   am
   154   145   146    2
   155   157   156    2
   156   217   207   am
   157   148   149   ar
   158   148   150   ar
   159   154   155    1
   160   149   151   ar
   161   205   206    1
   162   219   220    2
   163   156   155    1
   164   150   152   ar
   165   212   214   ar
   166   212   210   ar
   167   207   206    1
   168   207   208    2
   169   214   215   ar
   170    45    44    1
   171   155   158    1
   172   151   153   ar
   173   206   209    1
   174   209   210    1
   175     7     5    1
   176     6     5    1
   177   152   153   ar
   178   210   211   ar
   179   158   159    1
   180    44    42   ar
   181    44    43   ar
   182    54    52   ar
   183    54    55   ar
   184    42    40   ar
   185     5     2    1
   186    43    41   ar
   187   215   216    1
   188   215   213   ar
   189    52    51   ar
   190   211   213   ar
   191    33    32    1
   192    40    39   ar
   193    41    39   ar
   194    57    55   ar
   195    57    59   ar
   196    55    53   ar
   197    32    31   ar
   198    32    30   ar
   199    31    29   ar
   200    39    38    1
   201     2     3    1
   202     2     1    1
   203    30    28   ar
   204    29    27   ar
   205    28    27   ar
   206    51    53   ar
   207    51    50    1
   208    27    26    1
   209     4     3    2
   210    38    35    1
   211    53    56   ar
   212    59    58   ar
   213    26    23    1
   214    14    16   ar
   215    14    13   ar
   216    12    13    1
   217    12     9    1
   218    50    47    1
   219    16    17   ar
   220    13    15   ar
   221    17    15   ar
   222    17    19   ar
   223    15    18   ar
   224    58    56   ar
   225    35    36    1
   226    35    34    1
   227    10    11    2
   228    10     9    1
   229    37    36    2
   230    25    24    2
   231    23    24    1
   232    23    22    1
   233    19    21   ar
   234     9     8    1
   235    18    20   ar
   236    47    46    1
   237    47    48    1
   238    21    20   ar
   239    49    48    2
