@<TRIPOS>MOLECULE
tmp/5wmmA00.pdb
 203 197 0 0 0
SMALL
GASTEIGER

@<TRIPOS>ATOM
      1  N        -83.3930    1.2320   -4.7200 N.3   139  THR139     -0.1218
      2  CA       -82.0050    1.6430   -4.9300 C.3   139  THR139      0.1862
      3  C        -81.9460    2.7220   -6.0080 C.2   139  THR139      0.2287
      4  O        -82.9280    2.9620   -6.7180 O.2   139  THR139     -0.2866
      5  CB       -81.1180    0.4550   -5.3530 C.3   139  THR139      0.1770
      6  OG1      -81.7300   -0.2490   -6.4420 O.3   139  THR139     -0.2211
      7  CG2      -80.9180   -0.5020   -4.1890 C.3   139  THR139      0.0375
      8  N        -83.6160    1.8480    3.8780 N.3   181  PHE181     -0.1227
      9  CA       -82.3480    1.1210    3.7350 C.3   181  PHE181      0.1736
     10  C        -82.4870   -0.2800    4.3330 C.2   181  PHE181      0.2595
     11  O        -83.1340   -0.4570    5.3660 O.2   181  PHE181     -0.2718
     12  CB       -81.2240    1.9030    4.4230 C.3   181  PHE181      0.0547
     13  CG       -79.8400    1.3730    4.1480 C.ar  181  PHE181     -0.0202
     14  CD1      -79.3590    1.2780    2.8440 C.ar  181  PHE181     -0.0042
     15  CD2      -79.0020    0.9980    5.1960 C.ar  181  PHE181     -0.0042
     16  CE1      -78.0810    0.7980    2.5910 C.ar  181  PHE181     -0.0003
     17  CE2      -77.7240    0.5190    4.9480 C.ar  181  PHE181     -0.0003
     18  CZ       -77.2610    0.4230    3.6450 C.ar  181  PHE181     -0.0000
     19  N        -81.8700   -1.2680    3.6860 N.am  182  ASP182     -0.1960
     20  CA       -82.1190   -2.6820    4.0160 C.3   182  ASP182      0.1840
     21  C        -81.3820   -3.2320    5.2420 C.2   182  ASP182      0.2621
     22  O        -81.6440   -4.3580    5.6550 O.2   182  ASP182     -0.2715
     23  CB       -81.8970   -3.5800    2.7890 C.3   182  ASP182      0.1450
     24  CG       -80.4400   -3.8680    2.5160 C.2   182  ASP182      0.3671
     25  OD1      -79.5700   -3.0460    2.8780 O.co2 182  ASP182     -0.2456
     26  OD2      -80.1700   -4.9280    1.9160 O.co2 182  ASP182     -0.2456
     27  N        -80.4860   -2.4450    5.8310 N.am  183  ALA183     -0.1977
     28  CA       -79.9480   -2.7570    7.1620 C.3   183  ALA183      0.1597
     29  C        -81.0650   -2.8830    8.2110 C.2   183  ALA183      0.2287
     30  O        -80.9230   -3.6220    9.1820 O.2   183  ALA183     -0.2864
     31  CB       -78.9370   -1.7060    7.5880 C.3   183  ALA183      0.0319
     32  N        -75.8370   -2.5800   14.0530 N.3   224  TRP224     -0.1241
     33  CA       -75.4020   -2.2690   12.6960 C.3   224  TRP224      0.1605
     34  C        -74.8200   -0.8550   12.7280 C.2   224  TRP224      0.2264
     35  O        -75.3830    0.0290   13.3740 O.2   224  TRP224     -0.2867
     36  CB       -76.5710   -2.3380   11.7060 C.3   224  TRP224      0.0550
     37  CG       -76.3820   -1.4660   10.4880 C.ar  224  TRP224      0.0003
     38  CD1      -77.0130   -0.2820   10.2200 C.ar  224  TRP224      0.0946
     39  CD2      -75.4790   -1.6940    9.4000 C.ar  224  TRP224      0.0152
     40  NE1      -76.5690    0.2330    9.0250 N.ar  224  TRP224     -0.2442
     41  CE2      -75.6280   -0.6130    8.5000 C.ar  224  TRP224      0.0810
     42  CE3      -74.5650   -2.7120    9.0920 C.ar  224  TRP224      0.0012
     43  CZ2      -74.8960   -0.5210    7.3100 C.ar  224  TRP224      0.0191
     44  CZ3      -73.8350   -2.6200    7.9070 C.ar  224  TRP224      0.0001
     45  CH2      -74.0080   -1.5300    7.0320 C.ar  224  TRP224      0.0015
     46  N        -70.3390   -2.1860    7.8580 N.3   250  GLY250     -0.1210
     47  CA       -70.1720   -2.3300    6.4180 C.3   250  GLY250      0.1956
     48  C        -70.8000   -1.1900    5.6460 C.2   250  GLY250      0.2612
     49  O        -70.8990   -0.0700    6.1510 O.2   250  GLY250     -0.2717
     50  N        -71.2290   -1.4840    4.4190 N.am  251  GLY251     -0.1942
     51  CA       -71.7720   -0.4740    3.5090 C.3   251  GLY251      0.2014
     52  C        -70.7050   -0.0140    2.5390 C.2   251  GLY251      0.2639
     53  O        -70.8670   -0.1400    1.3350 O.2   251  GLY251     -0.2714
     54  N        -69.6170    0.5270    3.0780 N.am  252  ASP252     -0.1957
     55  CA       -68.4500    0.9420    2.2970 C.3   252  ASP252      0.1840
     56  C        -67.2610    0.1130    2.7730 C.2   252  ASP252      0.2622
     57  O        -67.4310   -0.7800    3.6030 O.2   252  ASP252     -0.2715
     58  CB       -68.1990    2.4420    2.5120 C.3   252  ASP252      0.1450
     59  CG       -67.7310    3.1520    1.2530 C.2   252  ASP252      0.3671
     60  OD1      -66.8560    2.6100    0.5440 O.co2 252  ASP252     -0.2456
     61  OD2      -68.2350    4.2610    0.9790 O.co2 252  ASP252     -0.2456
     62  N        -66.0680    0.3920    2.2440 N.am  253  VAL253     -0.1963
     63  CA       -64.8360   -0.2430    2.7470 C.3   253  VAL253      0.1727
     64  C        -64.6040    0.1560    4.2080 C.2   253  VAL253      0.2616
     65  O        -64.7090    1.3320    4.5660 O.2   253  VAL253     -0.2715
     66  CB       -63.5780    0.0580    1.8860 C.3   253  VAL253      0.0290
     67  CG1      -63.7490   -0.5070    0.4850 C.3   253  VAL253      0.0023
     68  CG2      -63.2470    1.5470    1.8250 C.3   253  VAL253      0.0023
     69  N        -64.3120   -0.8400    5.0410 N.am  254  LEU254     -0.1977
     70  CA       -64.2310   -0.6610    6.4910 C.3   254  LEU254      0.1596
     71  C        -62.7930   -0.3560    6.8990 C.2   254  LEU254      0.2287
     72  O        -61.8640   -1.0320    6.4590 O.2   254  LEU254     -0.2864
     73  CB       -64.7430   -1.9160    7.2030 C.3   254  LEU254      0.0297
     74  CG       -64.9660   -1.8700    8.7170 C.3   254  LEU254      0.0022
     75  CD1      -66.0260   -0.8490    9.1050 C.3   254  LEU254      0.0001
     76  CD2      -65.3630   -3.2510    9.2170 C.3   254  LEU254      0.0001
     77  N        -67.2900   -7.4990    9.5190 N.3   273  ASN273     -0.1225
     78  CA       -67.3150   -6.7320    8.2770 C.3   273  ASN273      0.1785
     79  C        -68.3630   -7.3200    7.3320 C.2   273  ASN273      0.2598
     80  O        -68.1080   -8.3150    6.6530 O.2   273  ASN273     -0.2718
     81  CB       -65.9350   -6.7070    7.6140 C.3   273  ASN273      0.1169
     82  CG       -65.8840   -5.7990    6.3930 C.2   273  ASN273      0.2627
     83  OD1      -66.6160   -4.8110    6.3040 O.2   273  ASN273     -0.2716
     84  ND2      -65.0100   -6.1280    5.4460 N.am  273  ASN273     -0.0877
     85  N        -69.5360   -6.6910    7.3010 N.am  274  GLY274     -0.1942
     86  CA       -70.6820   -7.1780    6.5290 C.3   274  GLY274      0.2014
     87  C        -70.7630   -6.6080    5.1240 C.2   274  GLY274      0.2639
     88  O        -70.9850   -5.4080    4.9490 O.2   274  GLY274     -0.2714
     89  N        -70.5810   -7.4730    4.1260 N.am  275  TYR275     -0.1959
     90  CA       -70.7620   -7.1150    2.7130 C.3   275  TYR275      0.1771
     91  C        -72.0960   -7.6500    2.1900 C.2   275  TYR275      0.2620
     92  O        -72.5520   -8.7130    2.6100 O.2   275  TYR275     -0.2715
     93  CB       -69.6100   -7.6690    1.8590 C.3   275  TYR275      0.0574
     94  CG       -69.8730   -7.6140    0.3640 C.ar  275  TYR275     -0.0198
     95  CD1      -70.5030   -8.6750   -0.2950 C.ar  275  TYR275     -0.0009
     96  CD2      -69.5220   -6.4940   -0.3860 C.ar  275  TYR275     -0.0009
     97  CE1      -70.7630   -8.6230   -1.6570 C.ar  275  TYR275      0.0417
     98  CE2      -69.7760   -6.4350   -1.7500 C.ar  275  TYR275      0.0417
     99  CZ       -70.3960   -7.5000   -2.3800 C.ar  275  TYR275      0.1957
    100  OH       -70.6500   -7.4390   -3.7290 O.3   275  TYR275     -0.2866
    101  N        -72.6980   -6.9100    1.2600 N.am  276  GLY276     -0.1940
    102  CA       -73.8510   -7.3900    0.4980 C.3   276  GLY276      0.1998
    103  C        -74.6400   -6.2680   -0.1580 C.2   276  GLY276      0.2481
    104  O        -74.8720   -5.2380    0.4780 O.2   276  GLY276     -0.2729
    105  N        -75.0530   -6.4490   -1.4330 N.am  277  PRO277     -0.2715
    106  CA       -75.9940   -5.5020   -2.0390 C.3   277  PRO277      0.1536
    107  C        -77.4360   -5.7470   -1.5960 C.2   277  PRO277      0.2599
    108  O        -77.7390   -6.7880   -1.0070 O.2   277  PRO277     -0.2715
    109  CB       -75.8440   -5.7750   -3.5370 C.3   277  PRO277      0.0310
    110  CG       -75.4720   -7.2110   -3.6050 C.3   277  PRO277      0.0237
    111  CD       -74.5790   -7.4400   -2.4190 C.3   277  PRO277      0.0939
    112  N        -78.3070   -4.7850   -1.8980 N.am  278  THR278     -0.1951
    113  CA       -79.7460   -4.8630   -1.5900 C.3   278  THR278      0.1897
    114  C        -80.4340   -6.0540   -2.2760 C.2   278  THR278      0.2313
    115  O        -81.3540   -6.6610   -1.7230 O.2   278  THR278     -0.2863
    116  CB       -80.4670   -3.5560   -2.0010 C.3   278  THR278      0.1794
    117  OG1      -79.7690   -2.4320   -1.4560 O.3   278  THR278     -0.2208
    118  CG2      -81.9150   -3.5250   -1.5040 C.3   278  THR278      0.0378
    119  N        -79.4520   -7.7460    2.3180 N.3   282  THR282     -0.1203
    120  CA       -78.5500   -7.2040    3.3590 C.3   282  THR282      0.1994
    121  C        -77.1210   -7.7630    3.3280 C.2   282  THR282      0.2617
    122  O        -76.2140   -7.0870    2.8500 O.2   282  THR282     -0.2717
    123  CB       -79.1510   -7.2470    4.7910 C.3   282  THR282      0.1784
    124  OG1      -78.8100   -8.4650    5.4570 O.3   282  THR282     -0.2211
    125  CG2      -80.6550   -7.0840    4.7680 C.3   282  THR282      0.0376
    126  N        -76.9320   -8.9840    3.8300 N.am  283  PHE283     -0.1975
    127  CA       -75.5960   -9.5840    3.9590 C.3   283  PHE283      0.1639
    128  C        -75.4110  -10.7980    3.0470 C.2   283  PHE283      0.2290
    129  O        -76.1790  -11.7560    3.1160 O.2   283  PHE283     -0.2864
    130  CB       -75.3070   -9.9770    5.4160 C.3   283  PHE283      0.0560
    131  CG       -75.3540   -8.8200    6.3850 C.ar  283  PHE283     -0.0200
    132  CD1      -74.6480   -7.6420    6.1360 C.ar  283  PHE283     -0.0042
    133  CD2      -76.0930   -8.9120    7.5620 C.ar  283  PHE283     -0.0042
    134  CE1      -74.6930   -6.5810    7.0310 C.ar  283  PHE283     -0.0003
    135  CE2      -76.1390   -7.8540    8.4600 C.ar  283  PHE283     -0.0003
    136  CZ       -75.4380   -6.6870    8.1940 C.ar  283  PHE283     -0.0000
    137  N        -63.6390   -8.8640    2.8750 N.3   301  ILE301     -0.1245
    138  CA       -65.0900   -9.0660    3.0690 C.3   301  ILE301      0.1561
    139  C        -65.4400  -10.5070    3.4760 C.2   301  ILE301      0.2260
    140  O        -66.5630  -10.7780    3.9060 O.2   301  ILE301     -0.2867
    141  CB       -65.9430   -8.5940    1.8580 C.3   301  ILE301      0.0252
    142  CG1      -65.5660   -9.3210    0.5560 C.3   301  ILE301      0.0019
    143  CG2      -65.8130   -7.0840    1.6980 C.3   301  ILE301      0.0019
    144  CD1      -66.5750   -9.1460   -0.5620 C.3   301  ILE301      0.0001
    145  N        -68.9820   -5.7670   -8.5140 N.3   367  ASP367     -0.1239
    146  CA       -67.8790   -5.5380   -7.5780 C.3   367  ASP367      0.1674
    147  C        -66.7020   -6.4440   -7.9390 C.2   367  ASP367      0.2266
    148  O        -66.8910   -7.6370   -8.1870 O.2   367  ASP367     -0.2867
    149  CB       -68.3300   -5.8290   -6.1410 C.3   367  ASP367      0.1410
    150  CG       -69.3120   -4.7950   -5.6060 C.2   367  ASP367      0.3668
    151  OD1      -69.0650   -3.5820   -5.7800 O.co2 367  ASP367     -0.2456
    152  OD2      -70.3240   -5.1870   -4.9860 O.co2 367  ASP367     -0.2456
    153  N        -62.2390   -7.3530   -1.2510 N.3   379  PHE379     -0.1241
    154  CA       -62.9310   -6.3450   -2.0620 C.3   379  PHE379      0.1605
    155  C        -61.8990   -5.4180   -2.7060 C.2   379  PHE379      0.2264
    156  O        -61.0540   -4.8540   -2.0080 O.2   379  PHE379     -0.2867
    157  CB       -63.8940   -5.5430   -1.1820 C.3   379  PHE379      0.0534
    158  CG       -64.6580   -4.4790   -1.9230 C.ar  379  PHE379     -0.0203
    159  CD1      -65.7650   -4.8120   -2.6960 C.ar  379  PHE379     -0.0042
    160  CD2      -64.2780   -3.1420   -1.8410 C.ar  379  PHE379     -0.0042
    161  CE1      -66.4740   -3.8320   -3.3770 C.ar  379  PHE379     -0.0003
    162  CE2      -64.9820   -2.1590   -2.5230 C.ar  379  PHE379     -0.0003
    163  CZ       -66.0830   -2.5050   -3.2900 C.ar  379  PHE379     -0.0000
    164  N        -64.6150   -1.3360   -7.7920 N.3   382  ARG382     -0.1245
    165  CA       -65.8880   -1.3280   -8.5070 C.3   382  ARG382      0.1563
    166  C        -65.6400   -1.2450  -10.0180 C.2   382  ARG382      0.2260
    167  O        -64.7220   -0.5570  -10.4670 O.2   382  ARG382     -0.2867
    168  CB       -66.7020   -0.1200   -8.0230 C.3   382  ARG382      0.0307
    169  CG       -68.1270   -0.0150   -8.5430 C.3   382  ARG382      0.0489
    170  CD       -69.0950   -0.8850   -7.7630 C.3   382  ARG382      0.2205
    171  NE       -70.3570   -1.0510   -8.4840 N.pl3 382  ARG382     -0.0865
    172  CZ       -71.3960   -1.7700   -8.0610 C.cat 382  ARG382      0.5346
    173  NH1      -71.3600   -2.4110   -6.8930 N.pl3 382  ARG382      0.1354
    174  NH2      -72.4890   -1.8470   -8.8160 N.pl3 382  ARG382      0.1354
    175  N        -70.6510    3.4820  -10.1620 N.3   386  GLN386     -0.1245
    176  CA       -71.3670    3.5140   -8.8790 C.3   386  GLN386      0.1566
    177  C        -70.4150    3.8430   -7.7310 C.2   386  GLN386      0.2260
    178  O        -69.2440    3.4570   -7.7550 O.2   386  GLN386     -0.2867
    179  CB       -72.0560    2.1700   -8.6080 C.3   386  GLN386      0.0367
    180  CG       -72.9630    2.1500   -7.3810 C.3   386  GLN386      0.0905
    181  CD       -73.6640    0.8150   -7.1950 C.2   386  GLN386      0.2608
    182  OE1      -74.3580    0.3450   -8.0950 O.2   386  GLN386     -0.2717
    183  NE2      -73.4920    0.1990   -6.0260 N.am  386  GLN386     -0.0878
    184  N        -70.4830    5.1560   -3.1860 N.3   388  LYS388     -0.1245
    185  CA       -71.2200    5.3920   -1.9400 C.3   388  LYS388      0.1561
    186  C        -70.8160    6.6840   -1.2210 C.2   388  LYS388      0.2260
    187  O        -69.6330    6.9340   -0.9860 O.2   388  LYS388     -0.2867
    188  CB       -71.0880    4.1860   -1.0060 C.3   388  LYS388      0.0271
    189  CG       -72.1780    3.1530   -1.2420 C.3   388  LYS388      0.0035
    190  CD       -72.0990    2.0110   -0.2540 C.3   388  LYS388      0.0206
    191  CE       -73.3910    1.2080   -0.1980 C.3   388  LYS388      0.1093
    192  NZ       -74.5090    1.8740    0.5200 N.3   388  LYS388     -0.1314
    193  N        -76.0700    4.4330   -1.4140 N.3   393  ARG393     -0.1245
    194  CA       -75.6760    3.9620   -2.7380 C.3   393  ARG393      0.1563
    195  C        -76.1440    4.9610   -3.7920 C.2   393  ARG393      0.2260
    196  O        -77.3460    5.1820   -3.9510 O.2   393  ARG393     -0.2867
    197  CB       -76.2910    2.5830   -2.9880 C.3   393  ARG393      0.0307
    198  CG       -76.1430    2.0370   -4.4000 C.3   393  ARG393      0.0489
    199  CD       -76.5870    0.5830   -4.4510 C.3   393  ARG393      0.2205
    200  NE       -77.1680    0.2110   -5.7400 N.pl3 393  ARG393     -0.0865
    201  CZ       -77.6600   -0.9920   -6.0350 C.cat 393  ARG393      0.5346
    202  NH1      -78.1680   -1.2150   -7.2440 N.pl3 393  ARG393      0.1354
    203  NH2      -77.6490   -1.9780   -5.1380 N.pl3 393  ARG393      0.1354
@<TRIPOS>BOND
     1   167   166    2
     2   175   176    1
     3   166   165    1
     4   176   179    1
     5   176   177    1
     6   174   172    1
     7   179   180    1
     8   169   168    1
     9   169   170    1
    10   145   146    1
    11   165   168    1
    12   165   164    1
    13   171   172    2
    14   171   170    1
    15   148   147    2
    16   182   181    2
    17   172   173    1
    18   147   146    1
    19   178   177    2
    20   146   149    1
    21   180   181    1
    22   202   201    1
    23   181   183   am
    24     4     3    2
    25     6     5    1
    26   149   150    1
    27   201   200    2
    28   201   203    1
    29     3     2    1
    30   151   150   ar
    31   200   199    1
    32   150   152   ar
    33     5     2    1
    34     5     7    1
    35     2     1    1
    36   199   198    1
    37   198   197    1
    38   196   195    2
    39   195   194    1
    40   100    99    1
    41   110   109    1
    42   110   111    1
    43   109   106    1
    44   161   163   ar
    45   161   159   ar
    46   163   162   ar
    47   184   185    1
    48   197   194    1
    49   194   193    1
    50   155   154    1
    51   155   156    2
    52   159   158   ar
    53   162   160   ar
    54   111   105    1
    55    99    98   ar
    56    99    97   ar
    57   114   115    2
    58   114   113    1
    59   154   153    1
    60   154   157    1
    61   106   107    1
    62   106   105    1
    63   116   113    1
    64   116   118    1
    65   116   117    1
    66   185   186    1
    67   185   188    1
    68   158   160   ar
    69   158   157    1
    70   112   107   am
    71   112   113    1
    72    98    96   ar
    73    97    95   ar
    74   107   108    2
    75   105   103   am
    76   189   188    1
    77   189   190    1
    78   186   187    2
    79   144   142    1
    80    96    94   ar
    81    95    94   ar
    82   190   191    1
    83   191   192    1
    84   103   104    2
    85   103   102    1
    86    94    93    1
    87    67    66    1
    88   102   101    1
    89    60    59   ar
    90   142   141    1
    91    61    59   ar
    92    59    58    1
    93   101    91   am
    94    53    52    2
    95   143   141    1
    96    68    66    1
    97   141   138    1
    98    93    90    1
    99    66    63    1
   100    26    24   ar
   101    91    92    2
   102    91    90    1
   103    62    63    1
   104    62    56   am
   105    55    58    1
   106    55    56    1
   107    55    54    1
   108   119   120    1
   109    24    23    1
   110    24    25   ar
   111    52    54   am
   112    52    51    1
   113    16    14   ar
   114    16    18   ar
   115    90    89    1
   116    63    64    1
   117    56    57    2
   118    23    20    1
   119    14    13   ar
   120   122   121    2
   121   137   138    1
   122   128   129    2
   123   128   127    1
   124   138   139    1
   125   121   120    1
   126   121   126   am
   127   120   123    1
   128   139   140    2
   129    51    50    1
   130    18    17   ar
   131    19    20    1
   132    19    10   am
   133     9     8    1
   134     9    10    1
   135     9    12    1
   136   126   127    1
   137   127   130    1
   138    20    21    1
   139    89    87   am
   140    13    12    1
   141    13    15   ar
   142    64    65    2
   143    64    69   am
   144    10    11    2
   145    50    48   am
   146   125   123    1
   147   123   124    1
   148    17    15   ar
   149    88    87    2
   150    69    70    1
   151    87    86    1
   152    21    22    2
   153    21    27   am
   154   130   131    1
   155    84    82   am
   156    48    49    2
   157    48    47    1
   158    27    28    1
   159   132   131   ar
   160   132   134   ar
   161    83    82    2
   162   131   133   ar
   163    82    81    1
   164    47    46    1
   165    72    71    2
   166    70    71    1
   167    70    73    1
   168    86    85    1
   169    80    79    2
   170   134   136   ar
   171    45    43   ar
   172    45    44   ar
   173    28    31    1
   174    28    29    1
   175    73    74    1
   176    85    79   am
   177    43    41   ar
   178    79    78    1
   179   133   135   ar
   180    81    78    1
   181    44    42   ar
   182   136   135   ar
   183    29    30    2
   184    78    77    1
   185    41    40   ar
   186    41    39   ar
   187    74    75    1
   188    74    76    1
   189    40    38   ar
   190    42    39   ar
   191    39    37   ar
   192    38    37   ar
   193    37    36    1
   194    36    33    1
   195    33    34    1
   196    33    32    1
   197    34    35    2
