@<TRIPOS>MOLECULE
tmp/5wmsC02.pdb
 94 88 0 0 0
SMALL
GASTEIGER

@<TRIPOS>ATOM
      1  N        -26.9460   29.6630   32.6580 N.3    28  GLY28      -0.1225
      2  CA       -27.9830   28.6930   32.3590 C.3    28  GLY28       0.1811
      3  C        -28.3570   28.7240   30.8890 C.2    28  GLY28       0.2280
      4  O        -29.0920   29.6090   30.4370 O.2    28  GLY28      -0.2866
      5  N        -27.2210   22.0030   30.0510 N.3    74  LEU74      -0.1245
      6  CA       -27.3890   23.3740   30.4860 C.3    74  LEU74       0.1561
      7  C        -26.3460   24.2990   29.8770 C.2    74  LEU74       0.2260
      8  O        -26.2430   25.4570   30.2820 O.2    74  LEU74      -0.2867
      9  CB       -27.3510   23.4510   32.0180 C.3    74  LEU74       0.0270
     10  CG       -28.7270   23.3250   32.6770 C.3    74  LEU74       0.0019
     11  CD1      -28.5890   23.1290   34.1830 C.3    74  LEU74       0.0001
     12  CD2      -29.5820   24.5510   32.3660 C.3    74  LEU74       0.0001
     13  N        -29.4460   17.3870   32.8980 N.3    99  TRP99      -0.1241
     14  CA       -30.5690   18.1860   33.3850 C.3    99  TRP99       0.1605
     15  C        -31.7990   17.8720   32.5240 C.2    99  TRP99       0.2264
     16  O        -31.9010   16.7650   31.9910 O.2    99  TRP99      -0.2867
     17  CB       -30.1650   19.6630   33.3590 C.3    99  TRP99       0.0550
     18  CG       -31.1430   20.6740   33.8840 C.ar   99  TRP99       0.0003
     19  CD1      -31.5020   20.8910   35.1900 C.ar   99  TRP99       0.0946
     20  CD2      -31.8440   21.6520   33.1070 C.ar   99  TRP99       0.0152
     21  NE1      -32.3980   21.9350   35.2610 N.ar   99  TRP99      -0.2442
     22  CE2      -32.6260   22.4130   33.9970 C.ar   99  TRP99       0.0810
     23  CE3      -31.8960   21.9470   31.7390 C.ar   99  TRP99       0.0012
     24  CZ2      -33.4480   23.4520   33.5650 C.ar   99  TRP99       0.0191
     25  CZ3      -32.7160   22.9830   31.3140 C.ar   99  TRP99       0.0001
     26  CH2      -33.4790   23.7180   32.2240 C.ar   99  TRP99       0.0015
     27  N        -34.8520   32.9120   45.0820 N.3   224  HIS224     -0.1241
     28  CA       -35.8520   32.9160   44.0210 C.3   224  HIS224      0.1621
     29  C        -37.2290   33.3200   44.5360 C.2   224  HIS224      0.2264
     30  O        -38.0760   33.7440   43.7410 O.2   224  HIS224     -0.2867
     31  CB       -35.9010   31.5490   43.3480 C.3   224  HIS224      0.0745
     32  CG       -34.6890   31.2420   42.5230 C.ar  224  HIS224      0.0817
     33  ND1      -34.7040   31.2590   41.1450 N.ar  224  HIS224     -0.2268
     34  CD2      -33.4260   30.9060   42.8820 C.ar  224  HIS224      0.1154
     35  CE1      -33.5040   30.9410   40.6900 C.ar  224  HIS224      0.1986
     36  NE2      -32.7110   30.7220   41.7230 N.ar  224  HIS224     -0.2212
     37  N        -28.6670   29.0650   44.0090 N.3   253  ASP253     -0.1239
     38  CA       -29.0440   28.6420   42.6550 C.3   253  ASP253      0.1674
     39  C        -29.1630   29.8590   41.7410 C.2   253  ASP253      0.2266
     40  O        -30.1320   30.0270   40.9960 O.2   253  ASP253     -0.2867
     41  CB       -30.3290   27.8060   42.6720 C.3   253  ASP253      0.1410
     42  CG       -30.6690   27.1670   41.3110 C.2   253  ASP253      0.3668
     43  OD1      -29.7740   26.7010   40.5390 O.co2 253  ASP253     -0.2456
     44  OD2      -31.8900   27.0940   41.0530 O.co2 253  ASP253     -0.2456
     45  N        -27.5060   32.7410   38.8540 N.3   255  LEU255     -0.1245
     46  CA       -26.8870   32.6930   37.5360 C.3   255  LEU255      0.1561
     47  C        -26.4820   34.1070   37.1570 C.2   255  LEU255      0.2260
     48  O        -27.0060   35.0850   37.6930 O.2   255  LEU255     -0.2867
     49  CB       -27.8320   32.1110   36.4700 C.3   255  LEU255      0.0270
     50  CG       -28.6730   30.8720   36.7980 C.3   255  LEU255      0.0019
     51  CD1      -30.0030   31.2390   37.4680 C.3   255  LEU255      0.0001
     52  CD2      -28.9050   30.0270   35.5620 C.3   255  LEU255      0.0001
     53  N        -28.7300   33.8070   31.4050 N.3   258  ILE258     -0.1245
     54  CA       -29.7440   32.7870   31.1560 C.3   258  ILE258      0.1561
     55  C        -30.1950   32.8890   29.7090 C.2   258  ILE258      0.2260
     56  O        -30.5960   33.9660   29.2510 O.2   258  ILE258     -0.2867
     57  CB       -30.9670   32.9200   32.0860 C.3   258  ILE258      0.0252
     58  CG1      -30.5560   32.7830   33.5510 C.3   258  ILE258      0.0019
     59  CG2      -32.0010   31.8660   31.7360 C.3   258  ILE258      0.0019
     60  CD1      -31.6950   32.9430   34.5060 C.3   258  ILE258      0.0001
     61  N        -31.8570   29.6610   28.5130 N.3   260  SER260     -0.1202
     62  CA       -32.8390   28.5790   28.4860 C.3   260  SER260      0.2020
     63  C        -34.1670   28.9810   29.1140 C.2   260  SER260      0.2618
     64  O        -34.8330   28.1530   29.7410 O.2   260  SER260     -0.2717
     65  CB       -32.2710   27.3320   29.1680 C.3   260  SER260      0.2103
     66  OG       -31.3780   26.6590   28.3010 O.3   260  SER260     -0.2182
     67  N        -34.5440   30.2440   28.9690 N.am  261  TYR261     -0.1975
     68  CA       -35.8470   30.7300   29.3750 C.3   261  TYR261      0.1639
     69  C        -36.2300   31.8640   28.4320 C.2   261  TYR261      0.2290
     70  O        -35.6040   32.0540   27.3870 O.2   261  TYR261     -0.2864
     71  CB       -35.8320   31.1550   30.8460 C.3   261  TYR261      0.0560
     72  CG       -37.1750   31.0110   31.5010 C.ar  261  TYR261     -0.0198
     73  CD1      -37.7430   29.7560   31.6820 C.ar  261  TYR261     -0.0009
     74  CD2      -37.8770   32.1210   31.9380 C.ar  261  TYR261     -0.0009
     75  CE1      -38.9690   29.6130   32.2740 C.ar  261  TYR261      0.0417
     76  CE2      -39.1080   31.9880   32.5340 C.ar  261  TYR261      0.0417
     77  CZ       -39.6490   30.7330   32.7010 C.ar  261  TYR261      0.1957
     78  OH       -40.8750   30.6020   33.3000 O.3   261  TYR261     -0.2866
     79  N        -35.2460   37.4050   31.2390 N.3   265  ILE265     -0.1245
     80  CA       -35.5530   36.8860   32.5700 C.3   265  ILE265      0.1561
     81  C        -34.4140   37.1860   33.5370 C.2   265  ILE265      0.2260
     82  O        -34.6530   37.4520   34.7200 O.2   265  ILE265     -0.2867
     83  CB       -35.8740   35.3790   32.5230 C.3   265  ILE265      0.0252
     84  CG1      -36.3470   34.8970   33.9010 C.3   265  ILE265      0.0019
     85  CG2      -34.6540   34.5680   32.0820 C.3   265  ILE265      0.0019
     86  CD1      -37.4820   35.7210   34.4820 C.3   265  ILE265      0.0001
     87  N        -34.6280   38.7020   37.2920 N.3   269  MET269     -0.1245
     88  CA       -34.0900   38.0650   38.4890 C.3   269  MET269      0.1570
     89  C        -33.1190   38.9840   39.2230 C.2   269  MET269      0.2261
     90  O        -33.1660   39.0820   40.4570 O.2   269  MET269     -0.2867
     91  CB       -33.4240   36.7440   38.1090 C.3   269  MET269      0.0387
     92  CG       -34.4100   35.7440   37.5280 C.3   269  MET269      0.0595
     93  SD       -33.6940   34.1420   37.1420 S.3   269  MET269     -0.1393
     94  CE       -32.9620   33.7140   38.7210 C.3   269  MET269      0.0692
@<TRIPOS>BOND
     1    70    69    2
     2    66    65    1
     3    69    68    1
     4    62    61    1
     5    62    63    1
     6    62    65    1
     7    67    63   am
     8    67    68    1
     9    63    64    2
    10    56    55    2
    11    68    71    1
    12    55    54    1
    13     7     8    2
    14     7     6    1
    15     5     6    1
    16     4     3    2
    17     6     9    1
    18    71    72    1
    19     3     2    1
    20    54    53    1
    21    54    57    1
    22    79    80    1
    23    25    23   ar
    24    25    26   ar
    25    72    73   ar
    26    72    74   ar
    27    73    75   ar
    28    59    57    1
    29    23    20   ar
    30    74    76   ar
    31    16    15    2
    32     9    10    1
    33    85    83    1
    34    57    58    1
    35    26    24   ar
    36    75    77   ar
    37     2     1    1
    38    12    10    1
    39    83    80    1
    40    83    84    1
    41    15    14    1
    42    76    77   ar
    43    80    81    1
    44    10    11    1
    45    77    78    1
    46    13    14    1
    47    20    18   ar
    48    20    22   ar
    49    17    14    1
    50    17    18    1
    51    81    82    2
    52    58    60    1
    53    24    22   ar
    54    18    19   ar
    55    84    86    1
    56    22    21   ar
    57    19    21   ar
    58    52    50    1
    59    49    50    1
    60    49    46    1
    61    50    51    1
    62    93    92    1
    63    93    94    1
    64    47    46    1
    65    47    48    2
    66    87    88    1
    67    92    91    1
    68    46    45    1
    69    91    88    1
    70    88    89    1
    71    89    90    2
    72    43    42   ar
    73    35    33   ar
    74    35    36   ar
    75    40    39    2
    76    44    42   ar
    77    33    32   ar
    78    42    41    1
    79    36    34   ar
    80    39    38    1
    81    32    34   ar
    82    32    31    1
    83    38    41    1
    84    38    37    1
    85    31    28    1
    86    30    29    2
    87    28    29    1
    88    28    27    1
