@<TRIPOS>MOLECULE
tmp/5wmtA00.pdb
 163 152 0 0 0
SMALL
GASTEIGER

@<TRIPOS>ATOM
      1  N        -15.3190  -35.6630  -49.4340 N.3    31  LEU31      -0.1245
      2  CA       -15.7030  -34.5240  -50.2620 C.3    31  LEU31       0.1561
      3  C        -17.2190  -34.3720  -50.3220 C.2    31  LEU31       0.2260
      4  O        -17.7430  -33.2560  -50.2230 O.2    31  LEU31      -0.2867
      5  CB       -15.1220  -34.6790  -51.6670 C.3    31  LEU31       0.0270
      6  CG       -13.6030  -34.5500  -51.7810 C.3    31  LEU31       0.0019
      7  CD1      -13.1250  -34.9400  -53.1700 C.3    31  LEU31       0.0001
      8  CD2      -13.1620  -33.1380  -51.4360 C.3    31  LEU31       0.0001
      9  N        -18.3720  -33.4010  -46.5350 N.3    34  ASN34      -0.1225
     10  CA       -18.0520  -32.0340  -46.1380 C.3    34  ASN34       0.1785
     11  C        -18.8890  -31.0220  -46.9100 C.2    34  ASN34       0.2597
     12  O        -19.3030  -29.9980  -46.3530 O.2    34  ASN34      -0.2718
     13  CB       -16.5610  -31.7660  -46.3370 C.3    34  ASN34       0.1169
     14  CG       -15.6940  -32.6090  -45.4240 C.2    34  ASN34       0.2627
     15  OD1      -16.0780  -32.9130  -44.2930 O.2    34  ASN34      -0.2716
     16  ND2      -14.5190  -32.9950  -45.9120 N.am   34  ASN34      -0.0877
     17  N        -19.1460  -31.2900  -48.1930 N.am   35  ALA35      -0.1979
     18  CA       -20.0140  -30.4110  -48.9700 C.3    35  ALA35       0.1597
     19  C        -21.4310  -30.4120  -48.4160 C.2    35  ALA35       0.2287
     20  O        -22.1010  -29.3720  -48.3980 O.2    35  ALA35      -0.2864
     21  CB       -20.0120  -30.8320  -50.4390 C.3    35  ALA35       0.0319
     22  N        -21.6030  -28.1930  -45.3490 N.3    38  ALA38      -0.1245
     23  CA       -21.6270  -26.7800  -45.7110 C.3    38  ALA38       0.1562
     24  C        -22.9920  -26.3770  -46.2480 C.2    38  ALA38       0.2260
     25  O        -23.4770  -25.2750  -45.9640 O.2    38  ALA38      -0.2867
     26  CB       -20.5340  -26.4800  -46.7360 C.3    38  ALA38       0.0290
     27  N        -19.7960  -27.0790  -54.2900 N.3    76  ASP76      -0.1239
     28  CA       -21.0550  -26.9720  -53.5710 C.3    76  ASP76       0.1674
     29  C        -21.3820  -25.5030  -53.3560 C.2    76  ASP76       0.2266
     30  O        -20.4930  -24.6470  -53.3360 O.2    76  ASP76      -0.2867
     31  CB       -21.0110  -27.7120  -52.2200 C.3    76  ASP76       0.1410
     32  CG       -20.1250  -27.0200  -51.1980 C.2    76  ASP76       0.3668
     33  OD1      -20.5940  -26.0630  -50.5460 O.co2  76  ASP76      -0.2456
     34  OD2      -18.9580  -27.4410  -51.0410 O.co2  76  ASP76      -0.2456
     35  N        -22.1390  -22.8800  -47.2520 N.3    79  VAL79      -0.1231
     36  CA       -21.9390  -21.6290  -46.5280 C.3    79  VAL79       0.1692
     37  C        -20.7130  -20.8850  -47.0430 C.2    79  VAL79       0.2593
     38  O        -20.6400  -19.6540  -46.9450 O.2    79  VAL79      -0.2718
     39  CB       -21.8430  -21.9080  -45.0150 C.3    79  VAL79       0.0266
     40  CG1      -20.5660  -22.6720  -44.6870 C.3    79  VAL79       0.0020
     41  CG2      -21.9260  -20.6110  -44.2220 C.3    79  VAL79       0.0020
     42  N        -19.7450  -21.5980  -47.6110 N.am   80  GLY80      -0.1942
     43  CA       -18.5040  -20.9750  -48.0290 C.3    80  GLY80       0.2014
     44  C        -17.6160  -20.6440  -46.8400 C.2    80  GLY80       0.2638
     45  O        -17.9220  -20.9360  -45.6850 O.2    80  GLY80      -0.2714
     46  N        -16.4860  -20.0120  -47.1440 N.am   81  MET81      -0.1976
     47  CA       -15.5000  -19.6970  -46.1220 C.3    81  MET81       0.1605
     48  C        -14.9600  -18.2900  -46.3240 C.2    81  MET81       0.2287
     49  O        -14.6710  -17.8790  -47.4510 O.2    81  MET81      -0.2864
     50  CB       -14.3420  -20.7030  -46.1370 C.3    81  MET81       0.0413
     51  CG       -14.6390  -21.9970  -45.4020 C.3    81  MET81       0.0598
     52  SD       -13.2550  -23.1480  -45.4710 S.3    81  MET81      -0.1393
     53  CE       -13.2170  -23.5080  -47.2250 C.3    81  MET81       0.0692
     54  N        -10.8940  -17.9670  -42.4290 N.3    85  GLU85      -0.1231
     55  CA       -11.0210  -19.4150  -42.3000 C.3    85  GLU85       0.1699
     56  C         -9.9980  -20.1390  -43.1670 C.2    85  GLU85       0.2592
     57  O         -9.4120  -21.1420  -42.7400 O.2    85  GLU85      -0.2718
     58  CB       -12.4380  -19.8550  -42.6630 C.3    85  GLU85       0.0402
     59  CG       -13.5230  -19.1910  -41.8380 C.3    85  GLU85       0.1161
     60  CD       -14.8740  -19.8610  -42.0000 C.2    85  GLU85       0.3649
     61  OE1      -15.0370  -21.0010  -41.5180 O.co2  85  GLU85      -0.2457
     62  OE2      -15.7720  -19.2460  -42.6120 O.co2  85  GLU85      -0.2457
     63  N         -9.7650  -19.6430  -44.3860 N.am   86  LEU86      -0.1980
     64  CA        -8.7640  -20.2590  -45.2500 C.3    86  LEU86       0.1596
     65  C         -7.3570  -20.0750  -44.7020 C.2    86  LEU86       0.2287
     66  O         -6.4980  -20.9410  -44.9020 O.2    86  LEU86      -0.2864
     67  CB        -8.8560  -19.6850  -46.6640 C.3    86  LEU86       0.0297
     68  CG       -10.1740  -19.9010  -47.4080 C.3    86  LEU86       0.0022
     69  CD1      -10.2480  -18.9990  -48.6280 C.3    86  LEU86       0.0001
     70  CD2      -10.3350  -21.3600  -47.8060 C.3    86  LEU86       0.0001
     71  N         -7.0860  -22.7120  -42.1290 N.3    89  ASN89      -0.1225
     72  CA        -7.3230  -24.0330  -42.7100 C.3    89  ASN89       0.1785
     73  C         -7.3670  -25.1260  -41.6440 C.2    89  ASN89       0.2597
     74  O         -8.4040  -25.3310  -41.0060 O.2    89  ASN89      -0.2718
     75  CB        -6.2810  -24.3620  -43.7910 C.3    89  ASN89       0.1169
     76  CG        -4.8610  -24.0330  -43.3750 C.2    89  ASN89       0.2627
     77  OD1       -4.1220  -24.9020  -42.9110 O.2    89  ASN89      -0.2716
     78  ND2       -4.4660  -22.7770  -43.5550 N.am   89  ASN89      -0.0877
     79  N         -6.2540  -25.8270  -41.4350 N.am   90  LEU90      -0.1980
     80  CA        -6.1830  -26.8730  -40.4250 C.3    90  LEU90       0.1596
     81  C         -5.1120  -26.6290  -39.3740 C.2    90  LEU90       0.2287
     82  O         -4.9010  -27.4950  -38.5170 O.2    90  LEU90      -0.2864
     83  CB        -5.9490  -28.2360  -41.0880 C.3    90  LEU90       0.0297
     84  CG        -7.0710  -28.6480  -42.0400 C.3    90  LEU90       0.0022
     85  CD1       -6.5770  -28.6430  -43.4770 C.3    90  LEU90       0.0001
     86  CD2       -7.6330  -30.0070  -41.6600 C.3    90  LEU90       0.0001
     87  N         -9.0690  -28.3100  -35.0370 N.3   105  LEU105     -0.1245
     88  CA        -9.3390  -28.2770  -36.4710 C.3   105  LEU105      0.1561
     89  C         -9.0820  -29.6360  -37.1100 C.2   105  LEU105      0.2260
     90  O         -9.8690  -30.0960  -37.9460 O.2   105  LEU105     -0.2867
     91  CB        -8.4840  -27.2010  -37.1410 C.3   105  LEU105      0.0270
     92  CG        -8.9810  -25.7600  -37.0240 C.3   105  LEU105      0.0019
     93  CD1       -7.9190  -24.7910  -37.5170 C.3   105  LEU105      0.0001
     94  CD2      -10.2740  -25.5820  -37.7990 C.3   105  LEU105      0.0001
     95  N        -11.7970  -31.6710  -39.4430 N.3   109  PHE109     -0.1241
     96  CA       -11.5380  -31.6760  -40.8750 C.3   109  PHE109      0.1605
     97  C        -10.2760  -32.4230  -41.2880 C.2   109  PHE109      0.2264
     98  O         -9.9600  -32.4440  -42.4830 O.2   109  PHE109     -0.2867
     99  CB       -11.4570  -30.2350  -41.4020 C.3   109  PHE109      0.0534
    100  CG       -12.6600  -29.4000  -41.0690 C.ar  109  PHE109     -0.0203
    101  CD1      -13.8880  -29.6670  -41.6550 C.ar  109  PHE109     -0.0042
    102  CD2      -12.5630  -28.3450  -40.1750 C.ar  109  PHE109     -0.0042
    103  CE1      -14.9980  -28.8980  -41.3520 C.ar  109  PHE109     -0.0003
    104  CE2      -13.6690  -27.5730  -39.8690 C.ar  109  PHE109     -0.0003
    105  CZ       -14.8880  -27.8490  -40.4590 C.ar  109  PHE109     -0.0000
    106  N        -10.9420  -35.4270  -43.6830 N.3   112  GLY112     -0.1210
    107  CA       -11.4030  -34.9430  -44.9740 C.3   112  GLY112      0.1956
    108  C        -10.2850  -34.3660  -45.8200 C.2   112  GLY112      0.2611
    109  O        -10.2380  -34.5770  -47.0340 O.2   112  GLY112     -0.2717
    110  N         -9.3620  -33.6390  -45.1930 N.am  113  PHE113     -0.1976
    111  CA        -8.3100  -32.9850  -45.9610 C.3   113  PHE113      0.1639
    112  C         -7.1980  -33.9590  -46.3320 C.2   113  PHE113      0.2290
    113  O         -6.8150  -34.0570  -47.5030 O.2   113  PHE113     -0.2864
    114  CB        -7.7430  -31.7990  -45.1790 C.3   113  PHE113      0.0560
    115  CG        -6.6010  -31.1150  -45.8730 C.ar  113  PHE113     -0.0200
    116  CD1       -6.8340  -30.2590  -46.9360 C.ar  113  PHE113     -0.0042
    117  CD2       -5.2930  -31.3320  -45.4670 C.ar  113  PHE113     -0.0042
    118  CE1       -5.7860  -29.6290  -47.5820 C.ar  113  PHE113     -0.0003
    119  CE2       -4.2410  -30.7060  -46.1100 C.ar  113  PHE113     -0.0003
    120  CZ        -4.4890  -29.8520  -47.1680 C.ar  113  PHE113     -0.0000
    121  N         -4.2190  -29.7490  -53.3110 N.3   123  VAL123     -0.1245
    122  CA        -5.6310  -29.4310  -53.1340 C.3   123  VAL123      0.1561
    123  C         -5.7930  -27.9230  -53.2560 C.2   123  VAL123      0.2260
    124  O         -5.0370  -27.1640  -52.6390 O.2   123  VAL123     -0.2867
    125  CB        -6.1610  -29.9330  -51.7760 C.3   123  VAL123      0.0252
    126  CG1       -7.5620  -29.4000  -51.5100 C.3   123  VAL123      0.0019
    127  CG2       -6.1470  -31.4500  -51.7290 C.3   123  VAL123      0.0019
    128  N         -8.6510  -24.8290  -52.9800 N.3   125  VAL125     -0.1245
    129  CA        -9.9590  -24.4730  -52.4430 C.3   125  VAL125      0.1561
    130  C        -10.3340  -23.0950  -52.9680 C.2   125  VAL125      0.2260
    131  O         -9.5880  -22.1270  -52.7810 O.2   125  VAL125     -0.2867
    132  CB        -9.9650  -24.4890  -50.9060 C.3   125  VAL125      0.0252
    133  CG1      -11.2960  -23.9630  -50.3790 C.3   125  VAL125      0.0019
    134  CG2       -9.6910  -25.8890  -50.3790 C.3   125  VAL125      0.0019
    135  N         -7.3990  -20.7960  -52.5410 N.3   137  TRP137     -0.1241
    136  CA        -6.4640  -21.3410  -51.5690 C.3   137  TRP137      0.1605
    137  C         -5.8900  -22.6390  -52.1170 C.2   137  TRP137      0.2264
    138  O         -6.6220  -23.4580  -52.6800 O.2   137  TRP137     -0.2867
    139  CB        -7.1760  -21.5850  -50.2320 C.3   137  TRP137      0.0550
    140  CG        -6.3190  -22.0930  -49.1090 C.ar  137  TRP137      0.0003
    141  CD1       -5.6630  -21.3430  -48.1760 C.ar  137  TRP137      0.0946
    142  CD2       -6.0610  -23.4630  -48.7740 C.ar  137  TRP137      0.0152
    143  NE1       -5.0020  -22.1590  -47.2910 N.ar  137  TRP137     -0.2442
    144  CE2       -5.2290  -23.4650  -47.6370 C.ar  137  TRP137      0.0810
    145  CE3       -6.4460  -24.6870  -49.3300 C.ar  137  TRP137      0.0012
    146  CZ2       -4.7740  -24.6430  -47.0460 C.ar  137  TRP137      0.0191
    147  CZ3       -5.9930  -25.8560  -48.7410 C.ar  137  TRP137      0.0001
    148  CH2       -5.1690  -25.8250  -47.6100 C.ar  137  TRP137      0.0015
    149  N        -18.2450  -23.2980  -52.2050 N.3   159  THR159     -0.1218
    150  CA       -16.8520  -23.7190  -52.2280 C.3   159  THR159      0.1862
    151  C        -16.6290  -24.6960  -53.3740 C.2   159  THR159      0.2287
    152  O        -17.5220  -25.4640  -53.7410 O.2   159  THR159     -0.2866
    153  CB       -16.4460  -24.3740  -50.8950 C.3   159  THR159      0.1770
    154  OG1      -16.9070  -23.5680  -49.8020 O.3   159  THR159     -0.2211
    155  CG2      -14.9360  -24.5270  -50.7990 C.3   159  THR159      0.0375
    156  N        -13.7180  -27.5660  -54.3740 N.3   161  ILE161     -0.1245
    157  CA       -12.5190  -28.3300  -54.0590 C.3   161  ILE161      0.1561
    158  C        -11.9680  -28.8870  -55.3630 C.2   161  ILE161      0.2260
    159  O        -12.6750  -29.5920  -56.0940 O.2   161  ILE161     -0.2867
    160  CB       -12.8110  -29.4550  -53.0540 C.3   161  ILE161      0.0252
    161  CG1      -13.6990  -28.9440  -51.9170 C.3   161  ILE161      0.0019
    162  CG2      -11.5120  -30.0150  -52.5030 C.3   161  ILE161      0.0019
    163  CD1      -13.0220  -27.9390  -51.0100 C.3   161  ILE161      0.0001
@<TRIPOS>BOND
     1   159   158    2
     2   158   157    1
     3   156   157    1
     4    27    28    1
     5   157   160    1
     6   152   151    2
     7    28    29    1
     8    28    31    1
     9   151   150    1
    10    29    30    2
    11   121   122    1
    12   123   122    1
    13   123   124    2
    14     7     6    1
    15   122   125    1
    16   160   162    1
    17   160   161    1
    18   128   129    1
    19   130   131    2
    20   130   129    1
    21   138   137    2
    22   135   136    1
    23   129   132    1
    24   150   149    1
    25   150   153    1
    26    31    32    1
    27   137   136    1
    28   161   163    1
    29     6     5    1
    30     6     8    1
    31   125   127    1
    32   125   126    1
    33     5     2    1
    34   136   139    1
    35    32    34   ar
    36    32    33   ar
    37   132   133    1
    38   132   134    1
    39   153   155    1
    40   153   154    1
    41    21    18    1
    42     3     2    1
    43     3     4    2
    44     2     1    1
    45   139   140    1
    46   145   142   ar
    47   145   147   ar
    48   140   142   ar
    49   140   141   ar
    50    18    19    1
    51    18    17    1
    52   142   144   ar
    53   147   148   ar
    54    69    68    1
    55    19    20    2
    56    17    11   am
    57   141   143   ar
    58    43    42    1
    59    43    44    1
    60    70    68    1
    61   144   143   ar
    62   144   146   ar
    63    42    37   am
    64   148   146   ar
    65   118   120   ar
    66   118   116   ar
    67   113   112    2
    68    49    48    2
    69    68    67    1
    70    35    36    1
    71    53    52    1
    72   120   119   ar
    73    46    44   am
    74    46    47    1
    75    37    38    2
    76    37    36    1
    77   109   108    2
    78   116   115   ar
    79    11    12    2
    80    11    10    1
    81    44    45    2
    82    26    23    1
    83    67    64    1
    84     9    10    1
    85    36    39    1
    86    13    10    1
    87    13    14    1
    88   112   111    1
    89    48    47    1
    90    24    25    2
    91    24    23    1
    92    50    47    1
    93    50    51    1
    94   119   117   ar
    95   111   110    1
    96   111   114    1
    97    16    14   am
    98   115   117   ar
    99   115   114    1
   100   108   110   am
   101   108   107    1
   102    23    22    1
   103    52    51    1
   104    14    15    2
   105    64    65    1
   106    64    63    1
   107    39    40    1
   108    39    41    1
   109   107   106    1
   110    66    65    2
   111    63    56   am
   112    75    76    1
   113    75    72    1
   114    78    76   am
   115    85    84    1
   116    76    77    2
   117    56    57    2
   118    56    55    1
   119    72    71    1
   120    72    73    1
   121    58    55    1
   122    58    59    1
   123    62    60   ar
   124    98    97    2
   125    54    55    1
   126    84    86    1
   127    84    83    1
   128    60    59    1
   129    60    61   ar
   130   101   103   ar
   131   101   100   ar
   132    73    79   am
   133    73    74    2
   134    79    80    1
   135    99   100    1
   136    99    96    1
   137   103   105   ar
   138    97    96    1
   139    83    80    1
   140   100   102   ar
   141    96    95    1
   142   105   104   ar
   143    80    81    1
   144   102   104   ar
   145    81    82    2
   146    90    89    2
   147    94    92    1
   148    93    92    1
   149    91    92    1
   150    91    88    1
   151    89    88    1
   152    88    87    1
