@<TRIPOS>MOLECULE
tmp/5wmwB01.pdb
 120 113 0 0 0
SMALL
GASTEIGER

@<TRIPOS>ATOM
      1  N        184.7080  125.4310  155.2110 N.3   114  TYR114     -0.1241
      2  CA       185.0910  126.7720  154.7360 C.3   114  TYR114      0.1605
      3  C        184.3150  127.1920  153.4880 C.2   114  TYR114      0.2264
      4  O        183.8500  128.3290  153.3970 O.2   114  TYR114     -0.2867
      5  CB       186.5920  126.8100  154.4360 C.3   114  TYR114      0.0534
      6  CG       187.1600  128.1820  154.1360 C.ar  114  TYR114     -0.0201
      7  CD1      187.5750  129.0270  155.1650 C.ar  114  TYR114     -0.0009
      8  CD2      187.3100  128.6230  152.8220 C.ar  114  TYR114     -0.0009
      9  CE1      188.1080  130.2810  154.8940 C.ar  114  TYR114      0.0417
     10  CE2      187.8440  129.8730  152.5400 C.ar  114  TYR114      0.0417
     11  CZ       188.2420  130.7000  153.5770 C.ar  114  TYR114      0.1957
     12  OH       188.7710  131.9390  153.2930 O.3   114  TYR114     -0.2866
     13  N        180.5080  127.9650  154.9770 N.3   117  CYS117     -0.1221
     14  CA       180.2570  129.0480  155.9400 C.3   117  CYS117      0.1808
     15  C        181.0150  130.3550  155.6930 C.2   117  CYS117      0.2601
     16  O        180.7410  131.3500  156.3720 O.2   117  CYS117     -0.2717
     17  CB       180.5390  128.5640  157.3670 C.3   117  CYS117      0.0970
     18  SG       182.2830  128.3070  157.7590 S.3   117  CYS117     -0.0800
     19  N        181.9670  130.3540  154.7570 N.am  118  VAL118     -0.1979
     20  CA       182.6810  131.5740  154.3640 C.3   118  VAL118      0.1595
     21  C        182.4140  131.9110  152.8960 C.2   118  VAL118      0.2287
     22  O        181.9340  133.0030  152.5940 O.2   118  VAL118     -0.2864
     23  CB       184.2040  131.4540  154.6140 C.3   118  VAL118      0.0276
     24  CG1      184.9060  132.7860  154.3610 C.3   118  VAL118      0.0022
     25  CG2      184.4740  130.9710  156.0350 C.3   118  VAL118      0.0022
     26  N        183.4350  137.8820  161.5430 N.3   151  PHE151     -0.1241
     27  CA       184.3610  136.7620  161.4280 C.3   151  PHE151      0.1605
     28  C        184.4070  136.1440  160.0270 C.2   151  PHE151      0.2264
     29  O        185.4930  135.9490  159.4720 O.2   151  PHE151     -0.2867
     30  CB       183.9900  135.7020  162.4580 C.3   151  PHE151      0.0534
     31  CG       184.8310  134.4750  162.3850 C.ar  151  PHE151     -0.0203
     32  CD1      186.1520  134.5030  162.8080 C.ar  151  PHE151     -0.0042
     33  CD2      184.3030  133.2880  161.8850 C.ar  151  PHE151     -0.0042
     34  CE1      186.9320  133.3660  162.7400 C.ar  151  PHE151     -0.0003
     35  CE2      185.0770  132.1490  161.8160 C.ar  151  PHE151     -0.0003
     36  CZ       186.3880  132.1940  162.2430 C.ar  151  PHE151     -0.0000
     37  N        187.3510  136.7730  156.8050 N.3   155  SER155     -0.1217
     38  CA       187.8960  135.5920  156.1220 C.3   155  SER155      0.1889
     39  C        187.6090  135.6300  154.6190 C.2   155  SER155      0.2288
     40  O        188.4870  135.3240  153.8100 O.2   155  SER155     -0.2866
     41  CB       187.3420  134.2970  156.7300 C.3   155  SER155      0.2089
     42  OG       187.8280  134.0960  158.0450 O.3   155  SER155     -0.2183
     43  N        183.8770  135.2570  170.0890 N.3   214  PHE214     -0.1241
     44  CA       184.3780  134.2260  169.1800 C.3   214  PHE214      0.1605
     45  C        184.6200  132.8870  169.8870 C.2   214  PHE214      0.2264
     46  O        184.0830  131.8610  169.4710 O.2   214  PHE214     -0.2867
     47  CB       185.6620  134.6900  168.4750 C.3   214  PHE214      0.0534
     48  CG       186.3680  133.5910  167.7390 C.ar  214  PHE214     -0.0203
     49  CD1      185.8830  133.1360  166.5200 C.ar  214  PHE214     -0.0042
     50  CD2      187.4940  132.9840  168.2810 C.ar  214  PHE214     -0.0042
     51  CE1      186.5180  132.1050  165.8440 C.ar  214  PHE214     -0.0003
     52  CE2      188.1340  131.9530  167.6120 C.ar  214  PHE214     -0.0003
     53  CZ       187.6450  131.5120  166.3900 C.ar  214  PHE214     -0.0000
     54  N        183.0990  129.6110  168.2110 N.3   219  ARG219     -0.1245
     55  CA       184.0850  128.5420  168.0030 C.3   219  ARG219      0.1563
     56  C        183.5400  127.1290  168.2720 C.2   219  ARG219      0.2260
     57  O        184.0550  126.1560  167.7200 O.2   219  ARG219     -0.2867
     58  CB       185.3320  128.8010  168.8590 C.3   219  ARG219      0.0307
     59  CG       186.5530  127.9950  168.4550 C.3   219  ARG219      0.0489
     60  CD       187.7770  128.4650  169.2190 C.3   219  ARG219      0.2205
     61  NE       188.9540  127.6440  168.9360 N.pl3 219  ARG219     -0.0865
     62  CZ       189.2020  126.4360  169.4490 C.cat 219  ARG219      0.5346
     63  NH1      188.3530  125.8460  170.2930 N.pl3 219  ARG219      0.1354
     64  NH2      190.3200  125.8010  169.1050 N.pl3 219  ARG219      0.1354
     65  N        181.7780  125.5630  165.0540 N.3   222  LEU222     -0.1245
     66  CA       182.6990  125.2140  163.9710 C.3   222  LEU222      0.1561
     67  C        183.4160  123.8710  164.1980 C.2   222  LEU222      0.2260
     68  O        183.9370  123.2920  163.2450 O.2   222  LEU222     -0.2867
     69  CB       183.7300  126.3320  163.7880 C.3   222  LEU222      0.0270
     70  CG       183.1550  127.7310  163.5270 C.3   222  LEU222      0.0019
     71  CD1      184.2260  128.7980  163.6990 C.3   222  LEU222      0.0001
     72  CD2      182.5260  127.8120  162.1440 C.3   222  LEU222      0.0001
     73  N        185.3970  122.8130  160.8960 N.3   250  GLY250     -0.1210
     74  CA       185.7360  123.8760  159.9570 C.3   250  GLY250      0.1956
     75  C        187.0370  124.5780  160.3010 C.2   250  GLY250      0.2613
     76  O        187.3590  124.7630  161.4740 O.2   250  GLY250     -0.2717
     77  N        187.7820  124.9550  159.2660 N.am  251  SER251     -0.1938
     78  CA       189.0230  125.7190  159.4070 C.3   251  SER251      0.2055
     79  C        189.3540  126.3710  158.0620 C.2   251  SER251      0.2642
     80  O        188.6160  126.1970  157.0970 O.2   251  SER251     -0.2714
     81  CB       190.1650  124.8090  159.8770 C.3   251  SER251      0.2130
     82  OG       190.4160  123.7680  158.9480 O.3   251  SER251     -0.2179
     83  N        190.4580  127.1100  158.0010 N.am  252  ALA252     -0.1977
     84  CA       190.9120  127.7500  156.7690 C.3   252  ALA252      0.1597
     85  C        192.1410  127.0310  156.2090 C.2   252  ALA252      0.2287
     86  O        192.7400  127.4940  155.2400 O.2   252  ALA252     -0.2864
     87  CB       191.1910  129.2240  156.9970 C.3   252  ALA252      0.0319
     88  N        198.9820  135.5150  161.8090 N.3   334  HIS334     -0.1241
     89  CA       197.9290  134.5320  162.0920 C.3   334  HIS334      0.1621
     90  C        198.0780  133.9030  163.4870 C.2   334  HIS334      0.2264
     91  O        197.0800  133.6720  164.1670 O.2   334  HIS334     -0.2867
     92  CB       197.9130  133.4550  160.9960 C.3   334  HIS334      0.0745
     93  CG       196.8750  132.3940  161.1890 C.ar  334  HIS334      0.0817
     94  ND1      197.1460  131.2110  161.8340 N.ar  334  HIS334     -0.2268
     95  CD2      195.5750  132.3280  160.8100 C.ar  334  HIS334      0.1154
     96  CE1      196.0600  130.4630  161.8550 C.ar  334  HIS334      0.1986
     97  NE2      195.0860  131.1110  161.2320 N.ar  334  HIS334     -0.2212
     98  N        192.1760  132.4430  170.8540 N.3   342  ILE342     -0.1245
     99  CA       192.0890  131.1050  171.4800 C.3   342  ILE342      0.1561
    100  C        192.7900  131.0450  172.8450 C.2   342  ILE342      0.2260
    101  O        192.1600  130.6960  173.8460 O.2   342  ILE342     -0.2867
    102  CB       192.6370  129.9820  170.5560 C.3   342  ILE342      0.0252
    103  CG1      191.7840  129.8850  169.2820 C.3   342  ILE342      0.0019
    104  CG2      192.6640  128.6360  171.2900 C.3   342  ILE342      0.0019
    105  CD1      192.3530  128.9840  168.2020 C.3   342  ILE342      0.0001
    106  N        192.5780  122.5210  167.9850 N.3   355  GLY355     -0.1210
    107  CA       191.8640  123.4110  167.0640 C.3   355  GLY355      0.1956
    108  C        190.5060  122.8680  166.6540 C.2   355  GLY355      0.2613
    109  O        190.1050  121.7840  167.0880 O.2   355  GLY355     -0.2717
    110  N        189.7960  123.6190  165.8130 N.am  356  THR356     -0.1938
    111  CA       188.4940  123.1840  165.2800 C.3   356  THR356      0.2028
    112  C        188.6580  122.0630  164.2470 C.2   356  THR356      0.2642
    113  O        187.8780  121.1080  164.2330 O.2   356  THR356     -0.2714
    114  CB       187.7070  124.3500  164.6440 C.3   356  THR356      0.1808
    115  OG1      188.5580  125.0770  163.7530 O.3   356  THR356     -0.2208
    116  CG2      187.1800  125.2960  165.7120 C.3   356  THR356      0.0379
    117  N        189.6770  122.1860  163.3950 N.am  357  GLY357     -0.1954
    118  CA       190.0280  121.1490  162.4210 C.3   357  GLY357      0.1869
    119  C        190.6180  119.8650  162.9940 C.2   357  GLY357      0.2309
    120  O        190.7770  118.8850  162.2650 O.2   357  GLY357     -0.2863
@<TRIPOS>BOND
     1    10     8   ar
     2    10    11   ar
     3    22    21    2
     4     8     6   ar
     5    21    20    1
     6    12    11    1
     7     4     3    2
     8     3     2    1
     9    11     9   ar
    10    40    39    2
    11     6     5    1
    12     6     7   ar
    13    24    23    1
    14    20    23    1
    15    20    19    1
    16     5     2    1
    17    23    25    1
    18    39    38    1
    19     2     1    1
    20    19    15   am
    21     9     7   ar
    22    13    14    1
    23    86    85    2
    24    15    14    1
    25    15    16    2
    26    14    17    1
    27    38    41    1
    28    38    37    1
    29    85    84    1
    30    41    42    1
    31    84    87    1
    32    84    83    1
    33    80    79    2
    34    17    18    1
    35    83    79   am
    36    79    78    1
    37    82    81    1
    38    77    78    1
    39    77    75   am
    40    78    81    1
    41    29    28    2
    42    74    75    1
    43    74    73    1
    44    28    27    1
    45    75    76    2
    46    95    93   ar
    47    95    97   ar
    48    92    93    1
    49    92    89    1
    50    93    94   ar
    51    97    96   ar
    52    27    26    1
    53    27    30    1
    54    88    89    1
    55    35    33   ar
    56    35    36   ar
    57    94    96   ar
    58    33    31   ar
    59    89    90    1
    60    72    70    1
    61    36    34   ar
    62   120   119    2
    63    31    30    1
    64    31    32   ar
    65   118   119    1
    66   118   117    1
    67    34    32   ar
    68    68    67    2
    69   117   112   am
    70    90    91    2
    71    70    71    1
    72    70    69    1
    73   115   114    1
    74    69    66    1
    75    66    67    1
    76    66    65    1
    77   113   112    2
    78   112   111    1
    79   114   111    1
    80   114   116    1
    81   111   110    1
    82   110   108   am
    83    51    53   ar
    84    51    49   ar
    85    53    52   ar
    86    49    48   ar
    87   108   107    1
    88   108   109    2
    89   107   106    1
    90    52    50   ar
    91    57    56    2
    92    48    50   ar
    93    48    47    1
    94    55    54    1
    95    55    56    1
    96    55    58    1
    97   105   103    1
    98    59    58    1
    99    59    60    1
   100    47    44    1
   101    61    60    1
   102    61    62    2
   103    64    62    1
   104    44    45    1
   105    44    43    1
   106   103   102    1
   107    62    63    1
   108    46    45    2
   109   102   104    1
   110   102    99    1
   111    98    99    1
   112    99   100    1
   113   100   101    2
