@<TRIPOS>MOLECULE
tmp/5wmwB02.pdb
 130 119 0 0 0
SMALL
GASTEIGER

@<TRIPOS>ATOM
      1  N        184.7080  125.4310  155.2110 N.3   114  TYR114     -0.1241
      2  CA       185.0910  126.7720  154.7360 C.3   114  TYR114      0.1605
      3  C        184.3150  127.1920  153.4880 C.2   114  TYR114      0.2264
      4  O        183.8500  128.3290  153.3970 O.2   114  TYR114     -0.2867
      5  CB       186.5920  126.8100  154.4360 C.3   114  TYR114      0.0534
      6  CG       187.1600  128.1820  154.1360 C.ar  114  TYR114     -0.0201
      7  CD1      187.5750  129.0270  155.1650 C.ar  114  TYR114     -0.0009
      8  CD2      187.3100  128.6230  152.8220 C.ar  114  TYR114     -0.0009
      9  CE1      188.1080  130.2810  154.8940 C.ar  114  TYR114      0.0417
     10  CE2      187.8440  129.8730  152.5400 C.ar  114  TYR114      0.0417
     11  CZ       188.2420  130.7000  153.5770 C.ar  114  TYR114      0.1957
     12  OH       188.7710  131.9390  153.2930 O.3   114  TYR114     -0.2866
     13  N        187.3510  136.7730  156.8050 N.3   155  SER155     -0.1217
     14  CA       187.8960  135.5920  156.1220 C.3   155  SER155      0.1889
     15  C        187.6090  135.6300  154.6190 C.2   155  SER155      0.2288
     16  O        188.4870  135.3240  153.8100 O.2   155  SER155     -0.2866
     17  CB       187.3420  134.2970  156.7300 C.3   155  SER155      0.2089
     18  OG       187.8280  134.0960  158.0450 O.3   155  SER155     -0.2183
     19  N        189.6630  138.5730  152.9340 N.3   158  VAL158     -0.1231
     20  CA       191.0690  138.1740  152.7720 C.3   158  VAL158      0.1692
     21  C        191.2000  137.1540  151.6320 C.2   158  VAL158      0.2591
     22  O        192.2060  137.1480  150.9220 O.2   158  VAL158     -0.2718
     23  CB       191.6920  137.6150  154.0750 C.3   158  VAL158      0.0266
     24  CG1      193.1550  137.2430  153.8590 C.3   158  VAL158      0.0020
     25  CG2      191.6100  138.6360  155.2060 C.3   158  VAL158      0.0020
     26  N        190.1940  136.2950  151.4650 N.am  159  GLU159     -0.1979
     27  CA       190.1320  135.3850  150.3140 C.3   159  GLU159      0.1602
     28  C        190.0730  136.1710  149.0000 C.2   159  GLU159      0.2287
     29  O        190.7930  135.8560  148.0520 O.2   159  GLU159     -0.2864
     30  CB       188.9150  134.4490  150.4120 C.3   159  GLU159      0.0415
     31  CG       188.9820  133.2190  149.5080 C.3   159  GLU159      0.1163
     32  CD       189.6970  132.0350  150.1340 C.2   159  GLU159      0.3649
     33  OE1      190.4240  132.2130  151.1350 O.co2 159  GLU159     -0.2457
     34  OE2      189.5320  130.9090  149.6170 O.co2 159  GLU159     -0.2457
     35  N        193.4760  137.9770  148.2790 N.3   162  ALA162     -0.1245
     36  CA       194.4540  137.0430  147.7090 C.3   162  ALA162      0.1562
     37  C        194.0240  136.4390  146.3640 C.2   162  ALA162      0.2260
     38  O        194.8470  135.8420  145.6710 O.2   162  ALA162     -0.2867
     39  CB       194.7680  135.9410  148.7050 C.3   162  ALA162      0.0290
     40  N        199.3410  139.5000  148.1130 N.3   195  LEU195     -0.1245
     41  CA       199.4700  138.8280  149.4180 C.3   195  LEU195      0.1561
     42  C        199.8000  139.7910  150.5640 C.2   195  LEU195      0.2260
     43  O        199.3660  139.5780  151.6960 O.2   195  LEU195     -0.2867
     44  CB       200.5350  137.7240  149.3630 C.3   195  LEU195      0.0270
     45  CG       200.2030  136.4670  148.5580 C.3   195  LEU195      0.0019
     46  CD1      201.4390  135.5910  148.4190 C.3   195  LEU195      0.0001
     47  CD2      199.0640  135.6910  149.2020 C.3   195  LEU195      0.0001
     48  N        196.5360  141.4230  151.2890 N.3   198  ALA198     -0.1245
     49  CA       195.7000  140.4480  152.0120 C.3   198  ALA198      0.1562
     50  C        195.9210  140.4690  153.5320 C.2   198  ALA198      0.2260
     51  O        195.0110  140.1380  154.2920 O.2   198  ALA198     -0.2867
     52  CB       195.9290  139.0420  151.4680 C.3   198  ALA198      0.0290
     53  N        193.3360  141.5160  156.5820 N.3   202  PHE202     -0.1241
     54  CA       193.3120  140.6420  157.7670 C.3   202  PHE202      0.1605
     55  C        193.5270  141.4060  159.0950 C.2   202  PHE202      0.2264
     56  O        193.1610  140.9070  160.1590 O.2   202  PHE202     -0.2867
     57  CB       194.3380  139.5010  157.5630 C.3   202  PHE202      0.0534
     58  CG       194.3090  138.3970  158.6070 C.ar  202  PHE202     -0.0203
     59  CD1      193.1620  138.0720  159.3380 C.ar  202  PHE202     -0.0042
     60  CD2      195.4550  137.6330  158.8140 C.ar  202  PHE202     -0.0042
     61  CE1      193.1850  137.0510  160.2780 C.ar  202  PHE202     -0.0003
     62  CE2      195.4750  136.6050  159.7450 C.ar  202  PHE202     -0.0003
     63  CZ       194.3380  136.3110  160.4750 C.ar  202  PHE202     -0.0000
     64  N        190.4580  127.1100  158.0010 N.3   252  ALA252     -0.1245
     65  CA       190.9120  127.7500  156.7690 C.3   252  ALA252      0.1562
     66  C        192.1410  127.0310  156.2090 C.2   252  ALA252      0.2260
     67  O        192.7400  127.4940  155.2400 O.2   252  ALA252     -0.2867
     68  CB       191.1910  129.2240  156.9970 C.3   252  ALA252      0.0290
     69  N        190.7220  126.2630  153.1220 N.3   255  SER255     -0.1217
     70  CA       190.8680  127.2700  152.0730 C.3   255  SER255      0.1889
     71  C        191.9710  126.8360  151.1230 C.2   255  SER255      0.2288
     72  O        193.0530  126.4420  151.5610 O.2   255  SER255     -0.2866
     73  CB       191.2210  128.6400  152.6610 C.3   255  SER255      0.2089
     74  OG       191.2380  129.6360  151.6530 O.3   255  SER255     -0.2183
     75  N        193.5300  128.8460  149.0530 N.3   257  VAL257     -0.1231
     76  CA       194.4900  129.9440  148.8560 C.3   257  VAL257      0.1692
     77  C        195.7340  129.7480  149.7250 C.2   257  VAL257      0.2592
     78  O        196.8460  130.0630  149.2940 O.2   257  VAL257     -0.2718
     79  CB       193.8970  131.3450  149.1640 C.3   257  VAL257      0.0266
     80  CG1      194.8790  132.4380  148.7770 C.3   257  VAL257      0.0020
     81  CG2      192.6040  131.6060  148.4090 C.3   257  VAL257      0.0020
     82  N        195.5410  129.2430  150.9430 N.am  258  GLY258     -0.1957
     83  CA       196.6550  128.9250  151.8360 C.3   258  GLY258      0.1869
     84  C        197.6240  127.9300  151.2220 C.2   258  GLY258      0.2309
     85  O        198.8260  128.1860  151.1530 O.2   258  GLY258     -0.2863
     86  N        203.9000  135.4010  152.7610 N.3   327  LEU327     -0.1245
     87  CA       203.3330  134.2500  153.4710 C.3   327  LEU327      0.1561
     88  C        203.8180  134.1760  154.9180 C.2   327  LEU327      0.2260
     89  O        203.0180  133.9550  155.8250 O.2   327  LEU327     -0.2867
     90  CB       203.6640  132.9380  152.7470 C.3   327  LEU327      0.0270
     91  CG       203.0370  132.7320  151.3650 C.3   327  LEU327      0.0019
     92  CD1      203.5890  131.4710  150.7180 C.3   327  LEU327      0.0001
     93  CD2      201.5180  132.6650  151.4450 C.3   327  LEU327      0.0001
     94  N        201.9970  136.6940  156.9070 N.3   330  LEU330     -0.1231
     95  CA       200.6350  136.2130  157.1760 C.3   330  LEU330      0.1693
     96  C        200.5920  135.1640  158.2870 C.2   330  LEU330      0.2591
     97  O        199.7300  135.2330  159.1620 O.2   330  LEU330     -0.2718
     98  CB       199.9860  135.6480  155.9060 C.3   330  LEU330      0.0284
     99  CG       199.5080  136.6850  154.8850 C.3   330  LEU330      0.0019
    100  CD1      199.4000  136.0670  153.4990 C.3   330  LEU330      0.0001
    101  CD2      198.1770  137.2980  155.3020 C.3   330  LEU330      0.0001
    102  N        201.5230  134.2100  158.2510 N.am  331  ARG331     -0.1980
    103  CA       201.5870  133.1370  159.2580 C.3   331  ARG331      0.1597
    104  C        202.0350  133.6210  160.6420 C.2   331  ARG331      0.2287
    105  O        201.5430  133.1220  161.6570 O.2   331  ARG331     -0.2864
    106  CB       202.4900  131.9900  158.7820 C.3   331  ARG331      0.0334
    107  CG       201.9880  131.3220  157.5090 C.3   331  ARG331      0.0492
    108  CD       202.1870  129.8150  157.4860 C.3   331  ARG331      0.2205
    109  NE       201.3380  129.1880  156.4680 N.pl3 331  ARG331     -0.0865
    110  CZ       201.6120  129.1000  155.1620 C.cat 331  ARG331      0.5346
    111  NH1      202.7310  129.6090  154.6410 N.pl3 331  ARG331      0.1354
    112  NH2      200.7390  128.4940  154.3580 N.pl3 331  ARG331      0.1354
    113  N        198.9820  135.5150  161.8090 N.3   334  HIS334     -0.1241
    114  CA       197.9290  134.5320  162.0920 C.3   334  HIS334      0.1621
    115  C        198.0780  133.9030  163.4870 C.2   334  HIS334      0.2264
    116  O        197.0800  133.6720  164.1670 O.2   334  HIS334     -0.2867
    117  CB       197.9130  133.4550  160.9960 C.3   334  HIS334      0.0745
    118  CG       196.8750  132.3940  161.1890 C.ar  334  HIS334      0.0817
    119  ND1      197.1460  131.2110  161.8340 N.ar  334  HIS334     -0.2268
    120  CD2      195.5750  132.3280  160.8100 C.ar  334  HIS334      0.1154
    121  CE1      196.0600  130.4630  161.8550 C.ar  334  HIS334      0.1986
    122  NE2      195.0860  131.1110  161.2320 N.ar  334  HIS334     -0.2212
    123  N        200.7620  125.0440  163.5340 N.3   365  LEU365     -0.1245
    124  CA       200.9600  126.3460  162.8720 C.3   365  LEU365      0.1561
    125  C        202.4210  126.8060  162.8400 C.2   365  LEU365      0.2260
    126  O        202.8430  127.4440  161.8730 O.2   365  LEU365     -0.2867
    127  CB       200.0880  127.4300  163.5190 C.3   365  LEU365      0.0270
    128  CG       198.5820  127.3050  163.2800 C.3   365  LEU365      0.0019
    129  CD1      197.8060  128.1710  164.2590 C.3   365  LEU365      0.0001
    130  CD2      198.2300  127.6710  161.8470 C.3   365  LEU365      0.0001
@<TRIPOS>BOND
     1    38    37    2
     2    37    36    1
     3    36    35    1
     4    36    39    1
     5    29    28    2
     6    40    41    1
     7    81    79    1
     8    46    45    1
     9    45    47    1
    10    45    44    1
    11    80    79    1
    12    76    75    1
    13    76    79    1
    14    76    77    1
    15    28    27    1
    16    78    77    2
    17    44    41    1
    18    41    42    1
    19    31    32    1
    20    31    30    1
    21    34    32   ar
    22    77    82   am
    23    32    33   ar
    24    27    30    1
    25    27    26    1
    26    42    43    2
    27    92    91    1
    28    22    21    2
    29    82    83    1
    30    71    72    2
    31    71    70    1
    32    85    84    2
    33    84    83    1
    34    48    49    1
    35    91    93    1
    36    91    90    1
    37    26    21   am
    38    52    49    1
    39    21    20    1
    40    74    73    1
    41    49    50    1
    42    70    73    1
    43    70    69    1
    44    10     8   ar
    45    10    11   ar
    46    90    87    1
    47    86    87    1
    48    20    19    1
    49    20    23    1
    50     8     6   ar
    51    12    11    1
    52     4     3    2
    53    87    88    1
    54     3     2    1
    55   100    99    1
    56    50    51    2
    57    11     9   ar
    58    16    15    2
    59    24    23    1
    60    23    25    1
    61     6     5    1
    62     6     7   ar
    63   112   110    1
    64     5     2    1
    65    15    14    1
    66   111   110    1
    67     2     1    1
    68    99   101    1
    69    99    98    1
    70     9     7   ar
    71    88    89    2
    72   110   109    2
    73    67    66    2
    74    98    95    1
    75    14    17    1
    76    14    13    1
    77    66    65    1
    78   109   108    1
    79    53    54    1
    80    17    18    1
    81    65    68    1
    82    65    64    1
    83    94    95    1
    84    95    96    1
    85   108   107    1
    86   107   106    1
    87    57    54    1
    88    57    58    1
    89    54    55    1
    90   102    96   am
    91   102   103    1
    92    96    97    2
    93    58    60   ar
    94    58    59   ar
    95   106   103    1
    96    60    62   ar
    97    55    56    2
    98   103   104    1
    99    59    61   ar
   100    62    63   ar
   101    61    63   ar
   102   104   105    2
   103   120   118   ar
   104   120   122   ar
   105   117   118    1
   106   117   114    1
   107   118   119   ar
   108   122   121   ar
   109   113   114    1
   110   119   121   ar
   111   130   128    1
   112   126   125    2
   113   114   115    1
   114   125   124    1
   115   124   127    1
   116   124   123    1
   117   128   127    1
   118   128   129    1
   119   115   116    2
