@<TRIPOS>MOLECULE
tmp/5wn2A00.pdb
 101 96 0 0 0
SMALL
GASTEIGER

@<TRIPOS>ATOM
      1  N          2.8960   11.7760  -19.6820 N.3    54  GLN54      -0.1245
      2  CA         2.4920   11.9690  -21.0730 C.3    54  GLN54       0.1566
      3  C          1.3150   11.0700  -21.4490 C.2    54  GLN54       0.2260
      4  O          1.3860   10.2530  -22.3690 O.2    54  GLN54      -0.2867
      5  CB         3.6520   11.7310  -22.0340 C.3    54  GLN54       0.0367
      6  CG         4.4660   12.9580  -22.3760 C.3    54  GLN54       0.0905
      7  CD         5.3170   12.7310  -23.6090 C.2    54  GLN54       0.2608
      8  OE1        6.2900   11.9810  -23.5780 O.2    54  GLN54      -0.2717
      9  NE2        4.9340   13.3610  -24.7170 N.am   54  GLN54      -0.0878
     10  N          5.9980   15.3550  -14.9770 N.3   129  TYR129     -0.1241
     11  CA         6.4370   15.3360  -16.3630 C.3   129  TYR129      0.1605
     12  C          7.0270   16.7050  -16.6850 C.2   129  TYR129      0.2264
     13  O          6.2920   17.6770  -16.8900 O.2   129  TYR129     -0.2867
     14  CB         5.3060   14.9740  -17.3220 C.3   129  TYR129      0.0534
     15  CG         5.7070   15.1370  -18.7540 C.ar  129  TYR129     -0.0201
     16  CD1        6.8510   14.5190  -19.2390 C.ar  129  TYR129     -0.0009
     17  CD2        4.9670   15.9230  -19.6260 C.ar  129  TYR129     -0.0009
     18  CE1        7.2500   14.6820  -20.5540 C.ar  129  TYR129      0.0417
     19  CE2        5.3570   16.0890  -20.9500 C.ar  129  TYR129      0.0417
     20  CZ         6.4970   15.4640  -21.4050 C.ar  129  TYR129      0.1957
     21  OH         6.8780   15.6250  -22.7160 O.3   129  TYR129     -0.2866
     22  N         10.1630   19.3400  -21.5700 N.3   132  ASN132     -0.1240
     23  CA        11.2150   19.2530  -22.5660 C.3   132  ASN132      0.1653
     24  C         11.5650   20.6390  -23.0960 C.2   132  ASN132      0.2266
     25  O         10.6790   21.4690  -23.3410 O.2   132  ASN132     -0.2867
     26  CB        10.7440   18.3410  -23.7040 C.3   132  ASN132      0.1155
     27  CG        11.8800   17.8420  -24.5720 C.2   132  ASN132      0.2627
     28  OD1       12.4480   18.5860  -25.3690 O.2   132  ASN132     -0.2716
     29  ND2       12.2020   16.5650  -24.4360 N.am  132  ASN132     -0.0877
     30  N          9.4080   11.3420  -15.6370 N.3   168  ASN168     -0.1240
     31  CA        10.2870   11.7700  -16.7220 C.3   168  ASN168      0.1653
     32  C         10.8010   13.1610  -16.3780 C.2   168  ASN168      0.2266
     33  O         10.0730   14.1540  -16.5230 O.2   168  ASN168     -0.2867
     34  CB         9.5100   11.7450  -18.0290 C.3   168  ASN168      0.1155
     35  CG        10.2910   12.2650  -19.2150 C.2   168  ASN168      0.2627
     36  OD1       11.3900   12.8020  -19.1030 O.2   168  ASN168     -0.2716
     37  ND2        9.6910   12.1250  -20.3810 N.am  168  ASN168     -0.0877
     38  N         13.3710   14.6000  -17.9000 N.3   170  ASN170     -0.1240
     39  CA        13.8910   15.2030  -19.1330 C.3   170  ASN170      0.1653
     40  C         15.2750   15.8200  -18.9570 C.2   170  ASN170      0.2266
     41  O         15.5400   16.9430  -19.4030 O.2   170  ASN170     -0.2867
     42  CB        12.9240   16.2430  -19.6830 C.3   170  ASN170      0.1155
     43  CG        12.0830   15.7120  -20.8350 C.2   170  ASN170      0.2627
     44  OD1       12.5730   14.9680  -21.6840 O.2   170  ASN170     -0.2716
     45  ND2       10.8160   16.0990  -20.8720 N.am  170  ASN170     -0.0877
     46  N         18.3340   19.2950  -26.2070 N.3   188  ALA188     -0.1245
     47  CA        17.3890   19.1400  -25.1060 C.3   188  ALA188      0.1562
     48  C         17.6910   17.9020  -24.2790 C.2   188  ALA188      0.2260
     49  O         17.8070   16.7920  -24.8100 O.2   188  ALA188     -0.2867
     50  CB        15.9580   19.0650  -25.6560 C.3   188  ALA188      0.0290
     51  N         14.9970    5.9630  -21.9600 N.3   224  PHE224     -0.1241
     52  CA        14.4160    6.4700  -23.1910 C.3   224  PHE224      0.1605
     53  C         15.3420    6.1660  -24.3580 C.2   224  PHE224      0.2264
     54  O         16.5630    6.2570  -24.2370 O.2   224  PHE224     -0.2867
     55  CB        14.1300    7.9940  -23.1230 C.3   224  PHE224      0.0534
     56  CG        14.0150    8.6560  -24.4680 C.ar  224  PHE224     -0.0203
     57  CD1       12.8040    8.6890  -25.1290 C.ar  224  PHE224     -0.0042
     58  CD2       15.1240    9.2610  -25.0610 C.ar  224  PHE224     -0.0042
     59  CE1       12.7040    9.2820  -26.3630 C.ar  224  PHE224     -0.0003
     60  CE2       15.0250    9.8600  -26.2960 C.ar  224  PHE224     -0.0003
     61  CZ        13.8140    9.8680  -26.9480 C.ar  224  PHE224     -0.0000
     62  N         18.9510    7.3190  -23.3080 N.3   238  TRP238     -0.1241
     63  CA        19.1530    8.3220  -22.2730 C.3   238  TRP238      0.1605
     64  C         18.4580    7.8360  -21.0080 C.2   238  TRP238      0.2264
     65  O         17.3740    7.2620  -21.0800 O.2   238  TRP238     -0.2867
     66  CB        18.5370    9.6930  -22.6720 C.3   238  TRP238      0.0550
     67  CG        18.9430   10.3100  -23.9830 C.ar  238  TRP238      0.0003
     68  CD1       18.9220    9.7260  -25.2210 C.ar  238  TRP238      0.0946
     69  CD2       19.3480   11.6670  -24.1900 C.ar  238  TRP238      0.0152
     70  NE1       19.3290   10.6270  -26.1760 N.ar  238  TRP238     -0.2442
     71  CE2       19.5950   11.8300  -25.5670 C.ar  238  TRP238      0.0810
     72  CE3       19.5470   12.7580  -23.3340 C.ar  238  TRP238      0.0012
     73  CZ2       20.0260   13.0310  -26.1100 C.ar  238  TRP238      0.0191
     74  CZ3       19.9650   13.9360  -23.8610 C.ar  238  TRP238      0.0001
     75  CH2       20.2040   14.0740  -25.2390 C.ar  238  TRP238      0.0015
     76  N         16.3500    9.2040  -18.4240 N.3   240  LEU240     -0.1245
     77  CA        15.5690   10.4170  -18.1990 C.3   240  LEU240      0.1561
     78  C         14.5370   10.2780  -17.1010 C.2   240  LEU240      0.2260
     79  O         13.9250   11.2760  -16.7100 O.2   240  LEU240     -0.2867
     80  CB        14.8510   10.8430  -19.4780 C.3   240  LEU240      0.0270
     81  CG        15.7290   11.1760  -20.6820 C.3   240  LEU240      0.0019
     82  CD1       14.8630   11.4570  -21.8880 C.3   240  LEU240      0.0001
     83  CD2       16.6020   12.3780  -20.3920 C.3   240  LEU240      0.0001
     84  N          8.3300    4.9650  -26.0980 N.3   266  ASP266     -0.1225
     85  CA         9.7480    5.2060  -26.3220 C.3   266  ASP266      0.1805
     86  C         10.4980    5.3820  -25.0060 C.2   266  ASP266      0.2597
     87  O         11.7280    5.4880  -25.0310 O.2   266  ASP266     -0.2718
     88  CB         9.9870    6.4020  -27.2760 C.3   266  ASP266      0.1424
     89  CG         9.2970    7.6890  -26.8340 C.2   266  ASP266      0.3668
     90  OD1        8.4880    7.6780  -25.8780 O.co2 266  ASP266     -0.2456
     91  OD2        9.5780    8.7290  -27.4660 O.co2 266  ASP266     -0.2456
     92  N          9.7910    5.3890  -23.8750 N.am  267  HIS267     -0.1975
     93  CA        10.3610    5.1930  -22.5460 C.3   267  HIS267      0.1656
     94  C          9.9980    3.8060  -22.0330 C.2   267  HIS267      0.2291
     95  O          8.9490    3.2470  -22.3770 O.2   267  HIS267     -0.2864
     96  CB         9.8580    6.2280  -21.5200 C.3   267  HIS267      0.0771
     97  CG        10.2180    7.6480  -21.8290 C.ar  267  HIS267      0.0820
     98  ND1       11.0510    8.4080  -21.0310 N.ar  267  HIS267     -0.2267
     99  CD2        9.7840    8.4770  -22.8070 C.ar  267  HIS267      0.1154
    100  CE1       11.1550    9.6250  -21.5360 C.ar  267  HIS267      0.1986
    101  NE2       10.3890    9.6940  -22.6140 N.ar  267  HIS267     -0.2212
@<TRIPOS>BOND
     1    91    89   ar
     2    88    89    1
     3    88    85    1
     4    61    59   ar
     5    61    60   ar
     6    89    90   ar
     7    59    57   ar
     8    85    84    1
     9    85    86    1
    10    60    58   ar
    11    46    47    1
    12    70    71   ar
    13    70    68   ar
    14    73    71   ar
    15    73    75   ar
    16    50    47    1
    17    71    69   ar
    18    28    27    2
    19    75    74   ar
    20    68    67   ar
    21    57    56   ar
    22    47    48    1
    23    58    56   ar
    24    87    86    2
    25    86    92   am
    26    49    48    2
    27     9     7   am
    28    27    29   am
    29    27    26    1
    30    56    55    1
    31    53    54    2
    32    53    52    1
    33    69    67   ar
    34    69    72   ar
    35    67    66    1
    36    92    93    1
    37    74    72   ar
    38    26    23    1
    39     7     8    2
    40     7     6    1
    41    25    24    2
    42    62    63    1
    43    52    55    1
    44    52    51    1
    45    24    23    1
    46    99   101   ar
    47    99    97   ar
    48    21    20    1
    49    66    63    1
    50   101   100   ar
    51    23    22    1
    52    93    94    1
    53    93    96    1
    54    95    94    2
    55     6     5    1
    56     4     3    2
    57    63    64    1
    58     5     2    1
    59    82    81    1
    60    97    96    1
    61    97    98   ar
    62    44    43    2
    63   100    98   ar
    64     3     2    1
    65    20    19   ar
    66    20    18   ar
    67    65    64    2
    68     2     1    1
    69    19    17   ar
    70    45    43   am
    71    43    42    1
    72    81    83    1
    73    81    80    1
    74    18    16   ar
    75    37    35   am
    76    42    39    1
    77    17    15   ar
    78    80    77    1
    79    41    40    2
    80    16    15   ar
    81    35    36    2
    82    35    34    1
    83    39    40    1
    84    39    38    1
    85    15    14    1
    86    76    77    1
    87    77    78    1
    88    34    31    1
    89    14    11    1
    90    78    79    2
    91    13    12    2
    92    31    32    1
    93    31    30    1
    94    12    11    1
    95    33    32    2
    96    11    10    1
