@<TRIPOS>MOLECULE
tmp/5wn8A01.pdb
 138 132 0 0 0
SMALL
GASTEIGER

@<TRIPOS>ATOM
      1  N         56.2340   47.1320   17.7450 N.3   113  TYR113     -0.1241
      2  CA        56.6560   47.8630   16.5470 C.3   113  TYR113      0.1605
      3  C         55.9310   47.3950   15.2860 C.2   113  TYR113      0.2264
      4  O         55.5200   48.2160   14.4670 O.2   113  TYR113     -0.2867
      5  CB        58.1630   47.6890   16.3690 C.3   113  TYR113      0.0534
      6  CG        58.8100   48.5350   15.2980 C.ar  113  TYR113     -0.0201
      7  CD1       58.9670   49.9080   15.4650 C.ar  113  TYR113     -0.0009
      8  CD2       59.3010   47.9540   14.1300 C.ar  113  TYR113     -0.0009
      9  CE1       59.5760   50.6850   14.4860 C.ar  113  TYR113      0.0417
     10  CE2       59.9120   48.7170   13.1490 C.ar  113  TYR113      0.0417
     11  CZ        60.0490   50.0830   13.3280 C.ar  113  TYR113      0.1957
     12  OH        60.6580   50.8430   12.3560 O.3   113  TYR113     -0.2866
     13  N         52.2390   49.1560   15.5650 N.3   116  CYS116     -0.1221
     14  CA        52.0490   50.6070   15.5290 C.3   116  CYS116      0.1808
     15  C         52.9320   51.3650   14.5390 C.2   116  CYS116      0.2601
     16  O         52.8080   52.5860   14.4390 O.2   116  CYS116     -0.2717
     17  CB        52.2270   51.1870   16.9340 C.3   116  CYS116      0.0970
     18  SG        53.8580   50.8890   17.6470 S.3   116  CYS116     -0.0800
     19  N         53.8190   50.6650   13.8260 N.am  117  VAL117     -0.1979
     20  CA        54.5590   51.2470   12.6890 C.3   117  VAL117      0.1595
     21  C         54.3410   50.4560   11.4110 C.2   117  VAL117      0.2287
     22  O         53.8750   51.0060   10.4110 O.2   117  VAL117     -0.2864
     23  CB        56.0780   51.3180   12.9510 C.3   117  VAL117      0.0276
     24  CG1       56.8220   51.8960   11.7480 C.3   117  VAL117      0.0022
     25  CG2       56.3470   52.1520   14.1800 C.3   117  VAL117      0.0022
     26  N         56.2460   60.3390   14.3750 N.3   150  PHE150     -0.1227
     27  CA        57.1310   59.3470   14.9570 C.3   150  PHE150      0.1736
     28  C         57.0160   57.9660   14.3180 C.2   150  PHE150      0.2595
     29  O         58.0350   57.3320   14.0260 O.2   150  PHE150     -0.2718
     30  CB        56.8800   59.2300   16.4560 C.3   150  PHE150      0.0547
     31  CG        57.8370   58.3130   17.1410 C.ar  150  PHE150     -0.0202
     32  CD1       59.2020   58.5450   17.0470 C.ar  150  PHE150     -0.0042
     33  CD2       57.3910   57.2090   17.8510 C.ar  150  PHE150     -0.0042
     34  CE1       60.1050   57.7040   17.6550 C.ar  150  PHE150     -0.0003
     35  CE2       58.2930   56.3670   18.4700 C.ar  150  PHE150     -0.0003
     36  CZ        59.6540   56.6190   18.3670 C.ar  150  PHE150     -0.0000
     37  N         55.7850   57.4990   14.1300 N.am  151  PHE151     -0.1976
     38  CA        55.5460   56.2000   13.5090 C.3   151  PHE151      0.1639
     39  C         55.9200   56.2000   12.0260 C.2   151  PHE151      0.2290
     40  O         56.4600   55.2070   11.5340 O.2   151  PHE151     -0.2864
     41  CB        54.0800   55.7600   13.6560 C.3   151  PHE151      0.0560
     42  CG        53.6120   55.5480   15.0810 C.ar  151  PHE151     -0.0200
     43  CD1       54.4810   55.1850   16.1110 C.ar  151  PHE151     -0.0042
     44  CD2       52.2580   55.6660   15.3800 C.ar  151  PHE151     -0.0042
     45  CE1       54.0110   54.9800   17.4040 C.ar  151  PHE151     -0.0003
     46  CE2       51.7850   55.4570   16.6700 C.ar  151  PHE151     -0.0003
     47  CZ        52.6630   55.1130   17.6840 C.ar  151  PHE151     -0.0000
     48  N         59.8210   56.4230   11.4080 N.3   154  SER154     -0.1217
     49  CA        60.2930   55.0560   11.6410 C.3   154  SER154      0.1889
     50  C         59.9970   54.1630   10.4400 C.2   154  SER154      0.2288
     51  O         60.8660   53.4210    9.9830 O.2   154  SER154     -0.2866
     52  CB        59.6480   54.4620   12.8960 C.3   154  SER154      0.2089
     53  OG        59.9840   55.2140   14.0450 O.3   154  SER154     -0.2183
     54  N         56.8380   64.2520   22.5330 N.3   213  PHE213     -0.1241
     55  CA        57.2890   62.8620   22.5220 C.3   213  PHE213      0.1605
     56  C         57.5260   62.3190   23.9290 C.2   213  PHE213      0.2264
     57  O         57.0120   61.2510   24.2760 O.2   213  PHE213     -0.2867
     58  CB        58.5740   62.6990   21.7010 C.3   213  PHE213      0.0534
     59  CG        59.1360   61.3080   21.7530 C.ar  213  PHE213     -0.0203
     60  CD1       58.6930   60.3340   20.8690 C.ar  213  PHE213     -0.0042
     61  CD2       60.0790   60.9610   22.7160 C.ar  213  PHE213     -0.0042
     62  CE1       59.1930   59.0460   20.9290 C.ar  213  PHE213     -0.0003
     63  CE2       60.5740   59.6740   22.7880 C.ar  213  PHE213     -0.0003
     64  CZ        60.1350   58.7140   21.8900 C.ar  213  PHE213     -0.0000
     65  N         55.6270   58.7550   24.7880 N.3   218  ARG218     -0.1245
     66  CA        56.4750   57.7830   25.5000 C.3   218  ARG218      0.1563
     67  C         55.7170   56.9780   26.5680 C.2   218  ARG218      0.2260
     68  O         56.0370   55.8110   26.8040 O.2   218  ARG218     -0.2867
     69  CB        57.6800   58.4880   26.1480 C.3   218  ARG218      0.0307
     70  CG        58.8400   57.5660   26.4900 C.3   218  ARG218      0.0489
     71  CD        59.9930   58.3040   27.1610 C.3   218  ARG218      0.2205
     72  NE        60.0220   58.1030   28.6160 N.pl3 218  ARG218     -0.0865
     73  CZ        59.4820   58.9040   29.5420 C.cat 218  ARG218      0.5346
     74  NH1       58.8330   60.0220   29.2190 N.pl3 218  ARG218      0.1354
     75  NH2       59.5960   58.5770   30.8270 N.pl3 218  ARG218      0.1354
     76  N         53.4920   54.1550   24.8370 N.3   221  LEU221     -0.1231
     77  CA        54.3190   53.1040   24.2260 C.3   221  LEU221      0.1693
     78  C         55.1030   52.2680   25.2410 C.2   221  LEU221      0.2592
     79  O         55.6600   51.2330   24.8750 O.2   221  LEU221     -0.2718
     80  CB        55.2920   53.7090   23.2080 C.3   221  LEU221      0.0284
     81  CG        54.6580   54.5600   22.1030 C.3   221  LEU221      0.0019
     82  CD1       55.7320   55.2120   21.2430 C.3   221  LEU221      0.0001
     83  CD2       53.6740   53.7430   21.2740 C.3   221  LEU221      0.0001
     84  N         55.1620   52.7100   26.4980 N.am  222  SER222     -0.1952
     85  CA        55.8420   51.9440   27.5490 C.3   222  SER222      0.1924
     86  C         54.9950   50.7400   27.9590 C.2   222  SER222      0.2314
     87  O         53.7680   50.7620   27.8360 O.2   222  SER222     -0.2863
     88  CB        56.1630   52.8240   28.7650 C.3   222  SER222      0.2116
     89  OG        54.9880   53.3450   29.3550 O.3   222  SER222     -0.2180
     90  N         57.5880   47.2040   26.5780 N.3   248  GLY248     -0.1210
     91  CA        56.8430   48.1590   25.7630 C.3   248  GLY248      0.1956
     92  C         57.3680   48.3070   24.3500 C.2   248  GLY248      0.2612
     93  O         58.4450   47.8090   24.0120 O.2   248  GLY248     -0.2717
     94  N         56.5940   49.0060   23.5240 N.am  249  GLY249     -0.1942
     95  CA        56.9400   49.2270   22.1260 C.3   249  GLY249      0.2014
     96  C         58.2110   50.0440   21.9600 C.2   249  GLY249      0.2640
     97  O         58.4120   51.0390   22.6600 O.2   249  GLY249     -0.2714
     98  N         59.0640   49.6090   21.0330 N.am  250  SER250     -0.1935
     99  CA        60.3620   50.2360   20.7490 C.3   250  SER250      0.2055
    100  C         60.7020   49.9990   19.2770 C.2   250  SER250      0.2643
    101  O         60.0720   49.1700   18.6280 O.2   250  SER250     -0.2714
    102  CB        61.4500   49.6500   21.6440 C.3   250  SER250      0.2130
    103  OG        62.6700   50.3540   21.4840 O.3   250  SER250     -0.2179
    104  N         61.6970   50.7140   18.7570 N.am  251  ALA251     -0.1963
    105  CA        62.2090   50.4740   17.4040 C.3   251  ALA251      0.1728
    106  C         63.4650   49.6210   17.4960 C.2   251  ALA251      0.2616
    107  O         64.0530   49.2760   16.4780 O.2   251  ALA251     -0.2715
    108  CB        62.4860   51.7730   16.6690 C.3   251  ALA251      0.0334
    109  N         63.8690   49.2720   18.7190 N.am  252  GLY252     -0.1955
    110  CA        64.7190   48.1100   18.9530 C.3   252  GLY252      0.1869
    111  C         64.0270   46.8120   18.5940 C.2   252  GLY252      0.2309
    112  O         64.6870   45.7980   18.3790 O.2   252  GLY252     -0.2863
    113  N         71.5050   58.2240   15.8330 N.3   333  HIS333     -0.1241
    114  CA        70.4590   57.7770   16.7410 C.3   333  HIS333      0.1621
    115  C         70.7450   58.1590   18.2030 C.2   333  HIS333      0.2264
    116  O         69.8170   58.4770   18.9450 O.2   333  HIS333     -0.2867
    117  CB        70.2790   56.2680   16.5850 C.3   333  HIS333      0.0745
    118  CG        69.2370   55.6910   17.4760 C.ar  333  HIS333      0.0817
    119  ND1       69.5490   55.0820   18.6690 N.ar  333  HIS333     -0.2268
    120  CD2       67.8920   55.6250   17.3530 C.ar  333  HIS333      0.1154
    121  CE1       68.4390   54.6620   19.2440 C.ar  333  HIS333      0.1986
    122  NE2       67.4170   54.9830   18.4690 N.ar  333  HIS333     -0.2212
    123  N         65.0700   62.3410   24.6330 N.3   341  ILE341     -0.1245
    124  CA        64.9220   61.7510   25.9750 C.3   341  ILE341      0.1561
    125  C         65.7370   62.4540   27.0710 C.2   341  ILE341      0.2260
    126  O         65.1770   62.7830   28.1190 O.2   341  ILE341     -0.2867
    127  CB        65.1760   60.2160   25.9550 C.3   341  ILE341      0.0252
    128  CG1       63.9620   59.5220   25.3130 C.3   341  ILE341      0.0019
    129  CG2       65.4290   59.6600   27.3630 C.3   341  ILE341      0.0019
    130  CD1       64.0860   58.0250   25.1360 C.3   341  ILE341      0.0001
    131  N         71.4370   54.0900   29.9180 N.3   353  LEU353     -0.1245
    132  CA        70.7530   54.0210   28.6260 C.3   353  LEU353      0.1561
    133  C         71.6520   54.4150   27.4490 C.2   353  LEU353      0.2260
    134  O         71.6100   53.7790   26.3960 O.2   353  LEU353     -0.2867
    135  CB        69.5040   54.9050   28.6740 C.3   353  LEU353      0.0270
    136  CG        68.6300   55.0530   27.4240 C.3   353  LEU353      0.0019
    137  CD1       67.1590   55.0570   27.8200 C.3   353  LEU353      0.0001
    138  CD2       68.9750   56.3180   26.6480 C.3   353  LEU353      0.0001
@<TRIPOS>BOND
     1    51    50    2
     2    22    21    2
     3    50    49    1
     4    48    49    1
     5    21    20    1
     6    40    39    2
     7    49    52    1
     8    24    23    1
     9    39    38    1
    10    12    11    1
    11    20    23    1
    12    20    19    1
    13    52    53    1
    14    23    25    1
    15    10    11   ar
    16    10     8   ar
    17    11     9   ar
    18    38    41    1
    19    38    37    1
    20    41    42    1
    21    19    15   am
    22    29    28    2
    23    37    28   am
    24     8     6   ar
    25    28    27    1
    26    26    27    1
    27    16    15    2
    28     4     3    2
    29     9     7   ar
    30    15    14    1
    31    27    30    1
    32    42    44   ar
    33    42    43   ar
    34     3     2    1
    35     6     7   ar
    36     6     5    1
    37    44    46   ar
    38    14    13    1
    39    14    17    1
    40   113   114    1
    41    43    45   ar
    42     5     2    1
    43    30    31    1
    44   107   106    2
    45     2     1    1
    46   117   114    1
    47   117   118    1
    48   108   105    1
    49    46    47   ar
    50   114   115    1
    51    17    18    1
    52    32    31   ar
    53    32    34   ar
    54    31    33   ar
    55   120   118   ar
    56   120   122   ar
    57   105   106    1
    58   105   104    1
    59    45    47   ar
    60   118   119   ar
    61   106   109   am
    62    34    36   ar
    63    33    35   ar
    64   115   116    2
    65    36    35   ar
    66   112   111    2
    67   122   121   ar
    68   111   110    1
    69   101   100    2
    70   119   121   ar
    71   109   110    1
    72   104   100   am
    73   100    99    1
    74    99    98    1
    75    99   102    1
    76    60    62   ar
    77    60    59   ar
    78    62    64   ar
    79    98    96   am
    80    82    81    1
    81    83    81    1
    82   103   102    1
    83    58    59    1
    84    58    55    1
    85    59    61   ar
    86    64    63   ar
    87    96    95    1
    88    96    97    2
    89    81    80    1
    90    95    94    1
    91    55    54    1
    92    55    56    1
    93    61    63   ar
    94    80    77    1
    95    94    92   am
    96    56    57    2
    97    93    92    2
    98    77    76    1
    99    77    78    1
   100    92    91    1
   101   123   124    1
   102    65    66    1
   103    79    78    2
   104   130   128    1
   105    78    84   am
   106   128   127    1
   107    66    69    1
   108    66    67    1
   109    91    90    1
   110   127   124    1
   111   127   129    1
   112   124   125    1
   113    69    70    1
   114   134   133    2
   115    70    71    1
   116    84    85    1
   117    67    68    2
   118   138   136    1
   119   125   126    2
   120    71    72    1
   121   136   137    1
   122   136   135    1
   123   133   132    1
   124    85    86    1
   125    85    88    1
   126    87    86    2
   127    72    73    2
   128   132   135    1
   129   132   131    1
   130    88    89    1
   131    74    73    1
   132    73    75    1
