@<TRIPOS>MOLECULE
tmp/5wneC00.pdb
 222 212 0 0 0
SMALL
GASTEIGER

@<TRIPOS>ATOM
      1  N        -46.0500  -20.7280   24.8160 N.3    79  ILE79      -0.1231
      2  CA       -46.8340  -20.9670   23.5970 C.3    79  ILE79       0.1692
      3  C        -47.9450  -19.9200   23.3730 C.2    79  ILE79       0.2593
      4  O        -48.6370  -19.9650   22.3550 O.2    79  ILE79      -0.2718
      5  CB       -47.3810  -22.4210   23.5470 C.3    79  ILE79       0.0266
      6  CG1      -48.3010  -22.7410   24.7590 C.3    79  ILE79       0.0019
      7  CG2      -46.2300  -23.4240   23.4220 C.3    79  ILE79       0.0020
      8  CD1      -49.3580  -23.8270   24.5220 C.3    79  ILE79       0.0001
      9  N        -48.0900  -18.9910   24.3120 N.am   80  GLY80      -0.1942
     10  CA       -49.0950  -17.9370   24.2370 C.3    80  GLY80       0.2014
     11  C        -48.8670  -16.8070   25.2150 C.2    80  GLY80       0.2639
     12  O        -48.1860  -16.9830   26.2300 O.2    80  GLY80      -0.2714
     13  N        -49.4450  -15.6330   24.9110 N.am   81  ARG81      -0.1963
     14  CA       -49.3390  -14.4250   25.7370 C.3    81  ARG81       0.1729
     15  C        -50.6670  -13.6660   25.7550 C.2    81  ARG81       0.2617
     16  O        -51.4000  -13.6630   24.7690 O.2    81  ARG81      -0.2715
     17  CB       -48.2040  -13.5240   25.2170 C.3    81  ARG81       0.0348
     18  CG       -47.6780  -12.4760   26.2060 C.3    81  ARG81       0.0492
     19  CD       -46.6690  -13.0190   27.2140 C.3    81  ARG81       0.2205
     20  NE       -45.5000  -13.6270   26.5730 N.pl3  81  ARG81      -0.0865
     21  CZ       -44.3920  -12.9690   26.2440 C.cat  81  ARG81       0.5346
     22  NH1      -44.2840  -11.6690   26.4940 N.pl3  81  ARG81       0.1354
     23  NH2      -43.3840  -13.6050   25.6620 N.pl3  81  ARG81       0.1354
     24  N        -50.9640  -13.0450   26.8870 N.am   82  GLY82      -0.1940
     25  CA       -52.1790  -12.2670   27.0960 C.3    82  GLY82       0.2014
     26  C        -51.8980  -10.9910   27.8590 C.2    82  GLY82       0.2639
     27  O        -50.7600  -10.7630   28.2840 O.2    82  GLY82      -0.2714
     28  N        -52.9350  -10.1580   28.0510 N.am   83  ALA83      -0.1963
     29  CA       -52.8360   -8.8750   28.7530 C.3    83  ALA83       0.1728
     30  C        -52.3300   -8.9950   30.1960 C.2    83  ALA83       0.2616
     31  O        -51.5050   -8.1790   30.6200 O.2    83  ALA83      -0.2715
     32  CB       -54.1780   -8.1620   28.7300 C.3    83  ALA83       0.0334
     33  N        -52.8140  -10.0150   30.9340 N.am   84  PHE84      -0.1960
     34  CA       -52.4630  -10.2540   32.3350 C.3    84  PHE84       0.1774
     35  C        -51.5610  -11.4810   32.5650 C.2    84  PHE84       0.2659
     36  O        -51.3140  -11.8360   33.7160 O.2    84  PHE84      -0.2711
     37  CB       -53.7420  -10.3550   33.2030 C.3    84  PHE84       0.0574
     38  CG       -54.5460   -9.0960   33.4800 C.ar   84  PHE84      -0.0200
     39  CD1      -54.1940   -7.8790   32.9060 C.ar   84  PHE84      -0.0042
     40  CD2      -55.6750   -9.1380   34.2890 C.ar   84  PHE84      -0.0042
     41  CE1      -54.9430   -6.7270   33.1560 C.ar   84  PHE84      -0.0003
     42  CE2      -56.4220   -7.9840   34.5430 C.ar   84  PHE84      -0.0003
     43  CZ       -56.0550   -6.7860   33.9710 C.ar   84  PHE84      -0.0000
     44  N        -51.0720  -12.1070   31.4980 N.am   85  GLY85      -0.1716
     45  CA       -50.2090  -13.2710   31.6520 C.2    85  GLY85       0.1480
     46  C        -49.7360  -13.9660   30.3940 C.2    85  GLY85       0.2820
     47  O        -49.6080  -13.3410   29.3370 O.2    85  GLY85      -0.2669
     48  N        -49.4380  -15.2780   30.5260 N.am   86  GLU86      -0.1929
     49  CA       -48.9260  -16.1330   29.4490 C.3    86  GLU86       0.1736
     50  C        -49.3580  -17.6010   29.5720 C.2    86  GLU86       0.2616
     51  O        -49.7180  -18.0530   30.6590 O.2    86  GLU86      -0.2715
     52  CB       -47.3880  -16.0300   29.3650 C.3    86  GLU86       0.0429
     53  CG       -46.6470  -16.4890   30.6110 C.3    86  GLU86       0.1163
     54  CD       -45.1370  -16.3940   30.5270 C.2    86  GLU86       0.3649
     55  OE1      -44.4740  -17.4470   30.6640 O.co2  86  GLU86      -0.2457
     56  OE2      -44.6150  -15.2710   30.3390 O.co2  86  GLU86      -0.2457
     57  N        -49.2970  -18.3390   28.4570 N.am   87  VAL87      -0.1977
     58  CA       -49.6160  -19.7650   28.3930 C.3    87  VAL87       0.1596
     59  C        -48.3230  -20.4980   28.0310 C.2    87  VAL87       0.2287
     60  O        -47.7080  -20.1970   27.0050 O.2    87  VAL87      -0.2864
     61  CB       -50.7880  -20.0820   27.4160 C.3    87  VAL87       0.0276
     62  CG1      -50.9990  -21.5860   27.2580 C.3    87  VAL87       0.0022
     63  CG2      -52.0750  -19.4210   27.8830 C.3    87  VAL87       0.0022
     64  N        -50.8970  -27.5940   29.1300 N.3   100  ALA100     -0.1245
     65  CA       -50.7870  -26.1830   28.7690 C.3   100  ALA100      0.1562
     66  C        -51.1840  -25.4150   30.0410 C.2   100  ALA100      0.2260
     67  O        -52.2910  -25.6100   30.5480 O.2   100  ALA100     -0.2867
     68  CB       -51.7380  -25.8510   27.6290 C.3   100  ALA100      0.0290
     69  N        -51.8880  -21.8430   31.9020 N.3   102  LYS102     -0.1231
     70  CA       -52.2080  -20.4160   31.7980 C.3   102  LYS102      0.1693
     71  C        -51.8930  -19.7490   33.1330 C.2   102  LYS102      0.2592
     72  O        -52.3050  -20.2340   34.1850 O.2   102  LYS102     -0.2718
     73  CB       -53.6820  -20.1990   31.4260 C.3   102  LYS102      0.0285
     74  CG       -54.0590  -18.7530   31.1170 C.3   102  LYS102      0.0035
     75  CD       -55.4650  -18.6720   30.5420 C.3   102  LYS102      0.0206
     76  CE       -56.0000  -17.2670   30.5530 C.3   102  LYS102      0.1093
     77  NZ       -57.2660  -17.1610   29.7850 N.3   102  LYS102     -0.1314
     78  N        -51.1560  -18.6430   33.0790 N.am  103  LEU103     -0.1966
     79  CA       -50.7420  -17.8660   34.2440 C.3   103  LEU103      0.1728
     80  C        -51.4150  -16.5030   34.1900 C.2   103  LEU103      0.2616
     81  O        -51.4450  -15.8800   33.1310 O.2   103  LEU103     -0.2715
     82  CB       -49.2100  -17.6860   34.2350 C.3   103  LEU103      0.0311
     83  CG       -48.3520  -18.8370   34.7620 C.3   103  LEU103      0.0022
     84  CD1      -48.2330  -19.9650   33.7490 C.3   103  LEU103      0.0001
     85  CD2      -46.9730  -18.3490   35.1060 C.3   103  LEU103      0.0001
     86  N        -51.9690  -16.0520   35.3200 N.am  104  LEU104     -0.1977
     87  CA       -52.6160  -14.7440   35.4250 C.3   104  LEU104      0.1596
     88  C        -52.0060  -13.9870   36.6060 C.2   104  LEU104      0.2287
     89  O        -52.0180  -14.4800   37.7370 O.2   104  LEU104     -0.2864
     90  CB       -54.1460  -14.8650   35.5640 C.3   104  LEU104      0.0297
     91  CG       -54.9350  -15.4050   34.3510 C.3   104  LEU104      0.0022
     92  CD1      -56.3470  -15.7950   34.7550 C.3   104  LEU104      0.0001
     93  CD2      -54.9840  -14.3910   33.2030 C.3   104  LEU104      0.0001
     94  N        -60.6420   -5.3800   38.3130 N.3   114  ASP114     -0.1239
     95  CA       -61.1670   -6.5380   37.5740 C.3   114  ASP114      0.1674
     96  C        -60.2860   -7.7960   37.8670 C.2   114  ASP114      0.2266
     97  O        -59.3130   -8.1270   37.1820 O.2   114  ASP114     -0.2867
     98  CB       -61.4540   -6.2520   36.0630 C.3   114  ASP114      0.1410
     99  CG       -60.3630   -6.4990   35.0340 C.2   114  ASP114      0.3668
    100  OD1      -60.3380   -7.6010   34.4580 O.co2 114  ASP114     -0.2456
    101  OD2      -59.6200   -5.5450   34.7130 O.co2 114  ASP114     -0.2456
    102  N        -62.9150  -11.9280   36.3030 N.3   117  PHE117     -0.1241
    103  CA       -63.1860  -12.4760   34.9610 C.3   117  PHE117      0.1605
    104  C        -62.9160  -13.9840   34.8310 C.2   117  PHE117      0.2264
    105  O        -63.5720  -14.6720   34.0450 O.2   117  PHE117     -0.2867
    106  CB       -62.4090  -11.6960   33.8790 C.3   117  PHE117      0.0534
    107  CG       -60.9020  -11.8000   33.9620 C.ar  117  PHE117     -0.0203
    108  CD1      -60.1700  -10.9260   34.7600 C.ar  117  PHE117     -0.0042
    109  CD2      -60.2120  -12.7600   33.2280 C.ar  117  PHE117     -0.0042
    110  CE1      -58.7790  -11.0290   34.8430 C.ar  117  PHE117     -0.0003
    111  CE2      -58.8200  -12.8620   33.3170 C.ar  117  PHE117     -0.0003
    112  CZ       -58.1150  -11.9930   34.1190 C.ar  117  PHE117     -0.0000
    113  N        -64.2870  -24.2610   31.9150 N.3   125  MET125     -0.1245
    114  CA       -63.2650  -25.2690   31.6190 C.3   125  MET125      0.1570
    115  C        -63.3130  -26.5050   32.5370 C.2   125  MET125      0.2261
    116  O        -63.1700  -27.6270   32.0430 O.2   125  MET125     -0.2867
    117  CB       -61.8590  -24.6510   31.5980 C.3   125  MET125      0.0387
    118  CG       -61.5740  -23.7970   30.3670 C.3   125  MET125      0.0595
    119  SD       -59.8560  -23.2190   30.3310 S.3   125  MET125     -0.1393
    120  CE       -59.6870  -22.8190   28.6080 C.3   125  MET125      0.0692
    121  N        -61.9250  -26.7770   26.0890 N.3   134  VAL134     -0.1245
    122  CA       -60.6010  -27.1680   26.5840 C.3   134  VAL134      0.1561
    123  C        -60.7620  -27.5530   28.0680 C.2   134  VAL134      0.2260
    124  O        -61.2930  -26.7650   28.8600 O.2   134  VAL134     -0.2867
    125  CB       -59.5400  -26.0560   26.3570 C.3   134  VAL134      0.0252
    126  CG1      -58.2330  -26.3810   27.0650 C.3   134  VAL134      0.0019
    127  CG2      -59.2870  -25.8250   24.8730 C.3   134  VAL134      0.0019
    128  N        -54.3570  -26.9940   31.8630 N.3   150  MET150     -0.1230
    129  CA       -55.3070  -27.4350   30.8420 C.3   150  MET150      0.1702
    130  C        -54.6960  -28.4790   29.9080 C.2   150  MET150      0.2595
    131  O        -53.4790  -28.6840   29.9130 O.2   150  MET150     -0.2718
    132  CB       -55.7790  -26.2430   29.9870 C.3   150  MET150      0.0401
    133  CG       -56.2610  -25.0520   30.7650 C.3   150  MET150      0.0596
    134  SD       -56.2460  -23.5610   29.7470 S.3   150  MET150     -0.1393
    135  CE       -54.4940  -23.2240   29.6740 C.3   150  MET150      0.0692
    136  N        -55.5460  -29.1020   29.0690 N.am  151  GLU151     -0.1920
    137  CA       -55.1130  -30.0690   28.0600 C.3   151  GLU151      0.1949
    138  C        -54.3920  -29.3230   26.9370 C.2   151  GLU151      0.2659
    139  O        -54.8390  -28.2470   26.5340 O.2   151  GLU151     -0.2711
    140  CB       -56.2950  -30.9080   27.5170 C.2   151  GLU151      0.0111
    141  CG       -57.4390  -30.1280   26.8800 C.2   151  GLU151      0.0838
    142  CD       -58.5180  -30.9590   26.2130 C.2   151  GLU151      0.3877
    143  OE1      -59.7110  -30.6150   26.3780 O.co2 151  GLU151     -0.2406
    144  OE2      -58.1770  -31.9440   25.5170 O.co2 151  GLU151     -0.2406
    145  N        -53.2590  -29.8630   26.4710 N.am  152  TYR152     -0.1957
    146  CA       -52.4920  -29.2360   25.3990 C.3   152  TYR152      0.1771
    147  C        -53.1530  -29.4660   24.0440 C.2   152  TYR152      0.2619
    148  O        -53.5910  -30.5800   23.7420 O.2   152  TYR152     -0.2715
    149  CB       -51.0240  -29.7060   25.4100 C.3   152  TYR152      0.0574
    150  CG       -50.1650  -29.1510   24.2910 C.ar  152  TYR152     -0.0198
    151  CD1      -50.0740  -27.7790   24.0690 C.ar  152  TYR152     -0.0009
    152  CD2      -49.4020  -29.9930   23.4870 C.ar  152  TYR152     -0.0009
    153  CE1      -49.2830  -27.2630   23.0440 C.ar  152  TYR152      0.0417
    154  CE2      -48.5900  -29.4870   22.4720 C.ar  152  TYR152      0.0417
    155  CZ       -48.5380  -28.1200   22.2510 C.ar  152  TYR152      0.1957
    156  OH       -47.7520  -27.6090   21.2490 O.3   152  TYR152     -0.2866
    157  N        -53.2420  -28.3920   23.2470 N.am  153  MET153     -0.1977
    158  CA       -53.8230  -28.3820   21.9070 C.3   153  MET153      0.1605
    159  C        -52.6550  -28.2660   20.9100 C.2   153  MET153      0.2287
    160  O        -52.2560  -27.1500   20.5900 O.2   153  MET153     -0.2864
    161  CB       -54.8080  -27.2010   21.7580 C.3   153  MET153      0.0413
    162  CG       -55.9950  -27.2530   22.6980 C.3   153  MET153      0.0598
    163  SD       -57.3100  -28.3540   22.1310 S.3   153  MET153     -0.1393
    164  CE       -56.9680  -29.7930   23.1220 C.3   153  MET153      0.0692
    165  N        -58.4590  -16.7580   17.2560 N.3   199  ASP199     -0.1239
    166  CA       -57.3940  -16.7990   18.2630 C.3   199  ASP199      0.1674
    167  C        -57.8380  -17.6830   19.4370 C.2   199  ASP199      0.2266
    168  O        -57.0030  -18.3260   20.0810 O.2   199  ASP199     -0.2867
    169  CB       -57.0830  -15.3780   18.7780 C.3   199  ASP199      0.1410
    170  CG       -56.9490  -14.3130   17.7040 C.2   199  ASP199      0.3668
    171  OD1      -57.9710  -14.0000   17.0440 O.co2 199  ASP199     -0.2456
    172  OD2      -55.8280  -13.7850   17.5290 O.co2 199  ASP199     -0.2456
    173  N        -58.9320  -23.3970   19.1260 N.3   202  LEU202     -0.1245
    174  CA       -57.7560  -24.2670   19.1180 C.3   202  LEU202      0.1561
    175  C        -58.0470  -25.6590   18.5680 C.2   202  LEU202      0.2260
    176  O        -59.1940  -26.1020   18.5900 O.2   202  LEU202     -0.2867
    177  CB       -57.1340  -24.3560   20.5200 C.3   202  LEU202      0.0270
    178  CG       -56.4270  -23.1050   21.0430 C.3   202  LEU202      0.0019
    179  CD1      -56.2860  -23.1690   22.5270 C.3   202  LEU202      0.0001
    180  CD2      -55.0440  -22.9420   20.4300 C.3   202  LEU202      0.0001
    181  N        -61.4270  -21.8530   23.6180 N.3   212  ALA212     -0.1231
    182  CA       -60.5610  -21.4340   24.7290 C.3   212  ALA212      0.1694
    183  C        -60.7220  -19.9280   24.9480 C.2   212  ALA212      0.2592
    184  O        -61.3990  -19.2740   24.1500 O.2   212  ALA212     -0.2718
    185  CB       -59.1090  -21.7760   24.4330 C.3   212  ALA212      0.0304
    186  N        -60.1120  -19.3850   26.0230 N.am  213  ASP213     -0.1974
    187  CA       -60.1760  -17.9730   26.4150 C.3   213  ASP213      0.1709
    188  C        -61.6290  -17.5520   26.7030 C.2   213  ASP213      0.2293
    189  O        -62.3380  -17.0420   25.8260 O.2   213  ASP213     -0.2864
    190  CB       -59.4560  -17.0480   25.4030 C.3   213  ASP213      0.1436
    191  CG       -59.0220  -15.6920   25.9370 C.2   213  ASP213      0.3671
    192  OD1      -59.3090  -15.3940   27.1210 O.co2 213  ASP213     -0.2456
    193  OD2      -58.3910  -14.9270   25.1710 O.co2 213  ASP213     -0.2456
    194  N        -62.5280  -15.4420   29.3050 N.3   215  GLY215     -0.1210
    195  CA       -62.4480  -14.2630   30.1650 C.3   215  GLY215      0.1956
    196  C        -63.4780  -13.1930   29.8580 C.2   215  GLY215      0.2612
    197  O        -63.6250  -12.2330   30.6200 O.2   215  GLY215     -0.2717
    198  N        -64.1980  -13.3600   28.7390 N.am  216  THR216     -0.1952
    199  CA       -65.2310  -12.4480   28.2410 C.3   216  THR216      0.1897
    200  C        -66.6480  -12.9620   28.4980 C.2   216  THR216      0.2313
    201  O        -67.5940  -12.1770   28.4400 O.2   216  THR216     -0.2863
    202  CB       -65.0110  -12.1890   26.7560 C.3   216  THR216      0.1794
    203  OG1      -64.9720  -13.4470   26.0790 O.3   216  THR216     -0.2208
    204  CG2      -63.7380  -11.3950   26.4900 C.3   216  THR216      0.0378
    205  N        -67.2900   -5.2130   25.2910 N.3   232  VAL232     -0.1245
    206  CA       -66.2690   -6.2400   25.5540 C.3   232  VAL232      0.1561
    207  C        -66.0870   -7.1790   24.3510 C.2   232  VAL232      0.2260
    208  O        -67.0720   -7.6730   23.7940 O.2   232  VAL232     -0.2867
    209  CB       -66.4910   -7.0200   26.8830 C.3   232  VAL232      0.0252
    210  CG1      -66.0410   -6.1990   28.0890 C.3   232  VAL232      0.0019
    211  CG2      -67.9400   -7.4850   27.0450 C.3   232  VAL232      0.0019
    212  N        -47.1500  -23.3670   16.8570 N.3   356  PHE356     -0.1241
    213  CA       -47.1270  -22.1820   17.7100 C.3   356  PHE356      0.1605
    214  C        -45.8910  -21.3490   17.4190 C.2   356  PHE356      0.2264
    215  O        -44.7840  -21.8850   17.3650 O.2   356  PHE356     -0.2867
    216  CB       -47.1560  -22.5630   19.1940 C.3   356  PHE356      0.0534
    217  CG       -48.4540  -23.1600   19.6660 C.ar  356  PHE356     -0.0203
    218  CD1      -49.5260  -22.3470   20.0200 C.ar  356  PHE356     -0.0042
    219  CD2      -48.6030  -24.5350   19.7740 C.ar  356  PHE356     -0.0042
    220  CE1      -50.7290  -22.9020   20.4530 C.ar  356  PHE356     -0.0003
    221  CE2      -49.8040  -25.0890   20.2160 C.ar  356  PHE356     -0.0003
    222  CZ       -50.8570  -24.2680   20.5580 C.ar  356  PHE356     -0.0000
@<TRIPOS>BOND
     1   212   213    1
     2   171   170   ar
     3   165   166    1
     4   215   214    2
     5   214   213    1
     6   172   170   ar
     7   170   169    1
     8   213   216    1
     9   166   169    1
    10   166   167    1
    11   175   176    2
    12   175   174    1
    13   174   173    1
    14   174   177    1
    15   216   217    1
    16   167   168    2
    17   217   219   ar
    18   217   218   ar
    19   219   221   ar
    20   218   220   ar
    21   221   222   ar
    22   180   178    1
    23   220   222   ar
    24   177   178    1
    25   160   159    2
    26   159   158    1
    27   178   179    1
    28   156   155    1
    29   161   158    1
    30   161   162    1
    31   158   157    1
    32   163   162    1
    33   163   164    1
    34   155   154   ar
    35   155   153   ar
    36     4     3    2
    37   154   152   ar
    38   153   151   ar
    39   157   147   am
    40     3     2    1
    41     3     9   am
    42     7     5    1
    43   152   150   ar
    44     5     2    1
    45     5     6    1
    46     2     1    1
    47   181   182    1
    48   148   147    2
    49   208   207    2
    50   147   146    1
    51   151   150   ar
    52   184   183    2
    53    10     9    1
    54    10    11    1
    55   150   149    1
    56   207   206    1
    57   185   182    1
    58     8     6    1
    59   182   183    1
    60    16    15    2
    61   127   125    1
    62    13    11   am
    63    13    14    1
    64   183   186   am
    65   193   191   ar
    66    11    12    2
    67    17    14    1
    68    17    18    1
    69   205   206    1
    70   146   149    1
    71   146   145    1
    72   190   191    1
    73   190   187    1
    74   144   142   ar
    75   206   209    1
    76    23    21    1
    77    14    15    1
    78    15    24   am
    79   189   188    2
    80   191   192   ar
    81   186   187    1
    82   203   202    1
    83   121   122    1
    84    18    19    1
    85   142   143   ar
    86   142   141    1
    87    21    22    1
    88    21    20    2
    89   125   122    1
    90   125   126    1
    91   187   188    1
    92   145   138   am
    93   204   202    1
    94   139   138    2
    95    20    19    1
    96   122   123    1
    97   202   199    1
    98   141   140    2
    99   209   211    1
   100   209   210    1
   101    24    25    1
   102   138   137    1
   103    60    59    2
   104    25    26    1
   105    62    61    1
   106    61    63    1
   107    61    58    1
   108   140   137    1
   109    68    65    1
   110    26    28   am
   111    26    27    2
   112    59    58    1
   113    28    29    1
   114   137   136    1
   115   123   124    2
   116   199   200    1
   117   199   198    1
   118    58    57    1
   119   201   200    2
   120    57    50   am
   121   120   119    1
   122    32    29    1
   123   198   196   am
   124    29    30    1
   125    65    64    1
   126    65    66    1
   127   136   130   am
   128   194   195    1
   129    47    46    2
   130    52    49    1
   131    52    53    1
   132    49    50    1
   133    49    48    1
   134    50    51    2
   135   135   134    1
   136   134   133    1
   137    77    76    1
   138   196   195    1
   139   196   197    2
   140   130   131    2
   141   130   129    1
   142   132   133    1
   143   132   129    1
   144    66    67    2
   145    30    31    2
   146    30    33   am
   147   119   118    1
   148    56    54   ar
   149   118   117    1
   150    46    48   am
   151    46    45    1
   152    54    53    1
   153    54    55   ar
   154    75    76    1
   155    75    74    1
   156   129   128    1
   157    33    34    1
   158    74    73    1
   159    73    70    1
   160    44    45    2
   161    44    35    1
   162   117   114    1
   163   114   113    1
   164   114   115    1
   165    70    69    1
   166    70    71    1
   167   116   115    2
   168    34    35    1
   169    34    37    1
   170    35    36    2
   171    39    41   ar
   172    39    38   ar
   173    78    71   am
   174    78    79    1
   175    81    80    2
   176    71    72    2
   177    41    43   ar
   178    37    38    1
   179    93    91    1
   180   109   111   ar
   181   109   107   ar
   182   111   112   ar
   183    38    40   ar
   184    84    83    1
   185   106   107    1
   186   106   103    1
   187   107   108   ar
   188    43    42   ar
   189   105   104    2
   190   112   110   ar
   191    80    79    1
   192    80    86   am
   193    82    79    1
   194    82    83    1
   195    40    42   ar
   196    91    92    1
   197    91    90    1
   198   100    99   ar
   199   101    99   ar
   200   108   110   ar
   201    83    85    1
   202   104   103    1
   203   103   102    1
   204    99    98    1
   205    86    87    1
   206    87    90    1
   207    87    88    1
   208    98    95    1
   209    88    89    2
   210    97    96    2
   211    95    96    1
   212    95    94    1
