@<TRIPOS>MOLECULE
tmp/5wnfD00.pdb
 215 205 0 0 0
SMALL
GASTEIGER

@<TRIPOS>ATOM
      1  N        -76.2370  -23.0940   86.7210 N.3    76  ILE76      -0.1231
      2  CA       -75.7040  -24.0210   87.7340 C.3    76  ILE76       0.1692
      3  C        -74.2340  -23.7460   88.1070 C.2    76  ILE76       0.2593
      4  O        -73.7350  -24.2860   89.0980 O.2    76  ILE76      -0.2718
      5  CB       -75.9320  -25.5110   87.3130 C.3    76  ILE76       0.0266
      6  CG1      -75.1890  -25.8790   85.9920 C.3    76  ILE76       0.0019
      7  CG2      -77.4330  -25.8270   87.2430 C.3    76  ILE76       0.0020
      8  CD1      -74.9940  -27.3610   85.7390 C.3    76  ILE76       0.0001
      9  N        -73.5690  -22.9060   87.3290 N.am   77  GLY77      -0.1942
     10  CA       -72.1790  -22.5520   87.5670 C.3    77  GLY77       0.2014
     11  C        -71.8120  -21.1670   87.0870 C.2    77  GLY77       0.2639
     12  O        -72.5180  -20.5800   86.2660 O.2    77  GLY77      -0.2714
     13  N        -70.6960  -20.6410   87.5990 N.am   78  ARG78      -0.1963
     14  CA       -70.1740  -19.3220   87.2540 C.3    78  ARG78       0.1729
     15  C        -68.6690  -19.2960   87.4390 C.2    78  ARG78       0.2617
     16  O        -68.1370  -19.8590   88.3990 O.2    78  ARG78      -0.2715
     17  CB       -70.8310  -18.2250   88.1100 C.3    78  ARG78       0.0348
     18  CG       -70.6660  -16.8110   87.5530 C.3    78  ARG78       0.0492
     19  CD       -71.9740  -16.2640   87.0240 C.3    78  ARG78       0.2205
     20  NE       -72.9350  -16.0450   88.1060 N.pl3  78  ARG78      -0.0865
     21  CZ       -74.2370  -15.8470   87.9330 C.cat  78  ARG78       0.5346
     22  NH1      -74.7590  -15.8360   86.7130 N.pl3  78  ARG78       0.1354
     23  NH2      -75.0300  -15.6630   88.9820 N.pl3  78  ARG78       0.1354
     24  N        -68.0090  -18.6360   86.5070 N.am   79  GLY79      -0.1940
     25  CA       -66.5680  -18.4440   86.4990 C.3    79  GLY79       0.2014
     26  C        -66.2410  -17.0100   86.1700 C.2    79  GLY79       0.2639
     27  O        -67.1440  -16.1710   86.0750 O.2    79  GLY79      -0.2714
     28  N        -64.9490  -16.7260   85.9790 N.am   80  ALA80      -0.1963
     29  CA       -64.4360  -15.3920   85.6870 C.3    80  ALA80       0.1728
     30  C        -64.9450  -14.8080   84.3610 C.2    80  ALA80       0.2616
     31  O        -65.3650  -13.6480   84.3360 O.2    80  ALA80      -0.2715
     32  CB       -62.9180  -15.4180   85.7050 C.3    80  ALA80       0.0334
     33  N        -64.9130  -15.6140   83.2700 N.am   81  PHE81      -0.1960
     34  CA       -65.2910  -15.1970   81.9160 C.3    81  PHE81       0.1774
     35  C        -66.6440  -15.7180   81.4380 C.2    81  PHE81       0.2659
     36  O        -66.9710  -15.5580   80.2630 O.2    81  PHE81      -0.2711
     37  CB       -64.1840  -15.5650   80.8960 C.3    81  PHE81       0.0574
     38  CG       -62.8280  -14.9030   81.0530 C.ar   81  PHE81      -0.0200
     39  CD1      -62.6600  -13.7990   81.8870 C.ar   81  PHE81      -0.0042
     40  CD2      -61.7240  -15.3740   80.3590 C.ar   81  PHE81      -0.0042
     41  CE1      -61.4040  -13.1950   82.0370 C.ar   81  PHE81      -0.0003
     42  CE2      -60.4670  -14.7640   80.5100 C.ar   81  PHE81      -0.0003
     43  CZ       -60.3200  -13.6750   81.3400 C.ar   81  PHE81      -0.0000
     44  N        -67.4300  -16.3070   82.3320 N.am   82  GLY82      -0.1716
     45  CA       -68.7470  -16.8000   81.9660 C.2    82  GLY82       0.1480
     46  C        -69.4920  -17.5870   83.0130 C.2    82  GLY82       0.2820
     47  O        -69.2360  -17.4580   84.2090 O.2    82  GLY82      -0.2669
     48  N        -70.4490  -18.3860   82.5440 N.am   83  GLU83      -0.1929
     49  CA       -71.3210  -19.2230   83.3630 C.3    83  GLU83       0.1736
     50  C        -71.6280  -20.5770   82.7150 C.2    83  GLU83       0.2616
     51  O        -71.4640  -20.7450   81.5020 O.2    83  GLU83      -0.2715
     52  CB       -72.6330  -18.4770   83.6920 C.3    83  GLU83       0.0429
     53  CG       -73.4660  -18.0870   82.4810 C.3    83  GLU83       0.1163
     54  CD       -74.7380  -17.3190   82.7820 C.2    83  GLU83       0.3649
     55  OE1      -75.7680  -17.6350   82.1470 O.co2  83  GLU83      -0.2457
     56  OE2      -74.7080  -16.3990   83.6320 O.co2  83  GLU83      -0.2457
     57  N        -72.0920  -21.5320   83.5400 N.am   84  VAL84      -0.1977
     58  CA       -72.5240  -22.8630   83.1110 C.3    84  VAL84       0.1596
     59  C        -74.0430  -22.9290   83.2980 C.2    84  VAL84       0.2287
     60  O        -74.5540  -22.6390   84.3850 O.2    84  VAL84      -0.2864
     61  CB       -71.7690  -24.0100   83.8330 C.3    84  VAL84       0.0276
     62  CG1      -72.3490  -25.3780   83.4690 C.3    84  VAL84       0.0022
     63  CG2      -70.2800  -23.9660   83.5100 C.3    84  VAL84       0.0022
     64  N        -74.8710  -29.6490   80.0990 N.3    97  ALA97      -0.1245
     65  CA       -74.3510  -28.5030   80.8420 C.3    97  ALA97       0.1562
     66  C        -73.5770  -27.6900   79.8040 C.2    97  ALA97       0.2260
     67  O        -72.6560  -28.2220   79.1800 O.2    97  ALA97      -0.2867
     68  CB       -73.4210  -28.9570   81.9590 C.3    97  ALA97       0.0290
     69  N        -71.2590  -24.4400   78.9450 N.3    99  LYS99      -0.1245
     70  CA       -70.3470  -23.4030   79.4260 C.3    99  LYS99       0.1561
     71  C        -70.2260  -22.3010   78.3730 C.2    99  LYS99       0.2260
     72  O        -70.0030  -22.5860   77.1980 O.2    99  LYS99      -0.2867
     73  CB       -68.9610  -23.9910   79.7710 C.3    99  LYS99       0.0271
     74  CG       -67.9800  -22.9810   80.3770 C.3    99  LYS99       0.0035
     75  CD       -66.9020  -23.6550   81.1960 C.3    99  LYS99       0.0206
     76  CE       -65.6720  -24.0260   80.4030 C.3    99  LYS99       0.1093
     77  NZ       -64.7120  -24.8150   81.2280 N.3    99  LYS99      -0.1314
     78  N        -68.1900  -18.7110   77.3870 N.3   101  LEU101     -0.1245
     79  CA       -66.9870  -17.9180   77.6310 C.3   101  LEU101      0.1561
     80  C        -67.0710  -16.6260   76.8210 C.2   101  LEU101      0.2260
     81  O        -67.1980  -16.6780   75.6020 O.2   101  LEU101     -0.2867
     82  CB       -65.6990  -18.6980   77.3080 C.3   101  LEU101      0.0270
     83  CG       -65.3610  -19.9410   78.1590 C.3   101  LEU101      0.0019
     84  CD1      -64.2540  -20.7460   77.5070 C.3   101  LEU101      0.0001
     85  CD2      -64.9330  -19.5600   79.5810 C.3   101  LEU101      0.0001
     86  N        -56.4670  -12.7070   77.5630 N.3   111  ASP111     -0.1239
     87  CA       -56.4870  -14.1110   77.9620 C.3   111  ASP111      0.1674
     88  C        -57.4730  -14.8800   77.0790 C.2   111  ASP111      0.2266
     89  O        -58.5670  -15.2400   77.5190 O.2   111  ASP111     -0.2867
     90  CB       -56.8230  -14.2340   79.4650 C.3   111  ASP111      0.1410
     91  CG       -56.2510  -15.4610   80.1520 C.2   111  ASP111      0.3668
     92  OD1      -55.6950  -16.3410   79.4470 O.co2 111  ASP111     -0.2456
     93  OD2      -56.3530  -15.5420   81.3870 O.co2 111  ASP111     -0.2456
     94  N        -56.3190  -19.9820   76.4720 N.3   114  PHE114     -0.1241
     95  CA       -56.3030  -20.9610   77.5690 C.3   114  PHE114      0.1605
     96  C        -57.1830  -22.2080   77.3680 C.2   114  PHE114      0.2264
     97  O        -56.9560  -23.2220   78.0210 O.2   114  PHE114     -0.2867
     98  CB       -56.6870  -20.2570   78.8940 C.3   114  PHE114      0.0534
     99  CG       -58.1190  -19.7810   78.9630 C.ar  114  PHE114     -0.0203
    100  CD1      -58.4700  -18.5090   78.5260 C.ar  114  PHE114     -0.0042
    101  CD2      -59.1220  -20.6080   79.4620 C.ar  114  PHE114     -0.0042
    102  CE1      -59.7950  -18.0780   78.5740 C.ar  114  PHE114     -0.0003
    103  CE2      -60.4480  -20.1730   79.5070 C.ar  114  PHE114     -0.0003
    104  CZ       -60.7730  -18.9120   79.0630 C.ar  114  PHE114     -0.0000
    105  N        -65.0480  -35.3580   81.9760 N.3   131  VAL131     -0.1245
    106  CA       -66.3720  -34.8810   81.5520 C.3   131  VAL131      0.1561
    107  C        -66.2880  -34.7110   80.0170 C.2   131  VAL131      0.2260
    108  O        -65.3540  -34.0780   79.5100 O.2   131  VAL131     -0.2867
    109  CB       -66.7910  -33.5710   82.2860 C.3   131  VAL131      0.0252
    110  CG1      -68.0090  -32.9230   81.6370 C.3   131  VAL131      0.0019
    111  CG2      -67.0460  -33.8230   83.7660 C.3   131  VAL131      0.0019
    112  N        -71.3260  -29.8580   77.2270 N.3   147  MET147     -0.1230
    113  CA       -70.7070  -30.9500   77.9910 C.3   147  MET147      0.1702
    114  C        -71.7520  -31.8550   78.6400 C.2   147  MET147      0.2595
    115  O        -72.9180  -31.4720   78.7330 O.2   147  MET147     -0.2718
    116  CB       -69.7900  -30.3840   79.1020 C.3   147  MET147      0.0401
    117  CG       -68.9200  -29.2120   78.6770 C.3   147  MET147      0.0596
    118  SD       -68.2200  -28.3060   80.0870 S.3   147  MET147     -0.1393
    119  CE       -69.7000  -27.5880   80.8120 C.3   147  MET147      0.0692
    120  N        -71.3320  -33.0410   79.1270 N.am  148  GLU148     -0.1920
    121  CA       -72.2320  -33.9490   79.8390 C.3   148  GLU148      0.1949
    122  C        -72.5760  -33.4030   81.2270 C.2   148  GLU148      0.2659
    123  O        -71.7120  -32.8510   81.9120 O.2   148  GLU148     -0.2711
    124  CB       -71.7090  -35.4030   79.9030 C.2   148  GLU148      0.0111
    125  CG       -70.4050  -35.6150   80.6520 C.2   148  GLU148      0.0838
    126  CD       -69.9700  -37.0590   80.7930 C.2   148  GLU148      0.3877
    127  OE1      -68.7740  -37.3410   80.5550 O.co2 148  GLU148     -0.2406
    128  OE2      -70.8150  -37.9060   81.1660 O.co2 148  GLU148     -0.2406
    129  N        -73.8510  -33.5160   81.6090 N.am  149  TYR149     -0.1957
    130  CA       -74.3360  -33.0490   82.9000 C.3   149  TYR149      0.1771
    131  C        -73.9270  -34.0160   84.0180 C.2   149  TYR149      0.2619
    132  O        -74.0840  -35.2340   83.8850 O.2   149  TYR149     -0.2715
    133  CB       -75.8590  -32.8030   82.8530 C.3   149  TYR149      0.0574
    134  CG       -76.4560  -32.3310   84.1610 C.ar  149  TYR149     -0.0198
    135  CD1      -75.8900  -31.2700   84.8690 C.ar  149  TYR149     -0.0009
    136  CD2      -77.6070  -32.9220   84.6800 C.ar  149  TYR149     -0.0009
    137  CE1      -76.4250  -30.8410   86.0810 C.ar  149  TYR149      0.0417
    138  CE2      -78.1630  -32.4850   85.8810 C.ar  149  TYR149      0.0417
    139  CZ       -77.5680  -31.4420   86.5750 C.ar  149  TYR149      0.1957
    140  OH       -78.0930  -30.9990   87.7590 O.3   149  TYR149     -0.2866
    141  N        -73.3630  -33.4580   85.1010 N.am  150  MET150     -0.1977
    142  CA       -72.9050  -34.1890   86.2910 C.3   150  MET150      0.1605
    143  C        -73.8740  -33.8470   87.4240 C.2   150  MET150      0.2287
    144  O        -73.6750  -32.8410   88.1080 O.2   150  MET150     -0.2864
    145  CB       -71.4620  -33.7990   86.6310 C.3   150  MET150      0.0413
    146  CG       -70.4780  -34.1340   85.5340 C.3   150  MET150      0.0598
    147  SD       -69.9890  -35.8650   85.5690 S.3   150  MET150     -0.1393
    148  CE       -70.9130  -36.4860   84.2650 C.3   150  MET150      0.0692
    149  N        -70.3520  -30.7790   92.8030 N.3   154  ASP154     -0.1239
    150  CA       -68.9070  -30.8180   93.0650 C.3   154  ASP154      0.1674
    151  C        -68.5590  -31.3010   94.4870 C.2   154  ASP154      0.2266
    152  O        -69.4440  -31.4250   95.3400 O.2   154  ASP154     -0.2867
    153  CB       -68.2100  -29.4840   92.7240 C.3   154  ASP154      0.1410
    154  CG       -68.7540  -28.2460   93.4070 C.2   154  ASP154      0.3668
    155  OD1      -68.6870  -28.1750   94.6550 O.co2 154  ASP154     -0.2456
    156  OD2      -69.1710  -27.3120   92.6910 O.co2 154  ASP154     -0.2456
    157  N        -63.3350  -28.0830   93.4860 N.3   196  ASP196     -0.1225
    158  CA       -64.2960  -27.2710   92.7260 C.3   196  ASP196      0.1805
    159  C        -64.5030  -27.8430   91.3150 C.2   196  ASP196      0.2597
    160  O        -65.6210  -27.8070   90.8000 O.2   196  ASP196     -0.2718
    161  CB       -63.8100  -25.8090   92.6400 C.3   196  ASP196      0.1424
    162  CG       -63.4730  -25.1540   93.9780 C.2   196  ASP196      0.3668
    163  OD1      -62.4830  -25.5770   94.6200 O.co2 196  ASP196     -0.2456
    164  OD2      -64.1830  -24.2020   94.3710 O.co2 196  ASP196     -0.2456
    165  N        -63.4220  -28.3750   90.7020 N.am  197  ASN197     -0.1974
    166  CA       -63.4160  -28.9630   89.3570 C.3   197  ASN197      0.1688
    167  C        -63.6150  -30.4970   89.3740 C.2   197  ASN197      0.2292
    168  O        -63.4610  -31.1410   88.3400 O.2   197  ASN197     -0.2864
    169  CB       -62.0960  -28.6190   88.6390 C.3   197  ASN197      0.1181
    170  CG       -61.6420  -27.1830   88.7380 C.2   197  ASN197      0.2629
    171  OD1      -62.4520  -26.2390   88.7640 O.2   197  ASN197     -0.2716
    172  ND2      -60.3170  -26.9960   88.7090 N.am  197  ASN197     -0.0877
    173  N        -66.3160  -33.2310   89.7890 N.3   199  LEU199     -0.1245
    174  CA       -67.7650  -33.4270   89.7480 C.3   199  LEU199      0.1561
    175  C        -68.1680  -34.8920   89.8450 C.2   199  LEU199      0.2260
    176  O        -67.3850  -35.7740   89.4900 O.2   199  LEU199     -0.2867
    177  CB       -68.3740  -32.7790   88.4900 C.3   199  LEU199      0.0270
    178  CG       -68.4090  -31.2460   88.4170 C.3   199  LEU199      0.0019
    179  CD1      -68.6820  -30.8180   87.0330 C.3   199  LEU199      0.0001
    180  CD2      -69.5280  -30.6640   89.2560 C.3   199  LEU199      0.0001
    181  N        -63.6340  -31.8820   85.6120 N.3   209  ALA209     -0.1231
    182  CA       -64.4710  -31.0430   84.7560 C.3   209  ALA209      0.1694
    183  C        -63.8410  -29.7710   84.2010 C.2   209  ALA209      0.2592
    184  O        -64.4190  -29.1790   83.2850 O.2   209  ALA209     -0.2718
    185  CB       -65.7350  -30.6900   85.4930 C.3   209  ALA209      0.0304
    186  N        -62.7190  -29.3080   84.7690 N.am  210  ASP210     -0.1974
    187  CA       -62.0420  -28.0990   84.2830 C.3   210  ASP210      0.1709
    188  C        -60.5950  -28.4270   83.9630 C.2   210  ASP210      0.2293
    189  O        -59.9460  -29.1400   84.7310 O.2   210  ASP210     -0.2864
    190  CB       -62.1430  -26.9400   85.2860 C.3   210  ASP210      0.1436
    191  CG       -62.0450  -25.5700   84.6420 C.2   210  ASP210      0.3671
    192  OD1      -60.9100  -25.1050   84.4090 O.co2 210  ASP210     -0.2456
    193  OD2      -63.1060  -24.9670   84.3620 O.co2 210  ASP210     -0.2456
    194  N        -58.5340  -25.7820   82.2510 N.3   212  GLY212     -0.1210
    195  CA       -58.1120  -24.4470   81.8460 C.3   212  GLY212      0.1956
    196  C        -56.6560  -24.0740   82.0500 C.2   212  GLY212      0.2612
    197  O        -56.2030  -23.0800   81.4730 O.2   212  GLY212     -0.2717
    198  N        -55.9110  -24.8330   82.8750 N.am  213  THR213     -0.1952
    199  CA       -54.4690  -24.5630   83.1200 C.3   213  THR213      0.1897
    200  C        -53.5740  -25.7120   82.6150 C.2   213  THR213      0.2313
    201  O        -52.3740  -25.7090   82.8930 O.2   213  THR213     -0.2863
    202  CB       -54.1860  -24.2390   84.5990 C.3   213  THR213      0.1794
    203  OG1      -54.5150  -25.3880   85.3730 O.3   213  THR213     -0.2208
    204  CG2      -54.9520  -23.0240   85.1020 C.3   213  THR213      0.0378
    205  N        -76.6900  -28.5400   93.2830 N.3   362  PHE362     -0.1241
    206  CA       -76.1040  -27.2800   92.8230 C.3   362  PHE362      0.1605
    207  C        -76.7980  -26.1140   93.5170 C.2   362  PHE362      0.2264
    208  O        -78.0300  -26.0220   93.4910 O.2   362  PHE362     -0.2867
    209  CB       -76.2290  -27.1310   91.2930 C.3   362  PHE362      0.0534
    210  CG       -75.3310  -28.0450   90.4960 C.ar  362  PHE362     -0.0203
    211  CD1      -74.0300  -27.6650   90.1770 C.ar  362  PHE362     -0.0042
    212  CD2      -75.7850  -29.2830   90.0600 C.ar  362  PHE362     -0.0042
    213  CE1      -73.1980  -28.5130   89.4470 C.ar  362  PHE362     -0.0003
    214  CE2      -74.9540  -30.1300   89.3340 C.ar  362  PHE362     -0.0003
    215  CZ       -73.6670  -29.7390   89.0270 C.ar  362  PHE362     -0.0000
@<TRIPOS>BOND
     1    81    80    2
     2    94    95    1
     3    80    79    1
     4    88    89    2
     5    88    87    1
     6    72    71    2
     7   112   113    1
     8    82    79    1
     9    82    83    1
    10    96    95    1
    11    96    97    2
    12    78    79    1
    13    84    83    1
    14    86    87    1
    15    95    98    1
    16    87    90    1
    17   113   114    1
    18   113   116    1
    19    83    85    1
    20    71    70    1
    21   100   102   ar
    22   100    99   ar
    23   102   104   ar
    24   114   115    2
    25   114   120   am
    26   117   116    1
    27   117   118    1
    28    98    99    1
    29    69    70    1
    30    99   101   ar
    31   104   103   ar
    32   120   121    1
    33    67    66    2
    34    70    73    1
    35    92    91   ar
    36   101   103   ar
    37    90    91    1
    38   108   107    2
    39    73    74    1
    40    66    65    1
    41   121   124    1
    42   121   122    1
    43   124   125    2
    44   107   106    1
    45   118   119    1
    46    64    65    1
    47    91    93   ar
    48    36    35    2
    49    40    42   ar
    50    40    38   ar
    51    74    75    1
    52    76    75    1
    53    76    77    1
    54    42    43   ar
    55   127   126   ar
    56   125   126    1
    57   126   128   ar
    58    65    68    1
    59    37    38    1
    60    37    34    1
    61    38    39   ar
    62   122   129   am
    63   122   123    2
    64    43    41   ar
    65    35    34    1
    66    35    44    1
    67   197   196    2
    68    51    50    2
    69   106   105    1
    70   106   109    1
    71   129   130    1
    72   110   109    1
    73   195   196    1
    74   195   194    1
    75    39    41   ar
    76    34    33    1
    77    45    44    2
    78    45    46    1
    79   196   198   am
    80    55    54   ar
    81   109   111    1
    82    53    54    1
    83    53    52    1
    84    48    46   am
    85    48    49    1
    86   200   201    2
    87   200   199    1
    88    50    49    1
    89    50    57   am
    90    54    56   ar
    91   133   130    1
    92   133   134    1
    93   198   199    1
    94   130   131    1
    95    46    47    2
    96    58    59    1
    97    58    57    1
    98    58    61    1
    99   199   202    1
   100    33    30   am
   101   184   183    2
   102    59    60    2
   103    49    52    1
   104    62    61    1
   105    63    61    1
   106   132   131    2
   107   188   187    1
   108   188   189    2
   109   131   141   am
   110   134   136   ar
   111   134   135   ar
   112   183   182    1
   113   183   186   am
   114   148   147    1
   115   187   186    1
   116   187   190    1
   117    31    30    2
   118    30    29    1
   119   193   191   ar
   120   192   191   ar
   121   202   204    1
   122   202   203    1
   123   191   190    1
   124   136   138   ar
   125   182   185    1
   126   182   181    1
   127   135   137   ar
   128   141   142    1
   129   146   147    1
   130   146   145    1
   131    29    32    1
   132    29    28    1
   133     8     6    1
   134   138   139   ar
   135    28    26   am
   136     6     5    1
   137    27    26    2
   138   137   139   ar
   139    26    25    1
   140    12    11    2
   141   142   145    1
   142   142   143    1
   143    25    24    1
   144    24    15   am
   145   139   140    1
   146    22    21    1
   147     1     2    1
   148    19    18    1
   149    19    20    1
   150   179   178    1
   151    11    10    1
   152    11    13   am
   153     7     5    1
   154    14    15    1
   155    14    13    1
   156    14    17    1
   157     5     2    1
   158     9    10    1
   159     9     3   am
   160   143   144    2
   161    15    16    2
   162    18    17    1
   163     2     3    1
   164    21    20    2
   165    21    23    1
   166     3     4    2
   167   168   167    2
   168   178   177    1
   169   178   180    1
   170   177   174    1
   171   169   170    1
   172   169   166    1
   173   172   170   am
   174   170   171    2
   175   215   214   ar
   176   215   213   ar
   177   214   212   ar
   178   166   167    1
   179   166   165    1
   180   213   211   ar
   181   176   175    2
   182   174   173    1
   183   174   175    1
   184   212   210   ar
   185   211   210   ar
   186   210   209    1
   187   165   159   am
   188   160   159    2
   189   209   206    1
   190   159   158    1
   191   161   158    1
   192   161   162    1
   193   156   154   ar
   194   153   150    1
   195   153   154    1
   196   158   157    1
   197   149   150    1
   198   206   205    1
   199   206   207    1
   200   150   151    1
   201   154   155   ar
   202   208   207    2
   203   162   164   ar
   204   162   163   ar
   205   151   152    2
