@<TRIPOS>MOLECULE
tmp/5wniA00.pdb
 208 193 0 0 0
SMALL
GASTEIGER

@<TRIPOS>ATOM
      1  N        -11.2870   -8.9640  -17.6080 N.3    20  VAL20      -0.1231
      2  CA       -10.5700   -7.7290  -17.9470 C.3    20  VAL20       0.1692
      3  C        -11.0650   -6.5160  -17.1300 C.2    20  VAL20       0.2593
      4  O        -10.3460   -5.5200  -17.0380 O.2    20  VAL20      -0.2718
      5  CB       -10.6570   -7.4470  -19.4720 C.3    20  VAL20       0.0266
      6  CG1       -9.8400   -6.2150  -19.8590 C.3    20  VAL20       0.0020
      7  CG2      -10.1700   -8.6530  -20.2580 C.3    20  VAL20       0.0020
      8  N        -12.2440   -6.6060  -16.5010 N.am   21  GLY21      -0.1942
      9  CA       -12.8700   -5.4690  -15.8060 C.3    21  GLY21       0.2014
     10  C        -12.2060   -4.9180  -14.5530 C.2    21  GLY21       0.2639
     11  O        -11.0920   -5.3120  -14.1790 O.2    21  GLY21      -0.2714
     12  N        -12.9160   -3.9980  -13.9000 N.am   22  SER22      -0.1949
     13  CA       -12.3540   -3.2160  -12.8010 C.3    22  SER22       0.1924
     14  C        -13.4610   -2.5940  -11.9530 C.2    22  SER22       0.2314
     15  O        -14.3830   -1.9760  -12.4870 O.2    22  SER22      -0.2863
     16  CB       -11.4480   -2.1200  -13.3740 C.3    22  SER22       0.2116
     17  OG       -10.8080   -1.4060  -12.3410 O.3    22  SER22      -0.2180
     18  N        -18.3930   -6.2410  -13.6880 N.3    23  GLN23      -0.1231
     19  CA       -17.3190   -7.1250  -14.1340 C.3    23  GLN23       0.1698
     20  C        -17.3640   -7.4220  -15.6390 C.2    23  GLN23       0.2592
     21  O        -18.3920   -7.8750  -16.1660 O.2    23  GLN23      -0.2718
     22  CB       -17.3490   -8.4510  -13.3560 C.3    23  GLN23       0.0381
     23  CG       -16.1700   -9.4060  -13.6240 C.3    23  GLN23       0.0905
     24  CD       -14.8020   -8.8670  -13.1840 C.2    23  GLN23       0.2608
     25  OE1      -14.6700   -8.2450  -12.1270 O.2    23  GLN23      -0.2717
     26  NE2      -13.7730   -9.1250  -13.9930 N.am   23  GLN23      -0.0878
     27  N        -16.2150   -7.2260  -16.2930 N.am   24  VAL24      -0.1980
     28  CA       -16.0730   -7.2970  -17.7490 C.3    24  VAL24       0.1595
     29  C        -15.1870   -8.4660  -18.1700 C.2    24  VAL24       0.2287
     30  O        -14.1000   -8.6840  -17.6100 O.2    24  VAL24      -0.2864
     31  CB       -15.4800   -5.9820  -18.3050 C.3    24  VAL24       0.0276
     32  CG1      -15.1240   -6.1000  -19.7860 C.3    24  VAL24       0.0022
     33  CG2      -16.4600   -4.8490  -18.0720 C.3    24  VAL24       0.0022
     34  N        -16.3560   -8.4290  -26.0420 N.3    37  ALA37      -0.1245
     35  CA       -16.3210   -8.0770  -24.6230 C.3    37  ALA37       0.1562
     36  C        -17.7280   -8.1110  -24.0910 C.2    37  ALA37       0.2260
     37  O        -18.6720   -7.7280  -24.8020 O.2    37  ALA37      -0.2867
     38  CB       -15.7380   -6.6950  -24.4240 C.3    37  ALA37       0.0290
     39  N        -19.9490   -7.0690  -20.4820 N.3    39  LYS39      -0.1245
     40  CA       -20.0050   -6.3940  -19.1760 C.3    39  LYS39       0.1561
     41  C        -21.1710   -6.9690  -18.3830 C.2    39  LYS39       0.2260
     42  O        -22.3310   -6.6240  -18.6340 O.2    39  LYS39      -0.2867
     43  CB       -20.2000   -4.8780  -19.3410 C.3    39  LYS39       0.0271
     44  CG       -20.0250   -4.0700  -18.0490 C.3    39  LYS39       0.0035
     45  CD       -20.9540   -2.8660  -17.9270 C.3    39  LYS39       0.0206
     46  CE       -20.8310   -1.9270  -19.1090 C.3    39  LYS39       0.1093
     47  NZ       -21.2420   -0.5420  -18.7610 N.3    39  LYS39      -0.1314
     48  N        -23.3480   -6.6660  -11.6470 N.3    42  PRO42      -0.2116
     49  CA       -22.7970   -7.0960  -10.3500 C.3    42  PRO42       0.1372
     50  C        -23.8130   -7.7820   -9.4250 C.2    42  PRO42       0.2244
     51  O        -23.4460   -8.7310   -8.7240 O.2    42  PRO42      -0.2868
     52  CB       -22.3100   -5.7820   -9.7250 C.3    42  PRO42       0.0268
     53  CG       -23.2030   -4.7370  -10.3140 C.3    42  PRO42       0.0207
     54  CD       -23.5060   -5.1960  -11.7130 C.3    42  PRO42       0.0892
     55  N        -29.5780   -1.8100  -18.8790 N.3    54  LEU54      -0.1245
     56  CA       -28.5170   -2.3450  -19.7310 C.3    54  LEU54       0.1561
     57  C        -28.9440   -2.2350  -21.2020 C.2    54  LEU54       0.2260
     58  O        -28.1400   -1.8920  -22.0730 O.2    54  LEU54      -0.2867
     59  CB       -28.2100   -3.7920  -19.3460 C.3    54  LEU54       0.0270
     60  CG       -26.7780   -4.3060  -19.4860 C.3    54  LEU54       0.0019
     61  CD1      -25.7470   -3.5110  -18.6820 C.3    54  LEU54       0.0001
     62  CD2      -26.7600   -5.7620  -19.0470 C.3    54  LEU54       0.0001
     63  N        -28.5630    1.4400  -22.1110 N.3    57  GLU57      -0.1245
     64  CA       -27.1430    1.6430  -22.3680 C.3    57  GLU57       0.1567
     65  C        -26.7900    1.1700  -23.7880 C.2    57  GLU57       0.2260
     66  O        -26.2820    1.9490  -24.5840 O.2    57  GLU57      -0.2867
     67  CB       -26.3040    0.9200  -21.3080 C.3    57  GLU57       0.0388
     68  CG       -24.8090    1.1860  -21.4220 C.3    57  GLU57       0.1160
     69  CD       -24.0030    0.6910  -20.2300 C.2    57  GLU57       0.3649
     70  OE1      -24.5870    0.4180  -19.1590 O.co2  57  GLU57      -0.2457
     71  OE2      -22.7650    0.5870  -20.3630 O.co2  57  GLU57      -0.2457
     72  N        -17.5150    3.1480  -29.0400 N.3    70  LEU70      -0.1245
     73  CA       -17.4150    1.6830  -29.0390 C.3    70  LEU70       0.1561
     74  C        -18.6590    1.0720  -29.6740 C.2    70  LEU70       0.2260
     75  O        -19.7670    1.4180  -29.2840 O.2    70  LEU70      -0.2867
     76  CB       -17.2640    1.1270  -27.6230 C.3    70  LEU70       0.0270
     77  CG       -16.9020   -0.3660  -27.5460 C.3    70  LEU70       0.0019
     78  CD1      -15.4760   -0.6580  -28.0350 C.3    70  LEU70       0.0001
     79  CD2      -17.0850   -0.8540  -26.1260 C.3    70  LEU70       0.0001
     80  N        -20.2440   -6.3260  -26.5980 N.3    84  MET84      -0.1230
     81  CA       -19.6250   -5.2260  -27.3630 C.3    84  MET84       0.1702
     82  C        -18.2470   -5.5500  -27.9770 C.2    84  MET84       0.2592
     83  O        -17.6280   -6.5660  -27.6340 O.2    84  MET84      -0.2718
     84  CB       -19.5000   -4.0020  -26.4410 C.3    84  MET84       0.0401
     85  CG       -18.6410   -4.2450  -25.2110 C.3    84  MET84       0.0596
     86  SD       -18.8800   -3.0000  -23.9290 S.3    84  MET84      -0.1393
     87  CE       -18.0810   -3.8080  -22.5460 C.3    84  MET84       0.0692
     88  N        -17.7530   -4.6700  -28.8630 N.am   85  GLU85      -0.1966
     89  CA       -16.4240   -4.8710  -29.4670 C.3    85  GLU85       0.1733
     90  C        -15.3670   -4.9220  -28.3470 C.2    85  GLU85       0.2616
     91  O        -15.4620   -4.1980  -27.3400 O.2    85  GLU85      -0.2715
     92  CB       -16.0620   -3.8090  -30.5480 C.3    85  GLU85       0.0429
     93  CG       -15.7590   -4.2560  -31.9680 C.3    85  GLU85       0.1163
     94  CD       -14.2830   -4.4820  -32.2440 C.2    85  GLU85       0.3649
     95  OE1      -13.7620   -5.5890  -31.9600 O.co2  85  GLU85      -0.2457
     96  OE2      -13.6020   -3.5550  -32.7510 O.co2  85  GLU85      -0.2457
     97  N        -14.4030   -5.8260  -28.5210 N.am   86  TYR86      -0.1960
     98  CA       -13.2970   -5.9900  -27.6030 C.3    86  TYR86       0.1771
     99  C        -12.1890   -5.0810  -28.0530 C.2    86  TYR86       0.2619
    100  O        -11.7840   -5.1070  -29.2120 O.2    86  TYR86      -0.2715
    101  CB       -12.7810   -7.4340  -27.5780 C.3    86  TYR86       0.0574
    102  CG       -11.5840   -7.6300  -26.6470 C.ar   86  TYR86      -0.0198
    103  CD1      -11.6780   -7.3420  -25.2900 C.ar   86  TYR86      -0.0009
    104  CD2      -10.3600   -8.0910  -27.1310 C.ar   86  TYR86      -0.0009
    105  CE1      -10.5900   -7.5090  -24.4420 C.ar   86  TYR86       0.0417
    106  CE2       -9.2700   -8.2660  -26.2900 C.ar   86  TYR86       0.0417
    107  CZ        -9.3920   -7.9790  -24.9490 C.ar   86  TYR86       0.1957
    108  OH        -8.3140   -8.1430  -24.1250 O.3    86  TYR86      -0.2866
    109  N        -11.6740   -4.3090  -27.1130 N.am   87  MET87      -0.1977
    110  CA       -10.5820   -3.3970  -27.3590 C.3    87  MET87       0.1605
    111  C         -9.3280   -3.9860  -26.6990 C.2    87  MET87       0.2287
    112  O         -9.2430   -4.0590  -25.4670 O.2    87  MET87      -0.2864
    113  CB       -10.9540   -2.0180  -26.8010 C.3    87  MET87       0.0413
    114  CG       -12.2190   -1.4220  -27.4270 C.3    87  MET87       0.0598
    115  SD       -12.0000   -0.9560  -29.1720 S.3    87  MET87      -0.1393
    116  CE       -11.0590    0.5240  -28.8850 C.3    87  MET87       0.0692
    117  N         -7.2800   -1.9340  -24.0320 N.3    90  GLY90      -0.1210
    118  CA        -8.0240   -1.6430  -22.8150 C.3    90  GLY90       0.1956
    119  C         -8.1970   -0.1650  -22.5380 C.2    90  GLY90       0.2612
    120  O         -8.2140    0.6600  -23.4440 O.2    90  GLY90      -0.2717
    121  N         -8.3110    0.1750  -21.2650 N.am   91  SER91      -0.1952
    122  CA        -8.6800    1.5200  -20.8770 C.3    91  SER91       0.1924
    123  C         -7.4820    2.4660  -20.9330 C.2    91  SER91       0.2314
    124  O         -6.3220    2.0460  -20.8150 O.2    91  SER91      -0.2863
    125  CB        -9.2690    1.5080  -19.4710 C.3    91  SER91       0.2116
    126  OG        -8.2650    1.2620  -18.4970 O.3    91  SER91      -0.2180
    127  N         -7.0320    4.5900  -18.5040 N.3    93  GLU93      -0.1231
    128  CA        -6.5790    4.6120  -17.1100 C.3    93  GLU93       0.1699
    129  C         -5.4090    3.6550  -16.9340 C.2    93  GLU93       0.2592
    130  O         -4.3530    4.0310  -16.3820 O.2    93  GLU93      -0.2718
    131  CB        -7.7210    4.2450  -16.1480 C.3    93  GLU93       0.0402
    132  CG        -7.2640    3.8440  -14.7480 C.3    93  GLU93       0.1161
    133  CD        -8.4150    3.7310  -13.7840 C.2    93  GLU93       0.3649
    134  OE1       -9.3030    2.8800  -14.0210 O.co2  93  GLU93      -0.2457
    135  OE2       -8.4320    4.4870  -12.7840 O.co2  93  GLU93      -0.2457
    136  N         -5.6250    2.4320  -17.4270 N.am   94  LYS94      -0.1980
    137  CA        -4.6160    1.3870  -17.4220 C.3    94  LYS94       0.1596
    138  C         -3.3640    1.7970  -18.2000 C.2    94  LYS94       0.2287
    139  O         -2.2470    1.5830  -17.7160 O.2    94  LYS94      -0.2864
    140  CB        -5.1950    0.0900  -17.9810 C.3    94  LYS94       0.0298
    141  CG        -4.3160   -1.1290  -17.7530 C.3    94  LYS94       0.0038
    142  CD        -4.8670   -2.3500  -18.4810 C.3    94  LYS94       0.0206
    143  CE        -3.8530   -3.4880  -18.5080 C.3    94  LYS94       0.1093
    144  NZ        -3.7000   -4.0390  -19.8840 N.3    94  LYS94      -0.1314
    145  N        -20.1850   10.5030  -17.8640 N.3   131  ASN131     -0.1240
    146  CA       -19.2800    9.6130  -17.1600 C.3   131  ASN131      0.1653
    147  C        -17.9210    9.5330  -17.8820 C.2   131  ASN131      0.2266
    148  O        -17.2850    8.4800  -17.9250 O.2   131  ASN131     -0.2867
    149  CB       -19.9510    8.2410  -17.0710 C.3   131  ASN131      0.1155
    150  CG       -19.4000    7.3650  -15.9570 C.2   131  ASN131      0.2627
    151  OD1      -18.7810    7.8260  -14.9700 O.2   131  ASN131     -0.2716
    152  ND2      -19.6300    6.0730  -16.1140 N.am  131  ASN131     -0.0877
    153  N        -14.3150    9.6090  -18.1610 N.3   133  LYS133     -0.1245
    154  CA       -13.0780    9.5020  -17.3940 C.3   133  LYS133      0.1561
    155  C        -12.1470    8.4960  -18.0990 C.2   133  LYS133      0.2260
    156  O        -12.5960    7.7300  -18.9500 O.2   133  LYS133     -0.2867
    157  CB       -13.3750    9.1080  -15.9310 C.3   133  LYS133      0.0271
    158  CG       -14.1430    7.8560  -15.7070 C.3   133  LYS133      0.0035
    159  CD       -14.5410    7.9020  -14.1840 C.3   133  LYS133      0.0206
    160  CE       -15.0490    6.5590  -13.7090 C.3   133  LYS133      0.1093
    161  NZ       -16.3300    6.2210  -14.3640 N.3   133  LYS133     -0.1314
    162  N        -11.0140    5.6760  -17.3630 N.3   135  ALA135     -0.1231
    163  CA       -11.5030    4.2720  -17.2850 C.3   135  ALA135      0.1694
    164  C        -12.5430    3.8760  -18.3580 C.2   135  ALA135      0.2592
    165  O        -12.7120    2.6970  -18.6260 O.2   135  ALA135     -0.2718
    166  CB       -12.0570    3.9660  -15.8900 C.3   135  ALA135      0.0304
    167  N        -13.2230    4.8600  -18.9440 N.am  136  ASN136     -0.1974
    168  CA       -14.2460    4.6560  -19.9630 C.3   136  ASN136      0.1688
    169  C        -13.8180    5.0940  -21.3700 C.2   136  ASN136      0.2292
    170  O        -14.6740    5.2340  -22.2690 O.2   136  ASN136     -0.2864
    171  CB       -15.5170    5.4370  -19.5680 C.3   136  ASN136      0.1181
    172  CG       -16.0940    4.9890  -18.2370 C.2   136  ASN136      0.2629
    173  OD1      -15.9060    3.8390  -17.7870 O.2   136  ASN136     -0.2716
    174  ND2      -16.8200    5.8930  -17.6020 N.am  136  ASN136     -0.0877
    175  N        -11.5850    3.7210  -24.2270 N.3   138  LEU138     -0.1245
    176  CA       -10.9580    2.4560  -24.5960 C.3   138  LEU138      0.1561
    177  C        -10.0720    2.6320  -25.8160 C.2   138  LEU138      0.2260
    178  O        -10.2540    3.5370  -26.6300 O.2   138  LEU138     -0.2867
    179  CB       -12.0040    1.3760  -24.8090 C.3   138  LEU138      0.0270
    180  CG       -12.9260    1.1100  -23.5930 C.3   138  LEU138      0.0019
    181  CD1      -14.0170    0.0930  -23.9320 C.3   138  LEU138      0.0001
    182  CD2      -12.1420    0.6420  -22.3770 C.3   138  LEU138      0.0001
    183  N        -16.6330    4.6520  -24.3440 N.3   148  SER148     -0.1202
    184  CA       -17.5750    3.6350  -23.8930 C.3   148  SER148      0.2020
    185  C        -18.2870    4.0890  -22.6240 C.2   148  SER148      0.2618
    186  O        -18.1410    5.2340  -22.2270 O.2   148  SER148     -0.2717
    187  CB       -16.8230    2.3290  -23.6450 C.3   148  SER148      0.2103
    188  OG       -17.7230    1.2350  -23.7350 O.3   148  SER148     -0.2182
    189  N        -19.0410    3.1700  -22.0100 N.am  149  ASP149     -0.1973
    190  CA       -19.7360    3.3480  -20.7280 C.3   149  ASP149      0.1709
    191  C        -20.7940    4.4310  -20.8030 C.2   149  ASP149      0.2293
    192  O        -20.5800    5.5720  -20.3810 O.2   149  ASP149     -0.2864
    193  CB       -18.7710    3.5900  -19.5560 C.3   149  ASP149      0.1436
    194  CG       -19.4100    3.2620  -18.1570 C.2   149  ASP149      0.3671
    195  OD1      -20.6230    2.9190  -18.0920 O.co2 149  ASP149     -0.2456
    196  OD2      -18.6810    3.3300  -17.1190 O.co2 149  ASP149     -0.2456
    197  N        -23.8520    4.0520  -19.3200 N.3   151  GLY151     -0.1210
    198  CA       -24.7750    3.8610  -18.2020 C.3   151  GLY151      0.1956
    199  C        -25.4320    5.1320  -17.6780 C.2   151  GLY151      0.2611
    200  O        -26.5940    5.0960  -17.3040 O.2   151  GLY151     -0.2717
    201  N        -24.6980    6.2490  -17.6670 N.am  152  LEU152     -0.1979
    202  CA       -25.1970    7.5300  -17.1460 C.3   152  LEU152      0.1596
    203  C        -25.6440    8.5330  -18.1980 C.2   152  LEU152      0.2287
    204  O        -25.9840    9.6520  -17.8500 O.2   152  LEU152     -0.2864
    205  CB       -24.1250    8.1970  -16.2830 C.3   152  LEU152      0.0297
    206  CG       -23.4920    7.3750  -15.1490 C.3   152  LEU152      0.0022
    207  CD1      -22.5600    8.2550  -14.3200 C.3   152  LEU152      0.0001
    208  CD2      -24.5510    6.7220  -14.2660 C.3   152  LEU152      0.0001
@<TRIPOS>BOND
     1    96    94   ar
     2    94    93    1
     3    94    95   ar
     4    93    92    1
     5    92    89    1
     6    74    75    2
     7    74    73    1
     8    89    88    1
     9    89    90    1
    10   100    99    2
    11   115   116    1
    12   115   114    1
    13    72    73    1
    14    73    76    1
    15    88    82   am
    16    97    90   am
    17    97    98    1
    18    90    91    2
    19    99    98    1
    20    99   109   am
    21    78    77    1
    22    82    83    2
    23    82    81    1
    24    76    77    1
    25    98   101    1
    26   101   102    1
    27    77    79    1
    28   114   113    1
    29    81    80    1
    30    81    84    1
    31   110   109    1
    32   110   113    1
    33   110   111    1
    34   104   102   ar
    35   104   106   ar
    36   111   112    2
    37   102   103   ar
    38   178   177    2
    39    84    85    1
    40   106   107   ar
    41    34    35    1
    42   177   176    1
    43   103   105   ar
    44    85    86    1
    45   107   105   ar
    46   107   108    1
    47   179   176    1
    48   179   180    1
    49    37    36    2
    50    35    38    1
    51    35    36    1
    52   176   175    1
    53    66    65    2
    54   183   184    1
    55   117   118    1
    56   181   180    1
    57    86    87    1
    58   184   187    1
    59   184   185    1
    60    65    64    1
    61   188   187    1
    62   180   182    1
    63   120   119    2
    64   118   119    1
    65   185   186    2
    66   185   189   am
    67   119   121   am
    68    64    63    1
    69    64    67    1
    70   170   169    2
    71    58    57    2
    72   189   190    1
    73    68    67    1
    74    68    69    1
    75   169   168    1
    76   121   122    1
    77    57    56    1
    78   123   122    1
    79   123   124    2
    80   122   125    1
    81   191   190    1
    82   191   192    2
    83   190   193    1
    84    39    40    1
    85    71    69   ar
    86     7     5    1
    87    69    70   ar
    88   168   171    1
    89   168   167    1
    90   144   143    1
    91     6     5    1
    92    32    31    1
    93    56    59    1
    94    56    55    1
    95   171   172    1
    96   193   194    1
    97    60    59    1
    98    60    62    1
    99    60    61    1
   100     5     2    1
   101   125   126    1
   102    43    40    1
   103    43    44    1
   104   197   198    1
   105    40    41    1
   106    46    47    1
   107    46    45    1
   108   156   155    2
   109   167   164   am
   110    42    41    2
   111   165   164    2
   112   143   142    1
   113   127   128    1
   114   142   141    1
   115   164   163    1
   116    31    33    1
   117    31    28    1
   118   172   173    2
   119   172   174   am
   120   198   199    1
   121   138   139    2
   122   138   137    1
   123   203   204    2
   124   203   202    1
   125    29    28    1
   126    29    30    2
   127   153   154    1
   128   194   195   ar
   129   194   196   ar
   130   155   154    1
   131    44    45    1
   132   140   141    1
   133   140   137    1
   134     2     1    1
   135     2     3    1
   136   148   147    2
   137   147   146    1
   138   145   146    1
   139    28    27    1
   140   199   201   am
   141   199   200    2
   142   201   202    1
   143   136   137    1
   144   136   129   am
   145   154   157    1
   146   162   163    1
   147   163   166    1
   148   146   149    1
   149   202   205    1
   150     3     4    2
   151     3     8   am
   152   128   129    1
   153   128   131    1
   154   149   150    1
   155   129   130    2
   156     8     9    1
   157    27    20   am
   158   205   206    1
   159    21    20    2
   160   131   132    1
   161   152   150   am
   162   150   151    2
   163   157   158    1
   164     9    10    1
   165   158   159    1
   166    20    19    1
   167   206   207    1
   168   206   208    1
   169   132   133    1
   170    10    11    2
   171    10    12   am
   172   161   160    1
   173   159   160    1
   174    19    18    1
   175    19    22    1
   176   134   133   ar
   177    26    24   am
   178    12    13    1
   179   133   135   ar
   180    23    22    1
   181    23    24    1
   182    16    13    1
   183    16    17    1
   184    24    25    2
   185    13    14    1
   186    15    14    2
   187    54    48    1
   188    54    53    1
   189    48    49    1
   190    49    52    1
   191    49    50    1
   192    53    52    1
   193    50    51    2
