@<TRIPOS>MOLECULE
tmp/5wnjA00.pdb
 175 164 0 0 0
SMALL
GASTEIGER

@<TRIPOS>ATOM
      1  N        -11.6190   -9.1080  -17.2670 N.3    19  VAL19      -0.1231
      2  CA       -10.8190   -7.8910  -17.5020 C.3    19  VAL19       0.1692
      3  C        -11.2840   -6.6660  -16.6800 C.2    19  VAL19       0.2593
      4  O        -10.5500   -5.6880  -16.5930 O.2    19  VAL19      -0.2718
      5  CB       -10.7620   -7.5320  -19.0220 C.3    19  VAL19       0.0266
      6  CG1      -10.1150   -8.6520  -19.8250 C.3    19  VAL19       0.0020
      7  CG2      -12.1450   -7.2290  -19.6030 C.3    19  VAL19       0.0020
      8  N        -12.4620   -6.7360  -16.0430 N.am   20  GLY20      -0.1942
      9  CA       -13.1480   -5.5570  -15.5050 C.3    20  GLY20       0.2014
     10  C        -12.9590   -5.2460  -14.0350 C.2    20  GLY20       0.2639
     11  O        -12.0520   -5.7740  -13.3850 O.2    20  GLY20      -0.2714
     12  N        -13.8390   -4.3780  -13.5260 N.am   21  SER21      -0.1949
     13  CA       -13.7710   -3.8310  -12.1640 C.3    21  SER21       0.1924
     14  C        -12.3810   -3.3060  -11.7720 C.2    21  SER21       0.2314
     15  O        -11.6990   -2.6590  -12.5730 O.2    21  SER21      -0.2863
     16  CB       -14.2560   -4.8770  -11.1580 C.3    21  SER21       0.2116
     17  OG       -15.5980   -5.2380  -11.4350 O.3    21  SER21      -0.2180
     18  N        -20.0260   -2.1670   -9.6350 N.3    22  PHE22      -0.1241
     19  CA       -19.8950   -1.7700  -11.0350 C.3    22  PHE22       0.1605
     20  C        -20.5150   -2.8050  -11.9920 C.2    22  PHE22       0.2264
     21  O        -21.5120   -2.5210  -12.6770 O.2    22  PHE22      -0.2867
     22  CB       -18.4140   -1.5410  -11.3780 C.3    22  PHE22       0.0534
     23  CG       -18.1900   -0.8330  -12.6780 C.ar   22  PHE22      -0.0203
     24  CD1      -18.6940    0.4160  -12.9170 C.ar   22  PHE22      -0.0042
     25  CD2      -17.5590   -1.4800  -13.6690 C.ar   22  PHE22      -0.0042
     26  CE1      -18.5070    1.0060  -14.2090 C.ar   22  PHE22      -0.0003
     27  CE2      -17.3370   -0.8680  -14.9310 C.ar   22  PHE22      -0.0003
     28  CZ       -17.8210    0.3770  -15.1620 C.ar   22  PHE22      -0.0000
     29  N        -16.5770   -7.3380  -16.3200 N.3    25  VAL25      -0.1245
     30  CA       -16.3820   -7.3690  -17.7690 C.3    25  VAL25       0.1561
     31  C        -15.4780   -8.5430  -18.1430 C.2    25  VAL25       0.2260
     32  O        -14.4050   -8.7420  -17.5440 O.2    25  VAL25      -0.2867
     33  CB       -15.7950   -6.0420  -18.3250 C.3    25  VAL25       0.0252
     34  CG1      -15.6170   -6.1090  -19.8440 C.3    25  VAL25       0.0019
     35  CG2      -16.7110   -4.8790  -17.9960 C.3    25  VAL25       0.0019
     36  N        -16.6350   -8.4200  -25.9000 N.3    38  ALA38      -0.1245
     37  CA       -16.5990   -8.0390  -24.4900 C.3    38  ALA38       0.1562
     38  C        -18.0220   -8.0500  -23.9520 C.2    38  ALA38       0.2260
     39  O        -18.9490   -7.5480  -24.6120 O.2    38  ALA38      -0.2867
     40  CB       -15.9960   -6.6480  -24.3270 C.3    38  ALA38       0.0290
     41  N        -20.2240   -7.1260  -20.3660 N.3    40  LYS40      -0.1245
     42  CA       -20.2920   -6.5320  -19.0330 C.3    40  LYS40       0.1561
     43  C        -21.5340   -7.0960  -18.3330 C.2    40  LYS40       0.2260
     44  O        -22.6640   -6.7380  -18.6810 O.2    40  LYS40      -0.2867
     45  CB       -20.3580   -4.9990  -19.1390 C.3    40  LYS40       0.0271
     46  CG       -20.3400   -4.2350  -17.8110 C.3    40  LYS40       0.0035
     47  CD       -20.8880   -2.8100  -17.9280 C.3    40  LYS40       0.0206
     48  CE       -22.3680   -2.7970  -18.3210 C.3    40  LYS40       0.1093
     49  NZ       -23.1020   -1.5740  -17.8990 N.3    40  LYS40      -0.1314
     50  N        -29.1360    1.3360  -22.1930 N.3    58  GLU58      -0.1245
     51  CA       -27.7020    1.5470  -22.3950 C.3    58  GLU58       0.1567
     52  C        -27.2800    1.1210  -23.8110 C.2    58  GLU58       0.2260
     53  O        -26.5270    1.8320  -24.4780 O.2    58  GLU58      -0.2867
     54  CB       -26.8790    0.7930  -21.3440 C.3    58  GLU58       0.0388
     55  CG       -25.4580    1.3220  -21.1820 C.3    58  GLU58       0.1160
     56  CD       -24.5650    0.4240  -20.3400 C.2    58  GLU58       0.3649
     57  OE1      -25.1020   -0.3590  -19.5260 O.co2  58  GLU58      -0.2457
     58  OE2      -23.3200    0.5040  -20.4880 O.co2  58  GLU58      -0.2457
     59  N        -17.5990    3.0950  -28.9160 N.3    71  LEU71      -0.1245
     60  CA       -17.5320    1.6320  -28.8300 C.3    71  LEU71       0.1561
     61  C        -18.7810    1.0230  -29.4490 C.2    71  LEU71       0.2260
     62  O        -19.8910    1.3560  -29.0200 O.2    71  LEU71      -0.2867
     63  CB       -17.4070    1.1570  -27.3780 C.3    71  LEU71       0.0270
     64  CG       -17.1210   -0.3420  -27.1990 C.3    71  LEU71       0.0019
     65  CD1      -15.7210   -0.7100  -27.6880 C.3    71  LEU71       0.0001
     66  CD2      -17.2900   -0.7630  -25.7470 C.3    71  LEU71       0.0001
     67  N        -20.4550   -6.2870  -26.4790 N.3    85  MET85      -0.1230
     68  CA       -19.7810   -5.1450  -27.1090 C.3    85  MET85       0.1702
     69  C        -18.4860   -5.5600  -27.7810 C.2    85  MET85       0.2592
     70  O        -17.9690   -6.6470  -27.5290 O.2    85  MET85      -0.2718
     71  CB       -19.4180   -4.0940  -26.0490 C.3    85  MET85       0.0401
     72  CG       -20.5760   -3.5440  -25.2410 C.3    85  MET85       0.0596
     73  SD       -20.0070   -2.5960  -23.8140 S.3    85  MET85      -0.1393
     74  CE       -19.5040   -3.9240  -22.7260 C.3    85  MET85       0.0692
     75  N        -17.9400   -4.6560  -28.5960 N.am   86  GLU86      -0.1966
     76  CA       -16.6300   -4.8500  -29.2100 C.3    86  GLU86       0.1733
     77  C        -15.5300   -5.0000  -28.1500 C.2    86  GLU86       0.2616
     78  O        -15.5860   -4.3660  -27.0950 O.2    86  GLU86      -0.2715
     79  CB       -16.2930   -3.6880  -30.1440 C.3    86  GLU86       0.0429
     80  CG       -15.0530   -3.9340  -30.9930 C.3    86  GLU86       0.1163
     81  CD       -14.8500   -2.9190  -32.1100 C.2    86  GLU86       0.3649
     82  OE1      -14.3460   -1.8080  -31.8330 O.co2  86  GLU86      -0.2457
     83  OE2      -15.1680   -3.2490  -33.2760 O.co2  86  GLU86      -0.2457
     84  N        -14.5360   -5.8350  -28.4560 N.am   87  TYR87      -0.1960
     85  CA       -13.3720   -6.0450  -27.5970 C.3    87  TYR87       0.1771
     86  C        -12.2470   -5.1050  -28.0150 C.2    87  TYR87       0.2619
     87  O        -11.8780   -5.0720  -29.1750 O.2    87  TYR87      -0.2715
     88  CB       -12.8740   -7.4970  -27.6710 C.3    87  TYR87       0.0574
     89  CG       -11.6470   -7.7700  -26.8150 C.ar   87  TYR87      -0.0198
     90  CD1      -11.6690   -7.5550  -25.4410 C.ar   87  TYR87      -0.0009
     91  CD2      -10.4690   -8.2490  -27.3800 C.ar   87  TYR87      -0.0009
     92  CE1      -10.5500   -7.7990  -24.6580 C.ar   87  TYR87       0.0417
     93  CE2       -9.3470   -8.5030  -26.6030 C.ar   87  TYR87       0.0417
     94  CZ        -9.3910   -8.2730  -25.2440 C.ar   87  TYR87       0.1957
     95  OH        -8.2680   -8.5090  -24.4780 O.3    87  TYR87      -0.2866
     96  N        -11.6960   -4.3800  -27.0430 N.am   88  MET88      -0.1963
     97  CA       -10.6300   -3.4200  -27.2530 C.3    88  MET88       0.1736
     98  C         -9.3640   -3.9530  -26.5690 C.2    88  MET88       0.2616
     99  O         -9.1860   -3.7750  -25.3590 O.2    88  MET88      -0.2715
    100  CB       -11.0380   -2.0650  -26.6520 C.3    88  MET88       0.0427
    101  CG       -12.3360   -1.4680  -27.1800 C.3    88  MET88       0.0599
    102  SD       -12.3040   -0.9530  -28.9100 S.3    88  MET88      -0.1393
    103  CE       -10.9730    0.2240  -28.9210 C.3    88  MET88       0.0692
    104  N         -8.4850   -4.5820  -27.3530 N.am   89  GLU89      -0.1977
    105  CA        -7.3170   -5.3380  -26.8390 C.3    89  GLU89       0.1602
    106  C         -6.4690   -4.6240  -25.7780 C.2    89  GLU89       0.2287
    107  O         -6.0280   -5.2380  -24.8000 O.2    89  GLU89      -0.2864
    108  CB        -6.3560   -5.6710  -27.9770 C.3    89  GLU89       0.0415
    109  CG        -6.8770   -6.6230  -29.0390 C.3    89  GLU89       0.1163
    110  CD        -5.7680   -7.1160  -29.9490 C.2    89  GLU89       0.3649
    111  OE1       -4.6180   -7.2570  -29.4680 O.co2  89  GLU89      -0.2457
    112  OE2       -6.0510   -7.3620  -31.1430 O.co2  89  GLU89      -0.2457
    113  N         -7.1810   -2.1900  -23.6950 N.3    91  GLY91      -0.1210
    114  CA        -7.8230   -1.8350  -22.4380 C.3    91  GLY91       0.1956
    115  C         -7.9820   -0.3290  -22.3320 C.2    91  GLY91       0.2612
    116  O         -8.1580    0.3460  -23.3370 O.2    91  GLY91      -0.2717
    117  N         -7.8910    0.1900  -21.1140 N.am   92  SER92      -0.1952
    118  CA        -8.2640    1.5590  -20.8240 C.3    92  SER92       0.1924
    119  C         -7.0700    2.5100  -20.8300 C.2    92  SER92       0.2314
    120  O         -5.9160    2.1040  -20.6670 O.2    92  SER92      -0.2863
    121  CB        -8.9700    1.6290  -19.4650 C.3    92  SER92       0.2116
    122  OG        -8.0600    1.4750  -18.3920 O.3    92  SER92      -0.2180
    123  N         -6.6480    4.6540  -18.4780 N.3    94  GLU94      -0.1231
    124  CA        -6.2060    4.6160  -17.0820 C.3    94  GLU94       0.1699
    125  C         -5.0340    3.6620  -16.8790 C.2    94  GLU94       0.2592
    126  O         -4.0290    4.0330  -16.2500 O.2    94  GLU94      -0.2718
    127  CB        -7.3550    4.2250  -16.1560 C.3    94  GLU94       0.0402
    128  CG        -6.9110    3.9490  -14.7270 C.3    94  GLU94       0.1161
    129  CD        -8.0560    3.9120  -13.7480 C.2    94  GLU94       0.3649
    130  OE1       -9.0210    3.1580  -13.9880 O.co2  94  GLU94      -0.2457
    131  OE2       -7.9780    4.6270  -12.7250 O.co2  94  GLU94      -0.2457
    132  N         -5.1810    2.4490  -17.4190 N.am   95  LYS95      -0.1980
    133  CA        -4.1370    1.4270  -17.3610 C.3    95  LYS95       0.1596
    134  C         -2.9130    1.8340  -18.1840 C.2    95  LYS95       0.2287
    135  O         -1.7850    1.6290  -17.7490 O.2    95  LYS95      -0.2864
    136  CB        -4.6700    0.0630  -17.8260 C.3    95  LYS95       0.0298
    137  CG        -3.7130   -1.1020  -17.4890 C.3    95  LYS95       0.0038
    138  CD        -4.1950   -2.4050  -18.1190 C.3    95  LYS95       0.0206
    139  CE        -5.0070   -2.0910  -19.3970 C.3    95  LYS95       0.1093
    140  NZ        -4.8340   -3.1140  -20.4450 N.3    95  LYS95      -0.1314
    141  N        -10.6890    5.6600  -17.3970 N.3   136  ALA136     -0.1231
    142  CA       -11.2130    4.2900  -17.2800 C.3   136  ALA136      0.1694
    143  C        -12.2540    3.9000  -18.3500 C.2   136  ALA136      0.2592
    144  O        -12.4190    2.7280  -18.6280 O.2   136  ALA136     -0.2718
    145  CB       -11.7970    4.0680  -15.8840 C.3   136  ALA136      0.0304
    146  N        -12.9420    4.8810  -18.9230 N.am  137  ASN137     -0.1974
    147  CA       -13.9640    4.6590  -19.9300 C.3   137  ASN137      0.1688
    148  C        -13.5260    5.0860  -21.3350 C.2   137  ASN137      0.2292
    149  O        -14.3640    5.2030  -22.2380 O.2   137  ASN137     -0.2864
    150  CB       -15.2440    5.4090  -19.5190 C.3   137  ASN137      0.1181
    151  CG       -15.8910    4.8240  -18.2730 C.2   137  ASN137      0.2629
    152  OD1      -15.6610    3.6590  -17.9080 O.2   137  ASN137     -0.2716
    153  ND2      -16.7200    5.6260  -17.6180 N.am  137  ASN137     -0.0877
    154  N        -11.3460    3.6050  -24.1540 N.3   139  LEU139     -0.1245
    155  CA       -10.7340    2.3260  -24.5090 C.3   139  LEU139      0.1561
    156  C         -9.8920    2.4450  -25.7670 C.2   139  LEU139      0.2260
    157  O        -10.1460    3.2970  -26.6200 O.2   139  LEU139     -0.2867
    158  CB       -11.8090    1.2580  -24.6810 C.3   139  LEU139      0.0270
    159  CG       -12.7330    1.0410  -23.4790 C.3   139  LEU139      0.0019
    160  CD1      -13.7700   -0.0380  -23.7760 C.3   139  LEU139      0.0001
    161  CD2      -11.9210    0.6820  -22.2410 C.3   139  LEU139      0.0001
    162  N        -16.4110    4.3780  -24.2400 N.3   149  SER149     -0.1202
    163  CA       -17.3320    3.3590  -23.7240 C.3   149  SER149      0.2020
    164  C        -18.0360    3.8360  -22.4440 C.2   149  SER149      0.2618
    165  O        -17.8840    4.9930  -22.0340 O.2   149  SER149     -0.2717
    166  CB       -16.5940    2.0220  -23.5060 C.3   149  SER149      0.2103
    167  OG       -16.2200    1.8050  -22.1540 O.3   149  SER149     -0.2182
    168  N        -18.8100    2.9240  -21.8460 N.am  150  ASP150     -0.1973
    169  CA       -19.6150    3.1490  -20.6420 C.3   150  ASP150      0.1709
    170  C        -20.6630    4.2420  -20.8410 C.2   150  ASP150      0.2293
    171  O        -20.4560    5.4040  -20.5030 O.2   150  ASP150     -0.2864
    172  CB       -18.7430    3.4310  -19.4110 C.3   150  ASP150      0.1436
    173  CG       -19.5080    3.2460  -18.0720 C.2   150  ASP150      0.3671
    174  OD1      -20.7170    2.9060  -18.0820 O.co2 150  ASP150     -0.2456
    175  OD2      -18.8860    3.4290  -17.0000 O.co2 150  ASP150     -0.2456
@<TRIPOS>BOND
     1    83    81   ar
     2    81    82   ar
     3    81    80    1
     4   112   110   ar
     5    80    79    1
     6    79    76    1
     7   110   111   ar
     8   110   109    1
     9    61    62    2
    10    61    60    1
    11    76    75    1
    12    76    77    1
    13    87    86    2
    14   109   108    1
    15   103   102    1
    16    59    60    1
    17   102   101    1
    18    60    63    1
    19    75    69   am
    20    84    77   am
    21    84    85    1
    22    77    78    2
    23    86    85    1
    24    86    96   am
    25   108   105    1
    26    69    70    2
    27    69    68    1
    28    65    64    1
    29    88    85    1
    30    88    89    1
    31    91    89   ar
    32    91    93   ar
    33    63    64    1
    34   104   105    1
    35   104    98   am
    36    97    96    1
    37    97   100    1
    38    97    98    1
    39    64    66    1
    40   101   100    1
    41    68    67    1
    42    68    71    1
    43   105   106    1
    44    89    90   ar
    45   157   156    2
    46    93    94   ar
    47    98    99    2
    48    71    72    1
    49    36    37    1
    50   106   107    2
    51   156   155    1
    52    90    92   ar
    53    94    92   ar
    54    94    95    1
    55    72    73    1
    56   158   155    1
    57   158   159    1
    58    39    38    2
    59   155   154    1
    60    37    40    1
    61    37    38    1
    62    53    52    2
    63   162   163    1
    64    73    74    1
    65    52    51    1
    66   160   159    1
    67   163   166    1
    68   163   164    1
    69   113   114    1
    70   166   167    1
    71   159   161    1
    72   116   115    2
    73   164   165    2
    74   164   168   am
    75   114   115    1
    76    51    50    1
    77    51    54    1
    78   115   117   am
    79   149   148    2
    80   168   169    1
    81    54    55    1
    82   148   147    1
    83    55    56    1
    84   117   118    1
    85   170   169    1
    86   170   171    2
    87   119   118    1
    88   119   120    2
    89   118   121    1
    90   169   172    1
    91    58    56   ar
    92   140   139    1
    93    41    42    1
    94    56    57   ar
    95   147   150    1
    96   147   146    1
    97    34    33    1
    98     6     5    1
    99     7     5    1
   100   150   151    1
   101   121   122    1
   102   172   173    1
   103   139   138    1
   104    45    42    1
   105    45    46    1
   106    42    43    1
   107     5     2    1
   108   146   143   am
   109    44    43    2
   110   144   143    2
   111   123   124    1
   112   143   142    1
   113    33    35    1
   114    33    30    1
   115    48    47    1
   116    48    49    1
   117   151   152    2
   118   151   153   am
   119   134   135    2
   120   134   133    1
   121    31    30    1
   122    31    32    2
   123   138   137    1
   124   174   173   ar
   125   173   175   ar
   126    47    46    1
   127   136   137    1
   128   136   133    1
   129    30    29    1
   130     2     1    1
   131     2     3    1
   132   132   133    1
   133   132   125   am
   134   141   142    1
   135   142   145    1
   136   124   125    1
   137   124   127    1
   138   125   126    2
   139     3     4    2
   140     3     8   am
   141   127   128    1
   142     8     9    1
   143     9    10    1
   144    28    27   ar
   145    28    26   ar
   146    27    25   ar
   147   128   129    1
   148    26    24   ar
   149    10    12   am
   150    10    11    2
   151   130   129   ar
   152   129   131   ar
   153    25    23   ar
   154    12    13    1
   155    24    23   ar
   156    23    22    1
   157    21    20    2
   158    15    14    2
   159    13    14    1
   160    13    16    1
   161    20    19    1
   162    17    16    1
   163    22    19    1
   164    19    18    1
