@<TRIPOS>MOLECULE
tmp/5wnkA00.pdb
 186 173 0 0 0
SMALL
GASTEIGER

@<TRIPOS>ATOM
      1  N        -11.1840   -8.8790  -17.4000 N.3    19  VAL19      -0.1231
      2  CA       -10.3480   -7.7330  -17.8040 C.3    19  VAL19       0.1692
      3  C        -10.5590   -6.4410  -16.9880 C.2    19  VAL19       0.2593
      4  O         -9.5710   -5.7770  -16.6710 O.2    19  VAL19      -0.2718
      5  CB       -10.4580   -7.4380  -19.3210 C.3    19  VAL19       0.0266
      6  CG1       -9.7980   -8.5460  -20.1320 C.3    19  VAL19       0.0020
      7  CG2      -11.9030   -7.2620  -19.7600 C.3    19  VAL19       0.0020
      8  N        -11.8080   -6.0890  -16.6490 N.am   20  GLY20      -0.1942
      9  CA       -12.1220   -4.8720  -15.8570 C.3    20  GLY20       0.2014
     10  C        -13.1210   -5.1370  -14.7360 C.2    20  GLY20       0.2639
     11  O        -14.0840   -5.8740  -14.9410 O.2    20  GLY20      -0.2714
     12  N        -12.9040   -4.5130  -13.5700 N.am   21  SER21      -0.1949
     13  CA       -13.6340   -4.8150  -12.3090 C.3    21  SER21       0.1924
     14  C        -13.5190   -6.2880  -11.8970 C.2    21  SER21       0.2314
     15  O        -12.4740   -6.7320  -11.4210 O.2    21  SER21      -0.2863
     16  CB       -15.1200   -4.4040  -12.3700 C.3    21  SER21       0.2116
     17  OG       -15.2820   -2.9960  -12.3650 O.3    21  SER21      -0.2180
     18  N        -19.2700   -1.8420  -10.3810 N.3    22  PHE22      -0.1227
     19  CA       -19.1910   -1.5250  -11.8040 C.3    22  PHE22       0.1736
     20  C        -19.7860   -2.6490  -12.6730 C.2    22  PHE22       0.2596
     21  O        -20.6270   -2.3940  -13.5510 O.2    22  PHE22      -0.2718
     22  CB       -17.7320   -1.2480  -12.1950 C.3    22  PHE22       0.0547
     23  CG       -17.1560    0.1200  -11.9740 C.ar   22  PHE22      -0.0202
     24  CD1      -17.8820    1.0160  -11.3220 C.ar   22  PHE22      -0.0042
     25  CD2      -15.8760    0.4350  -12.3440 C.ar   22  PHE22      -0.0042
     26  CE1      -17.3870    2.3260  -11.0700 C.ar   22  PHE22      -0.0003
     27  CE2      -15.3620    1.7240  -12.0500 C.ar   22  PHE22      -0.0003
     28  CZ       -16.1270    2.6440  -11.4580 C.ar   22  PHE22      -0.0000
     29  N        -19.3490   -3.8830  -12.4050 N.am   23  GLY23      -0.1957
     30  CA       -19.7280   -5.0720  -13.1810 C.3    23  GLY23       0.1869
     31  C        -18.5040   -5.6050  -13.8990 C.2    23  GLY23       0.2309
     32  O        -17.7770   -4.8350  -14.5260 O.2    23  GLY23      -0.2863
     33  N        -16.0320   -7.3680  -16.6110 N.3    25  VAL25      -0.1245
     34  CA       -15.9260   -7.4060  -18.0770 C.3    25  VAL25       0.1561
     35  C        -15.0820   -8.6110  -18.4960 C.2    25  VAL25       0.2260
     36  O        -14.0650   -8.9100  -17.8690 O.2    25  VAL25      -0.2867
     37  CB       -15.3170   -6.1000  -18.6500 C.3    25  VAL25       0.0252
     38  CG1      -15.2320   -6.1460  -20.1730 C.3    25  VAL25       0.0019
     39  CG2      -16.1510   -4.9010  -18.2290 C.3    25  VAL25       0.0019
     40  N        -16.1190   -8.4210  -26.1880 N.3    38  ALA38      -0.1245
     41  CA       -16.1660   -8.0690  -24.7850 C.3    38  ALA38       0.1562
     42  C        -17.5980   -8.2170  -24.3190 C.2    38  ALA38       0.2260
     43  O        -18.5300   -7.9890  -25.0930 O.2    38  ALA38      -0.2867
     44  CB       -15.7070   -6.6440  -24.6010 C.3    38  ALA38       0.0290
     45  N        -20.0100   -7.3480  -20.6090 N.3    40  LYS40      -0.1245
     46  CA       -20.1090   -6.7770  -19.2600 C.3    40  LYS40       0.1561
     47  C        -21.3440   -7.3510  -18.5560 C.2    40  LYS40       0.2260
     48  O        -22.4720   -6.9690  -18.8750 O.2    40  LYS40      -0.2867
     49  CB       -20.2180   -5.2520  -19.3540 C.3    40  LYS40       0.0271
     50  CG       -20.3270   -4.5070  -18.0230 C.3    40  LYS40       0.0035
     51  CD       -21.2370   -3.2820  -18.1220 C.3    40  LYS40       0.0206
     52  CE       -22.7160   -3.6250  -18.0000 C.3    40  LYS40       0.1093
     53  NZ       -23.5760   -2.4300  -18.2420 N.3    40  LYS40      -0.1314
     54  N        -28.7610    1.4060  -22.3840 N.3    58  GLU58      -0.1245
     55  CA       -27.3290    1.5950  -22.6320 C.3    58  GLU58       0.1567
     56  C        -26.9510    1.1200  -24.0400 C.2    58  GLU58       0.2260
     57  O        -26.2260    1.8140  -24.7560 O.2    58  GLU58      -0.2867
     58  CB       -26.4790    0.8760  -21.5800 C.3    58  GLU58       0.0388
     59  CG       -24.9830    1.1350  -21.7310 C.3    58  GLU58       0.1160
     60  CD       -24.1400    0.5660  -20.6000 C.2    58  GLU58       0.3649
     61  OE1      -24.6690   -0.2380  -19.7920 O.co2  58  GLU58      -0.2457
     62  OE2      -22.9340    0.9140  -20.5340 O.co2  58  GLU58      -0.2457
     63  N        -25.7680    3.3480  -27.3660 N.3    62  MET62      -0.1245
     64  CA       -24.5140    3.0290  -28.0620 C.3    62  MET62       0.1570
     65  C        -24.7150    2.8550  -29.5630 C.2    62  MET62       0.2261
     66  O        -23.9260    3.3790  -30.3510 O.2    62  MET62      -0.2867
     67  CB       -23.8530    1.7760  -27.4820 C.3    62  MET62       0.0387
     68  CG       -23.1100    2.0460  -26.1960 C.3    62  MET62       0.0595
     69  SD       -22.4570    0.5660  -25.4160 S.3    62  MET62      -0.1393
     70  CE       -21.0100    0.2640  -26.4250 C.3    62  MET62       0.0692
     71  N        -17.2320    3.1210  -29.1910 N.3    71  LEU71      -0.1245
     72  CA       -17.1940    1.6550  -29.1210 C.3    71  LEU71       0.1561
     73  C        -18.4470    1.0580  -29.7570 C.2    71  LEU71       0.2260
     74  O        -19.5560    1.4870  -29.4270 O.2    71  LEU71      -0.2867
     75  CB       -17.1250    1.1900  -27.6700 C.3    71  LEU71       0.0270
     76  CG       -16.9750   -0.3170  -27.4400 C.3    71  LEU71       0.0019
     77  CD1      -15.6320   -0.8330  -27.9490 C.3    71  LEU71       0.0001
     78  CD2      -17.1370   -0.6100  -25.9590 C.3    71  LEU71       0.0001
     79  N        -23.9210   -6.9640  -21.6150 N.3    83  LEU83      -0.1245
     80  CA       -23.8560   -6.2170  -22.8690 C.3    83  LEU83       0.1561
     81  C        -22.7210   -6.7610  -23.7360 C.2    83  LEU83       0.2260
     82  O        -21.5840   -6.8280  -23.2720 O.2    83  LEU83      -0.2867
     83  CB       -23.5990   -4.7440  -22.5540 C.3    83  LEU83       0.0270
     84  CG       -23.7200   -3.7230  -23.6810 C.3    83  LEU83       0.0019
     85  CD1      -25.1700   -3.5640  -24.1020 C.3    83  LEU83       0.0001
     86  CD2      -23.1490   -2.3940  -23.2230 C.3    83  LEU83       0.0001
     87  N        -20.1490   -6.3980  -26.6480 N.3    85  MET85      -0.1230
     88  CA       -19.4580   -5.2440  -27.2440 C.3    85  MET85       0.1702
     89  C        -18.2570   -5.6740  -28.0610 C.2    85  MET85       0.2592
     90  O        -17.8790   -6.8420  -28.0510 O.2    85  MET85      -0.2718
     91  CB       -18.9510   -4.3150  -26.1470 C.3    85  MET85       0.0401
     92  CG       -19.9880   -3.9390  -25.1130 C.3    85  MET85       0.0596
     93  SD       -19.2470   -2.9510  -23.8080 S.3    85  MET85      -0.1393
     94  CE       -18.0820   -4.0960  -23.0690 C.3    85  MET85       0.0692
     95  N        -17.6440   -4.7120  -28.7450 N.am   86  GLU86      -0.1966
     96  CA       -16.4020   -4.9630  -29.4510 C.3    86  GLU86       0.1733
     97  C        -15.2270   -5.0140  -28.4740 C.2    86  GLU86       0.2616
     98  O        -15.1190   -4.1860  -27.5660 O.2    86  GLU86      -0.2715
     99  CB       -16.1580   -3.9040  -30.5240 C.3    86  GLU86       0.0429
    100  CG       -15.1370   -4.3390  -31.5680 C.3    86  GLU86       0.1163
    101  CD       -15.3160   -3.6590  -32.9180 C.2    86  GLU86       0.3649
    102  OE1      -14.8050   -2.5270  -33.1010 O.co2  86  GLU86      -0.2457
    103  OE2      -15.9490   -4.2730  -33.8050 O.co2  86  GLU86      -0.2457
    104  N        -14.3490   -5.9960  -28.6730 N.am   87  TYR87      -0.1960
    105  CA       -13.1770   -6.1630  -27.8300 C.3    87  TYR87       0.1771
    106  C        -12.0600   -5.2580  -28.3040 C.2    87  TYR87       0.2619
    107  O        -11.6680   -5.3200  -29.4610 O.2    87  TYR87      -0.2715
    108  CB       -12.6740   -7.6050  -27.8360 C.3    87  TYR87       0.0574
    109  CG       -11.4660   -7.7770  -26.9500 C.ar   87  TYR87      -0.0198
    110  CD1      -11.5150   -7.4230  -25.5940 C.ar   87  TYR87      -0.0009
    111  CD2      -10.2610   -8.2610  -27.4640 C.ar   87  TYR87      -0.0009
    112  CE1      -10.3980   -7.5580  -24.7780 C.ar   87  TYR87       0.0417
    113  CE2       -9.1420   -8.4110  -26.6540 C.ar   87  TYR87       0.0417
    114  CZ        -9.2120   -8.0580  -25.3170 C.ar   87  TYR87       0.1957
    115  OH        -8.1010   -8.2000  -24.5240 O.3    87  TYR87      -0.2866
    116  N        -11.5450   -4.4430  -27.3890 N.am   88  MET88      -0.1963
    117  CA       -10.4400   -3.5390  -27.6570 C.3    88  MET88       0.1736
    118  C         -9.2030   -4.1500  -27.0280 C.2    88  MET88       0.2616
    119  O         -9.1620   -4.3020  -25.8160 O.2    88  MET88      -0.2715
    120  CB       -10.7260   -2.1730  -27.0230 C.3    88  MET88       0.0427
    121  CG       -12.0500   -1.5370  -27.4400 C.3    88  MET88       0.0599
    122  SD       -12.1200   -1.0830  -29.1800 S.3    88  MET88      -0.1393
    123  CE       -10.9370    0.2510  -29.2460 C.3    88  MET88       0.0692
    124  N         -8.2030   -4.4980  -27.8380 N.am   89  GLU89      -0.1977
    125  CA        -7.0320   -5.2360  -27.3420 C.3    89  GLU89       0.1602
    126  C         -6.2060   -4.4650  -26.3280 C.2    89  GLU89       0.2287
    127  O         -5.8920   -4.9910  -25.2570 O.2    89  GLU89      -0.2864
    128  CB        -6.1270   -5.6760  -28.4830 C.3    89  GLU89       0.0415
    129  CG        -6.7560   -6.7540  -29.3380 C.3    89  GLU89       0.1163
    130  CD        -5.8140   -7.3090  -30.3870 C.2    89  GLU89       0.3649
    131  OE1       -4.6170   -7.5290  -30.0800 O.co2  89  GLU89      -0.2457
    132  OE2       -6.2860   -7.5380  -31.5250 O.co2  89  GLU89      -0.2457
    133  N         -7.0350   -2.0580  -24.4280 N.3    91  GLY91      -0.1210
    134  CA        -7.7670   -1.8100  -23.1800 C.3    91  GLY91       0.1956
    135  C         -7.8820   -0.3350  -22.8380 C.2    91  GLY91       0.2612
    136  O         -7.8940    0.5090  -23.7210 O.2    91  GLY91      -0.2717
    137  N         -7.9570   -0.0110  -21.5550 N.am   92  SER92      -0.1952
    138  CA        -8.2520    1.3570  -21.1580 C.3    92  SER92       0.1924
    139  C         -7.0150    2.2570  -21.1440 C.2    92  SER92       0.2314
    140  O         -5.8700    1.8020  -20.9680 O.2    92  SER92      -0.2863
    141  CB        -8.9590    1.3990  -19.7950 C.3    92  SER92       0.2116
    142  OG        -8.0490    1.3520  -18.7080 O.3    92  SER92      -0.2180
    143  N         -5.1190    2.1110  -17.8440 N.3    95  LYS95      -0.1245
    144  CA        -4.0800    1.0770  -17.7990 C.3    95  LYS95       0.1561
    145  C         -2.8460    1.5320  -18.5680 C.2    95  LYS95       0.2260
    146  O         -1.7160    1.3320  -18.0980 O.2    95  LYS95      -0.2867
    147  CB        -4.5890   -0.2710  -18.3400 C.3    95  LYS95       0.0271
    148  CG        -5.5710   -0.9580  -17.3700 C.3    95  LYS95       0.0035
    149  CD        -6.1820   -2.1450  -18.1390 C.3    95  LYS95       0.0206
    150  CE        -7.3770   -2.6960  -17.3840 C.3    95  LYS95       0.1093
    151  NZ        -8.1950   -3.5090  -18.3350 N.3    95  LYS95      -0.1314
    152  N        -10.7530    5.3520  -17.6030 N.3   136  ALA136     -0.1231
    153  CA       -11.2910    3.9910  -17.5920 C.3   136  ALA136      0.1694
    154  C        -12.2690    3.7060  -18.7470 C.2   136  ALA136      0.2592
    155  O        -12.2810    2.6090  -19.2860 O.2   136  ALA136     -0.2718
    156  CB       -11.9700    3.7200  -16.2670 C.3   136  ALA136      0.0304
    157  N        -13.0850    4.6900  -19.1090 N.am  137  ASN137     -0.1974
    158  CA       -14.0250    4.5690  -20.2330 C.3   137  ASN137      0.1688
    159  C        -13.3730    4.6640  -21.5930 C.2   137  ASN137      0.2292
    160  O        -13.9400    4.1960  -22.5790 O.2   137  ASN137     -0.2864
    161  CB       -15.0480    5.7000  -20.2010 C.3   137  ASN137      0.1181
    162  CG       -15.8840    5.6880  -18.9620 C.2   137  ASN137      0.2629
    163  OD1      -16.0630    4.6470  -18.3290 O.2   137  ASN137     -0.2716
    164  ND2      -16.4100    6.8440  -18.6040 N.am  137  ASN137     -0.0877
    165  N        -11.2050    3.7330  -24.3630 N.3   139  LEU139     -0.1245
    166  CA       -10.6540    2.4430  -24.7390 C.3   139  LEU139      0.1561
    167  C         -9.8570    2.5620  -26.0210 C.2   139  LEU139      0.2260
    168  O        -10.2190    3.3260  -26.9110 O.2   139  LEU139     -0.2867
    169  CB       -11.7770    1.4200  -24.8920 C.3   139  LEU139      0.0270
    170  CG       -12.5650    1.1280  -23.6040 C.3   139  LEU139      0.0019
    171  CD1      -13.7440    0.2110  -23.9010 C.3   139  LEU139      0.0001
    172  CD2      -11.6710    0.5380  -22.5150 C.3   139  LEU139      0.0001
    173  N        -16.3690    4.6220  -24.4760 N.3   149  SER149     -0.1202
    174  CA       -17.2350    3.5700  -23.9660 C.3   149  SER149      0.2020
    175  C        -17.9510    3.9880  -22.6810 C.2   149  SER149      0.2618
    176  O        -17.7720    5.0990  -22.1850 O.2   149  SER149     -0.2717
    177  CB       -16.4120    2.2990  -23.7350 C.3   149  SER149      0.2103
    178  OG       -15.7430    2.3330  -22.4860 O.3   149  SER149     -0.2182
    179  N        -18.7800    3.0730  -22.1850 N.am  150  ASP150     -0.1973
    180  CA       -19.5550    3.2120  -20.9540 C.3   150  ASP150      0.1709
    181  C        -20.6010    4.3030  -21.0770 C.2   150  ASP150      0.2293
    182  O        -20.4230    5.4100  -20.5740 O.2   150  ASP150     -0.2864
    183  CB       -18.6660    3.4130  -19.7110 C.3   150  ASP150      0.1436
    184  CG       -19.4080    3.1220  -18.3880 C.2   150  ASP150      0.3671
    185  OD1      -20.6060    2.7470  -18.4040 O.co2 150  ASP150     -0.2456
    186  OD2      -18.7840    3.2550  -17.3140 O.co2 150  ASP150     -0.2456
@<TRIPOS>BOND
     1   103   101   ar
     2   102   101   ar
     3   101   100    1
     4   100    99    1
     5   132   130   ar
     6    99    96    1
     7   130   131   ar
     8   130   129    1
     9    66    65    2
    10    73    74    2
    11    73    72    1
    12    65    64    1
    13   107   106    2
    14    96    95    1
    15    96    97    1
    16   129   128    1
    17   123   122    1
    18    71    72    1
    19   122   121    1
    20    72    75    1
    21    95    89   am
    22   104    97   am
    23   104   105    1
    24   128   125    1
    25    97    98    2
    26   106   105    1
    27   106   116   am
    28    64    67    1
    29    64    63    1
    30    89    90    2
    31    89    88    1
    32    77    76    1
    33   124   125    1
    34   124   118   am
    35   108   105    1
    36   108   109    1
    37    75    76    1
    38   117   116    1
    39   117   118    1
    40   117   120    1
    41    67    68    1
    42   111   109   ar
    43   111   113   ar
    44    76    78    1
    45   121   120    1
    46   125   126    1
    47    88    87    1
    48    88    91    1
    49   118   119    2
    50   109   110   ar
    51   168   167    2
    52   113   114   ar
    53    70    69    1
    54   126   127    2
    55    68    69    1
    56    40    41    1
    57    91    92    1
    58   167   166    1
    59   110   112   ar
    60   114   112   ar
    61   114   115    1
    62    92    93    1
    63    43    42    2
    64   169   166    1
    65   169   170    1
    66    41    44    1
    67    41    42    1
    68    57    56    2
    69   166   165    1
    70   173   174    1
    71   133   134    1
    72    85    84    1
    73    56    55    1
    74   174   177    1
    75   174   175    1
    76   171   170    1
    77    93    94    1
    78    81    82    2
    79    81    80    1
    80   177   178    1
    81   136   135    2
    82    84    86    1
    83    84    83    1
    84   170   172    1
    85   134   135    1
    86    80    83    1
    87    80    79    1
    88   135   137   am
    89   175   176    2
    90   175   179   am
    91    55    54    1
    92    55    58    1
    93   160   159    2
    94   179   180    1
    95    59    58    1
    96    59    60    1
    97   159   158    1
    98   137   138    1
    99   138   139    1
   100   138   141    1
   101   139   140    2
   102   181   180    1
   103   181   182    2
   104   180   183    1
   105    45    46    1
   106    60    62   ar
   107    60    61   ar
   108   158   161    1
   109   158   157    1
   110   161   162    1
   111    38    37    1
   112     6     5    1
   113   141   142    1
   114     7     5    1
   115   183   184    1
   116    49    46    1
   117    49    50    1
   118     5     2    1
   119   155   154    2
   120    46    47    1
   121   157   154   am
   122   162   164   am
   123   162   163    2
   124    48    47    2
   125   154   153    1
   126    37    39    1
   127    37    34    1
   128   145   146    2
   129   145   144    1
   130    35    34    1
   131    35    36    2
   132   185   184   ar
   133   184   186   ar
   134   147   144    1
   135   147   148    1
   136   151   150    1
   137    53    52    1
   138   149   150    1
   139   149   148    1
   140    51    50    1
   141    51    52    1
   142    34    33    1
   143   143   144    1
   144     2     1    1
   145     2     3    1
   146   152   153    1
   147   153   156    1
   148     3     4    2
   149     3     8   am
   150     8     9    1
   151     9    10    1
   152    11    10    2
   153    10    12   am
   154    32    31    2
   155    31    30    1
   156    12    13    1
   157    21    20    2
   158    30    29    1
   159    20    29   am
   160    20    19    1
   161    16    17    1
   162    16    13    1
   163    25    27   ar
   164    25    23   ar
   165    13    14    1
   166    22    23    1
   167    22    19    1
   168    27    28   ar
   169    23    24   ar
   170    14    15    2
   171    19    18    1
   172    28    26   ar
   173    24    26   ar
