@<TRIPOS>MOLECULE
tmp/5wnlA00.pdb
 179 168 0 0 0
SMALL
GASTEIGER

@<TRIPOS>ATOM
      1  N        -12.0550   -9.4100  -17.4230 N.3    19  VAL19      -0.1231
      2  CA       -11.1720   -8.2730  -17.7520 C.3    19  VAL19       0.1692
      3  C        -11.3670   -7.0420  -16.8510 C.2    19  VAL19       0.2593
      4  O        -10.4290   -6.2620  -16.6770 O.2    19  VAL19      -0.2718
      5  CB       -11.2840   -7.8630  -19.2420 C.3    19  VAL19       0.0266
      6  CG1      -10.8120   -8.9960  -20.1360 C.3    19  VAL19       0.0020
      7  CG2      -12.7030   -7.4420  -19.6130 C.3    19  VAL19       0.0020
      8  N        -12.5730   -6.8540  -16.3070 N.am   20  GLY20      -0.1942
      9  CA       -12.8150   -5.8220  -15.2910 C.3    20  GLY20       0.2014
     10  C        -14.1070   -6.0320  -14.5210 C.2    20  GLY20       0.2639
     11  O        -14.9830   -6.7820  -14.9570 O.2    20  GLY20      -0.2714
     12  N        -14.2250   -5.3540  -13.3800 N.am   21  SER21      -0.1949
     13  CA       -15.3580   -5.5460  -12.4610 C.3    21  SER21       0.1924
     14  C        -15.6320   -4.2860  -11.6270 C.2    21  SER21       0.2314
     15  O        -14.9220   -3.2850  -11.7580 O.2    21  SER21      -0.2863
     16  CB       -15.0930   -6.7660  -11.5610 C.3    21  SER21       0.2116
     17  OG       -13.8300   -6.6720  -10.9200 O.3    21  SER21      -0.2180
     18  N        -21.2810   -2.0950  -12.0060 N.3    24  PHE24      -0.1227
     19  CA       -21.8530   -2.8140  -13.1490 C.3    24  PHE24       0.1736
     20  C        -21.4300   -4.2790  -13.0510 C.2    24  PHE24       0.2596
     21  O        -22.2700   -5.1730  -13.0360 O.2    24  PHE24      -0.2718
     22  CB       -21.3810   -2.2030  -14.4720 C.3    24  PHE24       0.0547
     23  CG       -21.7460   -0.7460  -14.6370 C.ar   24  PHE24      -0.0202
     24  CD1      -23.0540   -0.3750  -14.5810 C.ar   24  PHE24      -0.0042
     25  CD2      -20.7420    0.2110  -14.7210 C.ar   24  PHE24      -0.0042
     26  CE1      -23.4210    0.9640  -14.6950 C.ar   24  PHE24      -0.0003
     27  CE2      -21.1080    1.5420  -14.8030 C.ar   24  PHE24      -0.0003
     28  CZ       -22.4600    1.8950  -14.7350 C.ar   24  PHE24      -0.0000
     29  N        -20.1190   -4.5020  -12.9600 N.am   25  GLY25      -0.1957
     30  CA       -19.5660   -5.7650  -12.4710 C.3    25  GLY25       0.1869
     31  C        -19.5350   -6.9050  -13.4680 C.2    25  GLY25       0.2309
     32  O        -20.5130   -7.1490  -14.1690 O.2    25  GLY25      -0.2863
     33  N        -17.1170   -7.9750  -16.4450 N.3    27  VAL27      -0.1245
     34  CA       -16.9380   -7.8670  -17.8950 C.3    27  VAL27       0.1561
     35  C        -15.9800   -8.9670  -18.3320 C.2    27  VAL27       0.2260
     36  O        -14.9250   -9.1590  -17.7170 O.2    27  VAL27      -0.2867
     37  CB       -16.3990   -6.4810  -18.3340 C.3    27  VAL27       0.0252
     38  CG1      -16.1420   -6.4470  -19.8400 C.3    27  VAL27       0.0019
     39  CG2      -17.3900   -5.3850  -17.9700 C.3    27  VAL27       0.0019
     40  N        -16.7540   -8.5980  -26.1470 N.3    40  ALA40      -0.1245
     41  CA       -16.8100   -8.2540  -24.7300 C.3    40  ALA40       0.1562
     42  C        -18.2470   -8.3910  -24.2460 C.2    40  ALA40       0.2260
     43  O        -19.1820   -8.0080  -24.9610 O.2    40  ALA40      -0.2867
     44  CB       -16.3260   -6.8310  -24.5170 C.3    40  ALA40       0.0290
     45  N        -20.5520   -7.4690  -20.6890 N.3    42  LYS42      -0.1245
     46  CA       -20.7630   -6.9500  -19.3350 C.3    42  LYS42       0.1561
     47  C        -22.0150   -7.6160  -18.7570 C.2    42  LYS42       0.2260
     48  O        -23.1150   -7.4100  -19.2670 O.2    42  LYS42      -0.2867
     49  CB       -20.9420   -5.4270  -19.3720 C.3    42  LYS42       0.0271
     50  CG       -21.0370   -4.7530  -18.0050 C.3    42  LYS42       0.0035
     51  CD       -21.5120   -3.3040  -18.1050 C.3    42  LYS42       0.0206
     52  CE       -23.0130   -3.2210  -18.3510 C.3    42  LYS42       0.1093
     53  NZ       -23.5470   -1.8590  -18.1050 N.3    42  LYS42      -0.1314
     54  N        -29.1590    1.1560  -22.5100 N.3    57  GLU57      -0.1245
     55  CA       -27.7250    1.3640  -22.7240 C.3    57  GLU57       0.1567
     56  C        -27.3250    0.9500  -24.1330 C.2    57  GLU57       0.2260
     57  O        -26.6010    1.6670  -24.8150 O.2    57  GLU57      -0.2867
     58  CB       -26.8980    0.5870  -21.6990 C.3    57  GLU57       0.0388
     59  CG       -25.4310    0.9950  -21.6530 C.3    57  GLU57       0.1160
     60  CD       -24.6030    0.1610  -20.6880 C.2    57  GLU57       0.3649
     61  OE1      -25.1910   -0.5780  -19.8730 O.co2  57  GLU57      -0.2457
     62  OE2      -23.3550    0.2450  -20.7480 O.co2  57  GLU57      -0.2457
     63  N        -17.4610    2.8650  -29.0660 N.3    70  LEU70      -0.1245
     64  CA       -17.4610    1.4090  -29.0270 C.3    70  LEU70       0.1561
     65  C        -18.7450    0.8740  -29.6730 C.2    70  LEU70       0.2260
     66  O        -19.8410    1.3250  -29.3210 O.2    70  LEU70      -0.2867
     67  CB       -17.3580    0.9010  -27.5920 C.3    70  LEU70       0.0270
     68  CG       -17.1080   -0.6040  -27.4660 C.3    70  LEU70       0.0019
     69  CD1      -15.6610   -0.9660  -27.7780 C.3    70  LEU70       0.0001
     70  CD2      -17.4750   -1.0630  -26.0750 C.3    70  LEU70       0.0001
     71  N        -20.6590   -6.4360  -26.7400 N.3    84  MET84      -0.1230
     72  CA       -20.0400   -5.3630  -27.5230 C.3    84  MET84       0.1702
     73  C        -18.6490   -5.7400  -28.0250 C.2    84  MET84       0.2592
     74  O        -18.1310   -6.8100  -27.7070 O.2    84  MET84      -0.2718
     75  CB       -20.0260   -4.0450  -26.7220 C.3    84  MET84       0.0401
     76  CG       -19.5150   -4.1330  -25.2980 C.3    84  MET84       0.0596
     77  SD       -20.3840   -3.0140  -24.1760 S.3    84  MET84      -0.1393
     78  CE       -20.2670   -3.9800  -22.6760 C.3    84  MET84       0.0692
     79  N        -18.0780   -4.8690  -28.8550 N.am   85  GLU85      -0.1966
     80  CA       -16.7510   -5.0790  -29.4230 C.3    85  GLU85       0.1733
     81  C        -15.6770   -5.1970  -28.3370 C.2    85  GLU85       0.2616
     82  O        -15.7820   -4.5740  -27.2810 O.2    85  GLU85      -0.2715
     83  CB       -16.4160   -3.9420  -30.3890 C.3    85  GLU85       0.0429
     84  CG       -15.0500   -4.0490  -31.0530 C.3    85  GLU85       0.1163
     85  CD       -14.9710   -3.2960  -32.3690 C.2    85  GLU85       0.3649
     86  OE1      -15.5590   -3.7840  -33.3600 O.co2  85  GLU85      -0.2457
     87  OE2      -14.3150   -2.2300  -32.4160 O.co2  85  GLU85      -0.2457
     88  N        -14.6610   -6.0170  -28.6120 N.am   86  TYR86      -0.1960
     89  CA       -13.5300   -6.2170  -27.7070 C.3    86  TYR86       0.1771
     90  C        -12.3800   -5.3080  -28.1110 C.2    86  TYR86       0.2619
     91  O        -12.0130   -5.2580  -29.2760 O.2    86  TYR86      -0.2715
     92  CB       -13.0580   -7.6770  -27.7210 C.3    86  TYR86       0.0574
     93  CG       -11.8300   -7.9330  -26.8580 C.ar   86  TYR86      -0.0198
     94  CD1      -11.8450   -7.6620  -25.4920 C.ar   86  TYR86      -0.0009
     95  CD2      -10.6580   -8.4500  -27.4110 C.ar   86  TYR86      -0.0009
     96  CE1      -10.7270   -7.8900  -24.7030 C.ar   86  TYR86       0.0417
     97  CE2       -9.5360   -8.6870  -26.6300 C.ar   86  TYR86       0.0417
     98  CZ        -9.5700   -8.4030  -25.2800 C.ar   86  TYR86       0.1957
     99  OH        -8.4510   -8.6320  -24.5070 O.3    86  TYR86      -0.2866
    100  N        -11.8110   -4.6140  -27.1290 N.am   87  MET87      -0.1963
    101  CA       -10.7090   -3.6910  -27.3400 C.3    87  MET87       0.1736
    102  C         -9.4740   -4.2670  -26.6460 C.2    87  MET87       0.2616
    103  O         -9.3500   -4.1730  -25.4250 O.2    87  MET87      -0.2715
    104  CB       -11.0680   -2.3140  -26.7650 C.3    87  MET87       0.0427
    105  CG       -12.3600   -1.7010  -27.3050 C.3    87  MET87       0.0599
    106  SD       -12.2950   -1.2340  -29.0480 S.3    87  MET87      -0.1393
    107  CE       -11.1130    0.0960  -29.0330 C.3    87  MET87       0.0692
    108  N         -8.5760   -4.8660  -27.4360 N.am   88  GLU88      -0.1977
    109  CA        -7.4220   -5.6420  -26.9250 C.3    88  GLU88       0.1602
    110  C         -6.5810   -4.9250  -25.8780 C.2    88  GLU88       0.2287
    111  O         -6.2100   -5.5040  -24.8570 O.2    88  GLU88      -0.2864
    112  CB        -6.4720   -5.9990  -28.0680 C.3    88  GLU88       0.0415
    113  CG        -6.9570   -7.0790  -29.0150 C.3    88  GLU88       0.1163
    114  CD        -5.9670   -7.3340  -30.1370 C.2    88  GLU88       0.3649
    115  OE1       -4.7420   -7.2030  -29.9010 O.co2  88  GLU88      -0.2457
    116  OE2       -6.4170   -7.6640  -31.2570 O.co2  88  GLU88      -0.2457
    117  N         -7.2060   -2.4510  -23.8900 N.3    90  GLY90      -0.1210
    118  CA        -7.8400   -2.0600  -22.6380 C.3    90  GLY90       0.1956
    119  C         -7.9030   -0.5520  -22.5050 C.2    90  GLY90       0.2612
    120  O         -7.9700    0.1530  -23.5030 O.2    90  GLY90      -0.2717
    121  N         -7.8440   -0.0620  -21.2710 N.am   91  SER91      -0.1952
    122  CA        -8.1990    1.3190  -20.9590 C.3    91  SER91       0.1924
    123  C         -7.0130    2.2730  -20.9950 C.2    91  SER91       0.2314
    124  O         -5.8540    1.8640  -20.8620 O.2    91  SER91      -0.2863
    125  CB        -8.8490    1.3930  -19.5740 C.3    91  SER91       0.2116
    126  OG        -7.8990    1.1600  -18.5430 O.3    91  SER91      -0.2180
    127  N         -6.5550    4.3830  -18.6290 N.3    93  GLU93      -0.1231
    128  CA        -6.0880    4.3350  -17.2410 C.3    93  GLU93       0.1699
    129  C         -4.8870    3.4100  -17.1020 C.2    93  GLU93       0.2592
    130  O         -3.8610    3.8030  -16.5370 O.2    93  GLU93      -0.2718
    131  CB        -7.2100    3.8740  -16.3070 C.3    93  GLU93       0.0402
    132  CG        -6.8400    3.8660  -14.8230 C.3    93  GLU93       0.1161
    133  CD        -7.9660    3.3520  -13.9440 C.2    93  GLU93       0.3649
    134  OE1       -8.4200    2.2100  -14.1600 O.co2  93  GLU93      -0.2457
    135  OE2       -8.3890    4.0840  -13.0300 O.co2  93  GLU93      -0.2457
    136  N         -5.0150    2.1930  -17.6290 N.am   94  LYS94      -0.1980
    137  CA        -3.9240    1.2210  -17.5880 C.3    94  LYS94       0.1596
    138  C         -2.7410    1.6760  -18.4360 C.2    94  LYS94       0.2287
    139  O         -1.5920    1.5240  -18.0230 O.2    94  LYS94      -0.2864
    140  CB        -4.3930   -0.1700  -18.0320 C.3    94  LYS94       0.0298
    141  CG        -3.3300   -1.2560  -17.8640 C.3    94  LYS94       0.0038
    142  CD        -3.8560   -2.6470  -18.1750 C.3    94  LYS94       0.0206
    143  CE        -3.9120   -2.9040  -19.6710 C.3    94  LYS94       0.1093
    144  NZ        -4.5730   -4.1980  -20.0000 N.3    94  LYS94      -0.1314
    145  N        -10.4410    5.4570  -17.4760 N.3   135  ALA135     -0.1231
    146  CA       -10.8960    4.0840  -17.2770 C.3   135  ALA135      0.1694
    147  C        -11.9390    3.6350  -18.3050 C.2   135  ALA135      0.2592
    148  O        -11.9970    2.4520  -18.6330 O.2   135  ALA135     -0.2718
    149  CB       -11.4490    3.9220  -15.8690 C.3   135  ALA135      0.0304
    150  N        -12.7500    4.5790  -18.7910 N.am  136  ASN136     -0.1974
    151  CA       -13.7960    4.3200  -19.7860 C.3   136  ASN136      0.1688
    152  C        -13.3940    4.6490  -21.2280 C.2   136  ASN136      0.2292
    153  O        -14.2060    4.5000  -22.1510 O.2   136  ASN136     -0.2864
    154  CB       -15.0640    5.1080  -19.4210 C.3   136  ASN136      0.1181
    155  CG       -15.7040    4.6190  -18.1340 C.2   136  ASN136      0.2629
    156  OD1      -15.4550    3.4920  -17.6800 O.2   136  ASN136     -0.2716
    157  ND2      -16.5420    5.4600  -17.5400 N.am  136  ASN136     -0.0877
    158  N        -11.3780    3.3330  -24.0830 N.3   138  LEU138     -0.1245
    159  CA       -10.7630    2.0780  -24.5040 C.3   138  LEU138      0.1561
    160  C         -9.9410    2.2640  -25.7610 C.2   138  LEU138      0.2260
    161  O        -10.1860    3.1770  -26.5510 O.2   138  LEU138     -0.2867
    162  CB       -11.8290    1.0050  -24.7210 C.3   138  LEU138      0.0270
    163  CG       -12.5300    0.4680  -23.4680 C.3   138  LEU138      0.0019
    164  CD1      -13.5560   -0.5960  -23.8380 C.3   138  LEU138      0.0001
    165  CD2      -11.5220   -0.1100  -22.4830 C.3   138  LEU138      0.0001
    166  N        -16.3770    4.3100  -24.2280 N.3   148  SER148     -0.1202
    167  CA       -17.1350    3.1880  -23.6730 C.3   148  SER148      0.2020
    168  C        -17.9130    3.5920  -22.4300 C.2   148  SER148      0.2618
    169  O        -17.7670    4.7100  -21.9300 O.2   148  SER148     -0.2717
    170  CB       -16.1780    2.0540  -23.3090 C.3   148  SER148      0.2103
    171  OG       -15.3040    1.7880  -24.3870 O.3   148  SER148     -0.2182
    172  N        -18.7170    2.6490  -21.9380 N.am  149  ASP149     -0.1973
    173  CA       -19.5070    2.7860  -20.7080 C.3   149  ASP149      0.1709
    174  C        -20.5420    3.8920  -20.8200 C.2   149  ASP149      0.2293
    175  O        -20.3380    5.0070  -20.3360 O.2   149  ASP149     -0.2864
    176  CB       -18.6160    2.9820  -19.4700 C.3   149  ASP149      0.1436
    177  CG       -19.3740    2.7690  -18.1450 C.2   149  ASP149      0.3671
    178  OD1      -20.5780    2.4200  -18.1550 O.co2 149  ASP149     -0.2456
    179  OD2      -18.7440    2.9480  -17.0840 O.co2 149  ASP149     -0.2456
@<TRIPOS>BOND
     1    86    85   ar
     2    87    85   ar
     3    85    84    1
     4   116   114   ar
     5    84    83    1
     6    83    80    1
     7   114   115   ar
     8   114   113    1
     9    65    66    2
    10    65    64    1
    11    80    79    1
    12    80    81    1
    13    91    90    2
    14    63    64    1
    15   106   107    1
    16   106   105    1
    17    64    67    1
    18   113   112    1
    19    79    73   am
    20    88    81   am
    21    88    89    1
    22    81    82    2
    23    90    89    1
    24    90   100   am
    25   112   109    1
    26    73    74    2
    27    73    72    1
    28    69    68    1
    29    92    89    1
    30    92    93    1
    31    67    68    1
    32    72    71    1
    33    72    75    1
    34    68    70    1
    35   108   109    1
    36   108   102   am
    37    95    93   ar
    38    95    97   ar
    39   101   100    1
    40   101   104    1
    41   101   102    1
    42   105   104    1
    43   109   110    1
    44    93    94   ar
    45    75    76    1
    46   102   103    2
    47    97    98   ar
    48   161   160    2
    49    40    41    1
    50   110   111    2
    51   160   159    1
    52    94    96   ar
    53    76    77    1
    54    98    96   ar
    55    98    99    1
    56    43    42    2
    57    57    56    2
    58    41    44    1
    59    41    42    1
    60   162   159    1
    61   162   163    1
    62   159   158    1
    63   171   170    1
    64   166   167    1
    65    77    78    1
    66    56    55    1
    67   117   118    1
    68   164   163    1
    69   167   170    1
    70   167   168    1
    71   120   119    2
    72   163   165    1
    73    55    54    1
    74    55    58    1
    75   118   119    1
    76   119   121   am
    77   168   172   am
    78   168   169    2
    79   153   152    2
    80   172   173    1
    81    58    59    1
    82    59    60    1
    83   121   122    1
    84   152   151    1
    85   123   122    1
    86   123   124    2
    87   122   125    1
    88   174   173    1
    89   174   175    2
    90    62    60   ar
    91   173   176    1
    92    45    46    1
    93    60    61   ar
    94     6     5    1
    95   144   143    1
    96    38    37    1
    97   151   154    1
    98   151   150    1
    99   143   142    1
   100     7     5    1
   101   125   126    1
   102   176   177    1
   103   154   155    1
   104    49    46    1
   105    49    50    1
   106    46    47    1
   107    48    47    2
   108     5     2    1
   109   150   147   am
   110   148   147    2
   111   127   128    1
   112   138   139    2
   113   138   137    1
   114    52    53    1
   115    52    51    1
   116    37    39    1
   117    37    34    1
   118    35    34    1
   119    35    36    2
   120   147   146    1
   121   142   141    1
   122   178   177   ar
   123   177   179   ar
   124   155   156    2
   125   155   157   am
   126    51    50    1
   127   140   141    1
   128   140   137    1
   129    34    33    1
   130     2     1    1
   131     2     3    1
   132   136   137    1
   133   136   129   am
   134   145   146    1
   135   146   149    1
   136   128   129    1
   137   128   131    1
   138   129   130    2
   139     3     4    2
   140     3     8   am
   141   131   132    1
   142     8     9    1
   143     9    10    1
   144    11    10    2
   145   132   133    1
   146    27    28   ar
   147    27    25   ar
   148    28    26   ar
   149    25    23   ar
   150    26    24   ar
   151    23    24   ar
   152    23    22    1
   153    10    12   am
   154    22    19    1
   155    32    31    2
   156   134   133   ar
   157   133   135   ar
   158    31    30    1
   159    12    13    1
   160    19    20    1
   161    19    18    1
   162    20    21    2
   163    20    29   am
   164    29    30    1
   165    13    14    1
   166    13    16    1
   167    15    14    2
   168    16    17    1
