@<TRIPOS>MOLECULE
tmp/5wnmA00.pdb
 183 171 0 0 0
SMALL
GASTEIGER

@<TRIPOS>ATOM
      1  N        -11.7310   -8.8740  -17.4700 N.3    19  VAL19      -0.1231
      2  CA       -10.9500   -7.6470  -17.7260 C.3    19  VAL19       0.1692
      3  C        -11.3190   -6.4400  -16.8330 C.2    19  VAL19       0.2592
      4  O        -10.4310   -5.6660  -16.4690 O.2    19  VAL19      -0.2718
      5  CB       -10.9760   -7.2340  -19.2230 C.3    19  VAL19       0.0266
      6  CG1      -10.2280   -8.2570  -20.0650 C.3    19  VAL19       0.0020
      7  CG2      -12.3990   -7.0520  -19.7400 C.3    19  VAL19       0.0020
      8  N        -12.5960   -6.2750  -16.4770 N.am   20  GLY20      -0.1957
      9  CA       -13.0330   -5.1590  -15.6150 C.3    20  GLY20       0.1869
     10  C        -12.6810   -5.2740  -14.1310 C.2    20  GLY20       0.2309
     11  O        -11.7500   -5.9950  -13.7550 O.2    20  GLY20      -0.2863
     12  N        -19.3380   -2.5390  -10.1360 N.3    22  PHE22      -0.1241
     13  CA       -19.6160   -1.9490  -11.4400 C.3    22  PHE22       0.1605
     14  C        -20.3360   -2.9440  -12.3590 C.2    22  PHE22       0.2264
     15  O        -21.3800   -2.6270  -12.9430 O.2    22  PHE22      -0.2867
     16  CB       -18.3090   -1.4810  -12.0890 C.3    22  PHE22       0.0534
     17  CG       -18.4490   -0.8600  -13.4620 C.ar   22  PHE22      -0.0203
     18  CD1      -19.2470    0.2260  -13.6920 C.ar   22  PHE22      -0.0042
     19  CD2      -17.7270   -1.3450  -14.5220 C.ar   22  PHE22      -0.0042
     20  CE1      -19.3370    0.8650  -14.9100 C.ar   22  PHE22      -0.0003
     21  CE2      -17.7810   -0.7110  -15.7890 C.ar   22  PHE22      -0.0003
     22  CZ       -18.6080    0.3470  -15.9520 C.ar   22  PHE22      -0.0000
     23  N        -16.6750   -7.4440  -16.6370 N.3    25  VAL25      -0.1245
     24  CA       -16.5920   -7.4930  -18.0910 C.3    25  VAL25       0.1561
     25  C        -15.6440   -8.6130  -18.4980 C.2    25  VAL25       0.2260
     26  O        -14.5600   -8.7750  -17.9110 O.2    25  VAL25      -0.2867
     27  CB       -16.1220   -6.1360  -18.6700 C.3    25  VAL25       0.0252
     28  CG1      -15.9800   -6.2030  -20.1920 C.3    25  VAL25       0.0019
     29  CG2      -17.0900   -5.0280  -18.2490 C.3    25  VAL25       0.0019
     30  N        -16.7220   -8.3460  -26.1120 N.3    38  ALA38      -0.1245
     31  CA       -16.7320   -7.9870  -24.6960 C.3    38  ALA38       0.1562
     32  C        -18.1570   -8.0800  -24.1730 C.2    38  ALA38       0.2260
     33  O        -19.0930   -7.5940  -24.8200 O.2    38  ALA38      -0.2867
     34  CB       -16.1880   -6.5850  -24.4920 C.3    38  ALA38       0.0290
     35  N        -20.3900   -7.3000  -20.6520 N.3    40  LYS40      -0.1245
     36  CA       -20.5430   -6.7370  -19.3020 C.3    40  LYS40       0.1561
     37  C        -21.7390   -7.4140  -18.6350 C.2    40  LYS40       0.2260
     38  O        -22.8680   -7.2410  -19.0870 O.2    40  LYS40      -0.2867
     39  CB       -20.7780   -5.2180  -19.3720 C.3    40  LYS40       0.0271
     40  CG       -20.7700   -4.4880  -18.0260 C.3    40  LYS40       0.0035
     41  CD       -21.6590   -3.2440  -18.0180 C.3    40  LYS40       0.0206
     42  CE       -23.0990   -3.5440  -17.6360 C.3    40  LYS40       0.1093
     43  NZ       -23.9380   -2.3150  -17.7140 N.3    40  LYS40      -0.1314
     44  N        -29.2260    1.2600  -22.3560 N.3    58  GLU58      -0.1245
     45  CA       -27.7930    1.4680  -22.5720 C.3    58  GLU58       0.1567
     46  C        -27.3710    0.9690  -23.9530 C.2    58  GLU58       0.2260
     47  O        -26.6070    1.6380  -24.6520 O.2    58  GLU58      -0.2867
     48  CB       -26.9660    0.7620  -21.4940 C.3    58  GLU58       0.0388
     49  CG       -25.4900    1.1380  -21.5220 C.3    58  GLU58       0.1160
     50  CD       -24.6560    0.4720  -20.4430 C.2    58  GLU58       0.3649
     51  OE1      -25.2330   -0.0950  -19.4880 O.co2  58  GLU58      -0.2457
     52  OE2      -23.4080    0.5220  -20.5560 O.co2  58  GLU58      -0.2457
     53  N        -26.0490    3.2560  -27.3610 N.3    62  MET62      -0.1245
     54  CA       -24.8130    2.9340  -28.0850 C.3    62  MET62       0.1570
     55  C        -25.0580    2.7890  -29.5900 C.2    62  MET62       0.2261
     56  O        -24.2580    3.2730  -30.3970 O.2    62  MET62      -0.2867
     57  CB       -24.1540    1.6640  -27.5260 C.3    62  MET62       0.0387
     58  CG       -23.5030    1.8600  -26.1690 C.3    62  MET62       0.0595
     59  SD       -22.7500    0.3660  -25.4960 S.3    62  MET62      -0.1393
     60  CE       -21.1970    0.3370  -26.3840 C.3    62  MET62       0.0692
     61  N        -17.6990    3.0260  -29.1010 N.3    71  LEU71      -0.1245
     62  CA       -17.6490    1.5590  -29.0360 C.3    71  LEU71       0.1561
     63  C        -18.8940    0.9580  -29.6900 C.2    71  LEU71       0.2260
     64  O        -20.0150    1.3450  -29.3360 O.2    71  LEU71      -0.2867
     65  CB       -17.5490    1.0820  -27.5820 C.3    71  LEU71       0.0270
     66  CG       -17.3250   -0.4200  -27.3540 C.3    71  LEU71       0.0019
     67  CD1      -15.9810   -0.8810  -27.9130 C.3    71  LEU71       0.0001
     68  CD2      -17.4150   -0.7360  -25.8710 C.3    71  LEU71       0.0001
     69  N        -24.4770   -7.2220  -21.5530 N.3    83  LEU83      -0.1245
     70  CA       -24.4320   -6.3780  -22.7440 C.3    83  LEU83       0.1561
     71  C        -23.2380   -6.8110  -23.6050 C.2    83  LEU83       0.2260
     72  O        -22.1120   -6.8500  -23.1090 O.2    83  LEU83      -0.2867
     73  CB       -24.2810   -4.9250  -22.3030 C.3    83  LEU83       0.0270
     74  CG       -24.2980   -3.8100  -23.3410 C.3    83  LEU83       0.0019
     75  CD1      -25.6830   -3.6590  -23.9420 C.3    83  LEU83       0.0001
     76  CD2      -23.8470   -2.5150  -22.6830 C.3    83  LEU83       0.0001
     77  N        -20.6350   -6.3750  -26.6630 N.3    85  MET85      -0.1230
     78  CA       -19.9840   -5.2580  -27.3660 C.3    85  MET85       0.1702
     79  C        -18.6820   -5.6670  -28.0550 C.2    85  MET85       0.2592
     80  O        -18.1700   -6.7710  -27.8540 O.2    85  MET85      -0.2718
     81  CB       -19.6660   -4.1380  -26.3730 C.3    85  MET85       0.0401
     82  CG       -20.8680   -3.6040  -25.6150 C.3    85  MET85       0.0596
     83  SD       -20.3810   -2.6870  -24.1540 S.3    85  MET85      -0.1393
     84  CE       -19.8270   -4.0310  -23.1080 C.3    85  MET85       0.0692
     85  N        -18.1420   -4.7530  -28.8570 N.am   86  GLU86      -0.1966
     86  CA       -16.8460   -4.9490  -29.5050 C.3    86  GLU86       0.1733
     87  C        -15.7440   -5.0960  -28.4570 C.2    86  GLU86       0.2616
     88  O        -15.7950   -4.4440  -27.4100 O.2    86  GLU86      -0.2715
     89  CB       -16.5230   -3.7760  -30.4430 C.3    86  GLU86       0.0429
     90  CG       -15.4310   -4.0630  -31.4610 C.3    86  GLU86       0.1163
     91  CD       -15.8410   -5.1330  -32.4710 C.2    86  GLU86       0.3649
     92  OE1      -16.4880   -4.7720  -33.4810 O.co2  86  GLU86      -0.2457
     93  OE2      -15.5060   -6.3320  -32.2620 O.co2  86  GLU86      -0.2457
     94  N        -14.7730   -5.9710  -28.7310 N.am   87  TYR87      -0.1960
     95  CA       -13.6000   -6.1240  -27.8760 C.3    87  TYR87       0.1771
     96  C        -12.4620   -5.2910  -28.4270 C.2    87  TYR87       0.2619
     97  O        -12.1660   -5.3400  -29.6110 O.2    87  TYR87      -0.2715
     98  CB       -13.1460   -7.5900  -27.7420 C.3    87  TYR87       0.0574
     99  CG       -11.9960   -7.7660  -26.7550 C.ar   87  TYR87      -0.0198
    100  CD1      -12.1380   -7.4260  -25.4100 C.ar   87  TYR87      -0.0009
    101  CD2      -10.7620   -8.2460  -27.1730 C.ar   87  TYR87      -0.0009
    102  CE1      -11.0830   -7.5620  -24.5180 C.ar   87  TYR87       0.0417
    103  CE2       -9.7040   -8.3900  -26.2860 C.ar   87  TYR87       0.0417
    104  CZ        -9.8690   -8.0450  -24.9660 C.ar   87  TYR87       0.1957
    105  OH        -8.8050   -8.1910  -24.1110 O.3    87  TYR87      -0.2866
    106  N        -11.7890   -4.5950  -27.5240 N.am   88  MET88      -0.1963
    107  CA       -10.7300   -3.6710  -27.8290 C.3    88  MET88       0.1736
    108  C         -9.4970   -4.2520  -27.1510 C.2    88  MET88       0.2616
    109  O         -9.4890   -4.4060  -25.9280 O.2    88  MET88      -0.2715
    110  CB       -11.0780   -2.2950  -27.2510 C.3    88  MET88       0.0427
    111  CG       -12.3410   -1.6690  -27.8310 C.3    88  MET88       0.0599
    112  SD       -12.1140   -1.1320  -29.5400 S.3    88  MET88      -0.1393
    113  CE       -11.2100    0.3750  -29.2680 C.3    88  MET88       0.0692
    114  N         -8.4740   -4.5840  -27.9400 N.am   89  GLU89      -0.1963
    115  CA        -7.3320   -5.3600  -27.4400 C.3    89  GLU89       0.1733
    116  C         -6.4840   -4.6660  -26.3730 C.2    89  GLU89       0.2617
    117  O         -5.9820   -5.3320  -25.4690 O.2    89  GLU89      -0.2715
    118  CB        -6.4110   -5.7930  -28.5890 C.3    89  GLU89       0.0429
    119  CG        -7.0350   -6.7930  -29.5570 C.3    89  GLU89       0.1163
    120  CD        -6.0390   -7.3570  -30.5650 C.2    89  GLU89       0.3649
    121  OE1       -4.8080   -7.2170  -30.3580 O.co2  89  GLU89      -0.2457
    122  OE2       -6.4910   -7.9500  -31.5740 O.co2  89  GLU89      -0.2457
    123  N         -6.3090   -3.3490  -26.4750 N.am   90  THR90      -0.1937
    124  CA        -5.4050   -2.6480  -25.5640 C.3    90  THR90       0.2028
    125  C         -6.0700   -2.2920  -24.2280 C.2    90  THR90       0.2643
    126  O         -5.4180   -2.3330  -23.1930 O.2    90  THR90      -0.2714
    127  CB        -4.7630   -1.4150  -26.2330 C.3    90  THR90       0.1808
    128  OG1       -4.1020   -1.8150  -27.4440 O.3    90  THR90      -0.2208
    129  CG2       -3.7340   -0.7670  -25.3040 C.3    90  THR90       0.0379
    130  N         -7.3560   -1.9530  -24.2470 N.am   91  GLY91      -0.1939
    131  CA        -8.1170   -1.7150  -23.0170 C.3    91  GLY91       0.2014
    132  C         -8.2140   -0.2440  -22.6610 C.2    91  GLY91       0.2639
    133  O         -8.1860    0.6140  -23.5360 O.2    91  GLY91      -0.2714
    134  N         -8.3130    0.0490  -21.3700 N.am   92  SER92      -0.1949
    135  CA        -8.5970    1.4020  -20.9130 C.3    92  SER92       0.1924
    136  C         -7.3920    2.3240  -21.0190 C.2    92  SER92       0.2314
    137  O         -6.2420    1.8810  -21.0210 O.2    92  SER92      -0.2863
    138  CB        -9.1110    1.4000  -19.4630 C.3    92  SER92       0.2116
    139  OG        -8.0870    1.0990  -18.5280 O.3    92  SER92      -0.2180
    140  N         -5.4090    2.2010  -17.5630 N.3    95  LYS95      -0.1245
    141  CA        -4.3470    1.1930  -17.5230 C.3    95  LYS95       0.1561
    142  C         -3.1430    1.6510  -18.3420 C.2    95  LYS95       0.2260
    143  O         -2.0110    1.5350  -17.8720 O.2    95  LYS95      -0.2867
    144  CB        -4.8300   -0.1880  -17.9960 C.3    95  LYS95       0.0271
    145  CG        -3.7850   -1.2760  -17.7990 C.3    95  LYS95       0.0035
    146  CD        -4.0380   -2.5450  -18.5630 C.3    95  LYS95       0.0206
    147  CE        -3.8570   -2.4320  -20.0620 C.3    95  LYS95       0.1093
    148  NZ        -4.0980   -3.7760  -20.6740 N.3    95  LYS95      -0.1314
    149  N        -10.9900    5.4010  -17.3810 N.3   136  ALA136     -0.1231
    150  CA       -11.4930    4.0170  -17.2970 C.3   136  ALA136      0.1694
    151  C        -12.5030    3.6350  -18.3990 C.2   136  ALA136      0.2592
    152  O        -12.6110    2.4670  -18.7450 O.2   136  ALA136     -0.2718
    153  CB       -12.0970    3.7600  -15.9240 C.3   136  ALA136      0.0304
    154  N        -13.2310    4.6210  -18.9210 N.am  137  ASN137     -0.1974
    155  CA       -14.2120    4.4480  -19.9980 C.3   137  ASN137      0.1688
    156  C        -13.6370    4.5490  -21.3990 C.2   137  ASN137      0.2292
    157  O        -14.2810    4.0960  -22.3520 O.2   137  ASN137     -0.2864
    158  CB       -15.2770    5.5600  -19.9360 C.3   137  ASN137      0.1181
    159  CG       -16.1340    5.4950  -18.7040 C.2   137  ASN137      0.2629
    160  OD1      -16.1660    4.4930  -17.9840 O.2   137  ASN137     -0.2716
    161  ND2      -16.8580    6.5660  -18.4610 N.am  137  ASN137     -0.0877
    162  N        -11.5950    3.5460  -24.2670 N.3   139  LEU139     -0.1245
    163  CA       -10.9890    2.3020  -24.7290 C.3   139  LEU139      0.1561
    164  C        -10.0630    2.5490  -25.9150 C.2   139  LEU139      0.2260
    165  O        -10.2270    3.5120  -26.6600 O.2   139  LEU139     -0.2867
    166  CB       -12.0770    1.2920  -25.0930 C.3   139  LEU139      0.0270
    167  CG       -12.8470    0.6930  -23.9030 C.3   139  LEU139      0.0019
    168  CD1      -14.1310   -0.0060  -24.3330 C.3   139  LEU139      0.0001
    169  CD2      -11.9690   -0.2840  -23.1390 C.3   139  LEU139      0.0001
    170  N        -16.7150    4.5540  -24.4070 N.3   149  SER149     -0.1202
    171  CA       -17.6870    3.5870  -23.9090 C.3   149  SER149      0.2020
    172  C        -18.3210    4.0810  -22.6110 C.2   149  SER149      0.2618
    173  O        -18.0940    5.2200  -22.1920 O.2   149  SER149     -0.2717
    174  CB       -17.0210    2.2200  -23.7180 C.3   149  SER149      0.2103
    175  OG       -16.4530    2.0910  -22.4310 O.3   149  SER149     -0.2182
    176  N        -19.1210    3.2050  -22.0040 N.am  150  ASP150     -0.1973
    177  CA       -19.8950    3.4770  -20.7920 C.3   150  ASP150      0.1709
    178  C        -20.9930    4.5050  -21.0370 C.2   150  ASP150      0.2293
    179  O        -20.8540    5.6850  -20.7140 O.2   150  ASP150     -0.2864
    180  CB       -19.0040    3.8310  -19.5860 C.3   150  ASP150      0.1436
    181  CG       -19.6500    3.4550  -18.2370 C.2   150  ASP150      0.3671
    182  OD1      -20.8710    3.1560  -18.2010 O.co2 150  ASP150     -0.2456
    183  OD2      -18.9300    3.4470  -17.2080 O.co2 150  ASP150     -0.2456
@<TRIPOS>BOND
     1    92    91   ar
     2    91    93   ar
     3    91    90    1
     4   122   120   ar
     5    90    89    1
     6   120   121   ar
     7   120   119    1
     8    89    86    1
     9    56    55    2
    10    63    64    2
    11    63    62    1
    12    97    96    2
    13    55    54    1
    14   119   118    1
    15   112   113    1
    16   112   111    1
    17    86    85    1
    18    86    87    1
    19    61    62    1
    20    62    65    1
    21    85    79   am
    22    94    87   am
    23    94    95    1
    24   118   115    1
    25    87    88    2
    26    96    95    1
    27    96   106   am
    28    54    57    1
    29    54    53    1
    30    79    80    2
    31    79    78    1
    32   114   115    1
    33   114   108   am
    34    67    66    1
    35    95    98    1
    36   111   110    1
    37   107   106    1
    38   107   110    1
    39   107   108    1
    40    98    99    1
    41    65    66    1
    42    57    58    1
    43   128   127    1
    44   115   116    1
    45    78    77    1
    46    78    81    1
    47    66    68    1
    48   101    99   ar
    49   101   103   ar
    50   108   109    2
    51    99   100   ar
    52   165   164    2
    53   123   116   am
    54   123   124    1
    55    60    59    1
    56   116   117    2
    57    81    82    1
    58   103   104   ar
    59   127   124    1
    60   127   129    1
    61    58    59    1
    62    30    31    1
    63   164   163    1
    64    82    83    1
    65   124   125    1
    66   100   102   ar
    67   166   163    1
    68   166   167    1
    69   104   102   ar
    70   104   105    1
    71    33    32    2
    72   163   162    1
    73    31    34    1
    74    31    32    1
    75    47    46    2
    76   170   171    1
    77   168   167    1
    78   130   125   am
    79   130   131    1
    80   125   126    2
    81    83    84    1
    82    46    45    1
    83    75    74    1
    84   171   174    1
    85   171   172    1
    86   167   169    1
    87   174   175    1
    88    71    72    2
    89    71    70    1
    90   133   132    2
    91    74    76    1
    92    74    73    1
    93   131   132    1
    94    70    73    1
    95    70    69    1
    96   132   134   am
    97   172   173    2
    98   172   176   am
    99    45    44    1
   100    45    48    1
   101   157   156    2
   102   176   177    1
   103    49    48    1
   104    49    50    1
   105   156   155    1
   106   134   135    1
   107   178   177    1
   108   178   179    2
   109   137   136    2
   110   136   135    1
   111   135   138    1
   112   177   180    1
   113   148   147    1
   114    35    36    1
   115    52    50   ar
   116    50    51   ar
   117    28    27    1
   118     6     5    1
   119   147   146    1
   120   155   158    1
   121   155   154    1
   122   158   159    1
   123     7     5    1
   124   180   181    1
   125   138   139    1
   126    39    36    1
   127    39    40    1
   128    36    37    1
   129     5     2    1
   130    38    37    2
   131   154   151   am
   132   152   151    2
   133   159   161   am
   134   159   160    2
   135    27    29    1
   136    27    24    1
   137   146   145    1
   138    25    24    1
   139    25    26    2
   140   151   150    1
   141   142   143    2
   142   142   141    1
   143   181   182   ar
   144   181   183   ar
   145    24    23    1
   146    40    41    1
   147    41    42    1
   148   144   145    1
   149   144   141    1
   150     2     1    1
   151     2     3    1
   152    43    42    1
   153   140   141    1
   154   149   150    1
   155   150   153    1
   156     3     8   am
   157     3     4    2
   158     8     9    1
   159    22    21   ar
   160    22    20   ar
   161    21    19   ar
   162     9    10    1
   163    20    18   ar
   164    19    17   ar
   165    10    11    2
   166    18    17   ar
   167    17    16    1
   168    15    14    2
   169    14    13    1
   170    16    13    1
   171    13    12    1
