@<TRIPOS>MOLECULE
tmp/5wnoA00.pdb
 170 161 0 0 0
SMALL
GASTEIGER

@<TRIPOS>ATOM
      1  N        -39.5530    5.7680   -9.3750 N.3    16  LEU16      -0.1231
      2  CA       -39.2820    5.3020  -10.7310 C.3    16  LEU16       0.1693
      3  C        -38.7040    3.8930  -10.7400 C.2    16  LEU16       0.2593
      4  O        -39.0770    3.0730  -11.5860 O.2    16  LEU16      -0.2718
      5  CB       -38.3360    6.2720  -11.4420 C.3    16  LEU16       0.0284
      6  CG       -38.8490    7.7020  -11.6300 C.3    16  LEU16       0.0019
      7  CD1      -37.8890    8.5100  -12.4890 C.3    16  LEU16       0.0001
      8  CD2      -40.2440    7.7010  -12.2350 C.3    16  LEU16       0.0001
      9  N        -37.7980    3.5910   -9.8140 N.am   17  GLY17      -0.1942
     10  CA       -37.1950    2.2730   -9.7750 C.3    17  GLY17       0.2014
     11  C        -36.5430    2.0180   -8.4340 C.2    17  GLY17       0.2639
     12  O        -36.6050    2.8420   -7.5180 O.2    17  GLY17      -0.2714
     13  N        -35.9070    0.8510   -8.3310 N.am   18  ALA18      -0.1963
     14  CA       -35.2280    0.4510   -7.1030 C.3    18  ALA18       0.1728
     15  C        -33.8190    1.0420   -7.0290 C.2    18  ALA18       0.2617
     16  O        -33.6040    2.0410   -6.3350 O.2    18  ALA18      -0.2715
     17  CB       -35.1880   -1.0750   -6.9960 C.3    18  ALA18       0.0334
     18  N        -32.8600    0.4460   -7.7250 N.am   19  GLY19      -0.1940
     19  CA       -31.4890    0.9460   -7.7990 C.3    19  GLY19       0.2014
     20  C        -30.5070    0.0730   -7.0330 C.2    19  GLY19       0.2639
     21  O        -30.8520   -0.4910   -5.9880 O.2    19  GLY19      -0.2714
     22  N        -29.2700   -0.0550   -7.5430 N.am   20  ALA20      -0.1963
     23  CA       -28.2820   -0.8000   -6.7600 C.3    20  ALA20       0.1728
     24  C        -28.0390   -0.1130   -5.4230 C.2    20  ALA20       0.2616
     25  O        -28.0190   -0.7590   -4.3670 O.2    20  ALA20      -0.2715
     26  CB       -26.9620   -0.9890   -7.5100 C.3    20  ALA20       0.0334
     27  N        -27.9070    1.2080   -5.4430 N.am   21  PHE21      -0.1960
     28  CA       -27.4960    1.9630   -4.2660 C.3    21  PHE21       0.1771
     29  C        -28.1590    3.3430   -4.2470 C.2    21  PHE21       0.2620
     30  O        -27.5130    4.3870   -4.2930 O.2    21  PHE21      -0.2715
     31  CB       -25.9700    2.0440   -4.1990 C.3    21  PHE21       0.0574
     32  CG       -25.2930    2.6430   -5.4270 C.ar   21  PHE21      -0.0200
     33  CD1      -26.0090    3.0750   -6.5380 C.ar   21  PHE21      -0.0042
     34  CD2      -23.9120    2.7650   -5.4540 C.ar   21  PHE21      -0.0042
     35  CE1      -25.3680    3.6160   -7.6340 C.ar   21  PHE21      -0.0003
     36  CE2      -23.2650    3.3050   -6.5500 C.ar   21  PHE21      -0.0003
     37  CZ       -23.9950    3.7300   -7.6410 C.ar   21  PHE21      -0.0000
     38  N        -29.4840    3.3650   -4.1400 N.am   22  GLY22      -0.1954
     39  CA       -30.2120    4.6180   -4.1120 C.3    22  GLY22       0.1869
     40  C        -31.4570    4.5870   -4.9710 C.2    22  GLY22       0.2309
     41  O        -31.4370    4.0510   -6.0830 O.2    22  GLY22      -0.2863
     42  N        -34.8230    6.4070   -6.9850 N.3    24  VAL24      -0.1245
     43  CA       -35.0560    7.5150   -7.9030 C.3    24  VAL24       0.1561
     44  C        -36.5370    7.8610   -7.8700 C.2    24  VAL24       0.2260
     45  O        -37.3910    6.9690   -7.9460 O.2    24  VAL24      -0.2867
     46  CB       -34.6040    7.1710   -9.3350 C.3    24  VAL24       0.0252
     47  CG1      -34.9530    8.2970  -10.2950 C.3    24  VAL24       0.0019
     48  CG2      -33.1130    6.8950   -9.3640 C.3    24  VAL24       0.0019
     49  N        -35.7330   13.8330  -12.7300 N.3    41  ALA41      -0.1245
     50  CA       -35.5980   12.6080  -11.9560 C.3    41  ALA41       0.1562
     51  C        -34.6000   12.8560  -10.8350 C.2    41  ALA41       0.2260
     52  O        -33.4920   13.3440  -11.0830 O.2    41  ALA41      -0.2867
     53  CB       -35.1390   11.4410  -12.8310 C.3    41  ALA41       0.0290
     54  N        -32.3840   11.3210   -7.9210 N.3    43  LYS43      -0.1245
     55  CA       -31.7420   10.1480   -7.3440 C.3    43  LYS43       0.1561
     56  C        -31.2550   10.4870   -5.9410 C.2    43  LYS43       0.2260
     57  O        -30.5340   11.4720   -5.7500 O.2    43  LYS43      -0.2867
     58  CB       -30.5790    9.6820   -8.2200 C.3    43  LYS43       0.0271
     59  CG       -30.1350    8.2540   -7.9600 C.3    43  LYS43       0.0035
     60  CD       -29.4950    7.6530   -9.2020 C.3    43  LYS43       0.0206
     61  CE       -29.4270    6.1360   -9.1180 C.3    43  LYS43       0.1093
     62  NZ       -28.1830    5.6470   -8.4660 N.3    43  LYS43      -0.1314
     63  N        -26.5210   11.7340  -19.9970 N.3    71  LEU71      -0.1245
     64  CA       -27.6960   12.3290  -19.3750 C.3    71  LEU71       0.1561
     65  C        -27.2860   13.5880  -18.6240 C.2    71  LEU71       0.2260
     66  O        -26.4220   13.5410  -17.7420 O.2    71  LEU71      -0.2867
     67  CB       -28.3690   11.3350  -18.4340 C.3    71  LEU71       0.0270
     68  CG       -29.7180   11.7950  -17.8760 C.3    71  LEU71       0.0019
     69  CD1      -30.7390   11.9640  -18.9930 C.3    71  LEU71       0.0001
     70  CD2      -30.2290   10.8270  -16.8260 C.3    71  LEU71       0.0001
     71  N        -31.5430   14.9780  -12.5300 N.3    87  THR87      -0.1203
     72  CA       -31.3410   14.8690  -13.9660 C.3    87  THR87       0.1994
     73  C        -32.6750   15.0650  -14.6730 C.2    87  THR87       0.2618
     74  O        -33.7440   14.9100  -14.0780 O.2    87  THR87      -0.2717
     75  CB       -30.7390   13.5120  -14.3610 C.3    87  THR87       0.1784
     76  OG1      -31.5900   12.4560  -13.8960 O.3    87  THR87      -0.2211
     77  CG2      -29.3520   13.3430  -13.7610 C.3    87  THR87       0.0376
     78  N        -32.5980   15.4080  -15.9590 N.am   88  ILE88      -0.1965
     79  CA       -33.8020   15.6150  -16.7550 C.3    88  ILE88       0.1727
     80  C        -34.5550   14.2980  -16.8870 C.2    88  ILE88       0.2616
     81  O        -33.9680   13.2520  -17.1960 O.2    88  ILE88      -0.2715
     82  CB       -33.4430   16.2030  -18.1280 C.3    88  ILE88       0.0290
     83  CG1      -34.6620   16.2030  -19.0560 C.3    88  ILE88       0.0022
     84  CG2      -32.2740   15.4490  -18.7500 C.3    88  ILE88       0.0023
     85  CD1      -35.7660   17.1420  -18.6180 C.3    88  ILE88       0.0001
     86  N        -35.8620   14.3420  -16.6420 N.am   89  TYR89      -0.1960
     87  CA       -36.6880   13.1450  -16.7160 C.3    89  TYR89       0.1771
     88  C        -36.8920   12.7210  -18.1660 C.2    89  TYR89       0.2619
     89  O        -37.1220   13.5540  -19.0470 O.2    89  TYR89      -0.2715
     90  CB       -38.0360   13.4010  -16.0400 C.3    89  TYR89       0.0574
     91  CG       -39.0530   12.2950  -16.2050 C.ar   89  TYR89      -0.0198
     92  CD1      -38.9580   11.1210  -15.4710 C.ar   89  TYR89      -0.0009
     93  CD2      -40.1220   12.4360  -17.0810 C.ar   89  TYR89      -0.0009
     94  CE1      -39.8910   10.1100  -15.6150 C.ar   89  TYR89       0.0417
     95  CE2      -41.0600   11.4320  -17.2310 C.ar   89  TYR89       0.0417
     96  CZ       -40.9400   10.2720  -16.4960 C.ar   89  TYR89       0.1957
     97  OH       -41.8710    9.2690  -16.6410 O.3    89  TYR89      -0.2866
     98  N        -36.7970   11.4200  -18.4120 N.am   90  ARG90      -0.1977
     99  CA       -37.0050   10.8540  -19.7450 C.3    90  ARG90       0.1597
    100  C        -38.2010    9.9150  -19.7130 C.2    90  ARG90       0.2287
    101  O        -38.1040    8.8150  -19.1370 O.2    90  ARG90      -0.2864
    102  CB       -35.7580   10.1160  -20.2310 C.3    90  ARG90       0.0334
    103  CG       -34.5570   11.0150  -20.4720 C.3    90  ARG90       0.0492
    104  CD       -34.9050   12.1620  -21.4020 C.3    90  ARG90       0.2205
    105  NE       -33.7350   12.9710  -21.7320 N.pl3  90  ARG90      -0.0865
    106  CZ       -33.7930   14.1510  -22.3400 C.cat  90  ARG90       0.5346
    107  NH1      -34.9660   14.6670  -22.6790 N.pl3  90  ARG90       0.1354
    108  NH2      -32.6780   14.8190  -22.6030 N.pl3  90  ARG90       0.1354
    109  N        -38.0250    5.8930  -20.5130 N.3    93  GLY93      -0.1210
    110  CA       -37.3960    4.9080  -19.6590 C.3    93  GLY93       0.1956
    111  C        -36.0130    4.5100  -20.1400 C.2    93  GLY93       0.2611
    112  O        -35.4430    5.0890  -21.0700 O.2    93  GLY93      -0.2717
    113  N        -35.4670    3.4900  -19.4810 N.am   94  ASN94      -0.1974
    114  CA       -34.1310    3.0180  -19.8030 C.3    94  ASN94       0.1688
    115  C        -34.1460    2.1830  -21.0830 C.2    94  ASN94       0.2292
    116  O        -35.1970    1.7710  -21.5820 O.2    94  ASN94      -0.2864
    117  CB       -33.5470    2.2160  -18.6390 C.3    94  ASN94       0.1181
    118  CG       -34.4730    1.1110  -18.1580 C.2    94  ASN94       0.2629
    119  OD1      -35.2630    0.5610  -18.9250 O.2    94  ASN94      -0.2716
    120  ND2      -34.3760    0.7820  -16.8750 N.am   94  ASN94      -0.0877
    121  N        -20.2430    1.0140  -14.0530 N.3   134  ASP134     -0.1239
    122  CA       -21.5510    0.3660  -14.0800 C.3   134  ASP134      0.1674
    123  C        -22.2390    0.6020  -15.4240 C.2   134  ASP134      0.2266
    124  O        -23.4050    0.9940  -15.4930 O.2   134  ASP134     -0.2867
    125  CB       -22.4150    0.8560  -12.9170 C.3   134  ASP134      0.1410
    126  CG       -23.5900   -0.0590  -12.6380 C.2   134  ASP134      0.3668
    127  OD1      -23.6300   -1.1670  -13.2130 O.co2 134  ASP134     -0.2456
    128  OD2      -24.4750    0.3290  -11.8460 O.co2 134  ASP134     -0.2456
    129  N        -29.4580   -0.7590  -18.7290 N.3   138  ARG138     -0.1231
    130  CA       -30.3580   -0.2190  -17.7150 C.3   138  ARG138      0.1694
    131  C        -29.9360    1.1780  -17.2770 C.2   138  ARG138      0.2592
    132  O        -30.7760    1.9600  -16.8180 O.2   138  ARG138     -0.2718
    133  CB       -30.4150   -1.1550  -16.5080 C.3   138  ARG138      0.0321
    134  CG       -29.0960   -1.2780  -15.7750 C.3   138  ARG138      0.0489
    135  CD       -29.1990   -2.1960  -14.5730 C.3   138  ARG138      0.2205
    136  NE       -27.9170   -2.3060  -13.8860 N.pl3 138  ARG138     -0.0865
    137  CZ       -26.9460   -3.1350  -14.2500 C.cat 138  ARG138      0.5346
    138  NH1      -27.1100   -3.9340  -15.2960 N.pl3 138  ARG138      0.1354
    139  NH2      -25.8090   -3.1670  -13.5700 N.pl3 138  ARG138      0.1354
    140  N        -28.6510    1.5080  -17.4090 N.am  139  ASN139     -0.1974
    141  CA       -28.1400    2.8360  -17.1040 C.3   139  ASN139      0.1688
    142  C        -27.9440    3.6820  -18.3570 C.2   139  ASN139      0.2292
    143  O        -27.1450    4.6230  -18.3480 O.2   139  ASN139     -0.2864
    144  CB       -26.8350    2.7320  -16.3160 C.3   139  ASN139      0.1181
    145  CG       -27.0540    2.2410  -14.9000 C.2   139  ASN139      0.2629
    146  OD1      -28.1120    2.4660  -14.3140 O.2   139  ASN139     -0.2716
    147  ND2      -26.0550    1.5680  -14.3420 N.am  139  ASN139     -0.0877
    148  N        -30.3910    5.8650  -21.0310 N.3   141  LEU141     -0.1245
    149  CA       -31.7350    6.3930  -21.1920 C.3   141  LEU141      0.1561
    150  C        -32.0010    6.7400  -22.6490 C.2   141  LEU141      0.2260
    151  O        -31.0790    7.0330  -23.4130 O.2   141  LEU141     -0.2867
    152  CB       -31.9500    7.6290  -20.3220 C.3   141  LEU141      0.0270
    153  CG       -32.5920    7.3670  -18.9630 C.3   141  LEU141      0.0019
    154  CD1      -31.7080    6.5010  -18.0790 C.3   141  LEU141      0.0001
    155  CD2      -32.8720    8.6890  -18.3090 C.3   141  LEU141      0.0001
    156  N        -26.3040    7.3750  -18.1380 N.3   151  THR151     -0.1203
    157  CA       -26.5340    7.9590  -16.8240 C.3   151  THR151      0.1994
    158  C        -25.7410    7.1850  -15.7790 C.2   151  THR151      0.2617
    159  O        -25.0700    6.1930  -16.0820 O.2   151  THR151     -0.2717
    160  CB       -28.0260    7.9680  -16.4660 C.3   151  THR151      0.1784
    161  OG1      -28.2260    8.7380  -15.2750 O.3   151  THR151     -0.2211
    162  CG2      -28.5250    6.5520  -16.2250 C.3   151  THR151      0.0376
    163  N        -25.8270    7.6580  -14.5340 N.am  152  ASP152     -0.1973
    164  CA       -25.1860    7.0180  -13.3830 C.3   152  ASP152      0.1709
    165  C        -23.6830    6.8520  -13.5930 C.2   152  ASP152      0.2293
    166  O        -23.1040    5.8080  -13.2840 O.2   152  ASP152     -0.2864
    167  CB       -25.8420    5.6750  -13.0610 C.3   152  ASP152      0.1436
    168  CG       -27.2650    5.8280  -12.5670 C.2   152  ASP152      0.3671
    169  OD1      -27.6040    6.9140  -12.0510 O.co2 152  ASP152     -0.2456
    170  OD2      -28.0430    4.8620  -12.6930 O.co2 152  ASP152     -0.2456
@<TRIPOS>BOND
     1   151   150    2
     2   107   106    1
     3   150   149    1
     4   108   106    1
     5   106   105    2
     6   105   104    1
     7   116   115    2
     8   104   103    1
     9   149   148    1
    10   149   152    1
    11   115   114    1
    12   112   111    2
    13   109   110    1
    14   103   102    1
    15   152   153    1
    16   102    99    1
    17   111   110    1
    18   111   113   am
    19    63    64    1
    20   114   113    1
    21   114   117    1
    22    99   100    1
    23    99    98    1
    24   100   101    2
    25    64    65    1
    26    64    67    1
    27    83    85    1
    28    83    82    1
    29    89    88    2
    30    69    68    1
    31   153   155    1
    32   153   154    1
    33   119   118    2
    34    84    82    1
    35   129   130    1
    36   117   118    1
    37    65    66    2
    38    67    68    1
    39    98    88   am
    40   142   143    2
    41   142   141    1
    42    88    87    1
    43   118   120   am
    44   156   157    1
    45    82    79    1
    46    68    70    1
    47   130   131    1
    48   130   133    1
    49   140   131   am
    50   140   141    1
    51   131   132    2
    52    95    93   ar
    53    95    96   ar
    54    81    80    2
    55   141   144    1
    56    93    91   ar
    57    80    79    1
    58    80    86   am
    59   157   160    1
    60   157   158    1
    61    79    78    1
    62    87    86    1
    63    87    90    1
    64    97    96    1
    65   133   134    1
    66    96    94   ar
    67   160   162    1
    68   160   161    1
    69   144   145    1
    70    91    90    1
    71    91    92   ar
    72   159   158    2
    73    78    73   am
    74   158   163   am
    75   134   135    1
    76    94    92   ar
    77   124   123    2
    78   123   122    1
    79   138   137    1
    80   145   147   am
    81   145   146    2
    82    73    74    2
    83    73    72    1
    84   135   136    1
    85   163   164    1
    86    75    72    1
    87    75    76    1
    88    75    77    1
    89   137   136    2
    90   137   139    1
    91   122   121    1
    92   122   125    1
    93    72    71    1
    94   165   164    1
    95   165   166    2
    96   164   167    1
    97   127   126   ar
    98   167   168    1
    99   125   126    1
   100    53    50    1
   101    49    50    1
   102   170   168   ar
   103   126   128   ar
   104   168   169   ar
   105     7     6    1
   106     8     6    1
   107    50    51    1
   108     6     5    1
   109     4     3    2
   110     5     2    1
   111    52    51    2
   112     3     2    1
   113     3     9   am
   114     2     1    1
   115    47    46    1
   116     9    10    1
   117    10    11    1
   118    48    46    1
   119    46    43    1
   120    60    61    1
   121    60    59    1
   122    61    62    1
   123    11    13   am
   124    11    12    2
   125    13    14    1
   126    58    59    1
   127    58    55    1
   128    45    44    2
   129    54    55    1
   130    43    44    1
   131    43    42    1
   132    19    18    1
   133    19    20    1
   134    18    15   am
   135    37    35   ar
   136    37    36   ar
   137    35    33   ar
   138    22    20   am
   139    22    23    1
   140    26    23    1
   141    55    56    1
   142    14    15    1
   143    14    17    1
   144    20    21    2
   145    15    16    2
   146    23    24    1
   147    36    34   ar
   148    33    32   ar
   149    41    40    2
   150    56    57    2
   151    34    32   ar
   152    27    24   am
   153    27    28    1
   154    32    31    1
   155    24    25    2
   156    40    39    1
   157    30    29    2
   158    28    29    1
   159    28    31    1
   160    29    38   am
   161    38    39    1
