@<TRIPOS>MOLECULE
tmp/5wnxD00.pdb
 153 145 0 0 0
SMALL
GASTEIGER

@<TRIPOS>ATOM
      1  N          1.9740   -1.8600   62.2040 N.3    31  ARG31      -0.1245
      2  CA         0.5410   -2.0670   62.3330 C.3    31  ARG31       0.1563
      3  C         -0.0760   -2.5040   61.0110 C.2    31  ARG31       0.2260
      4  O         -0.9070   -3.4200   60.9940 O.2    31  ARG31      -0.2867
      5  CB        -0.1240   -0.8090   62.8870 C.3    31  ARG31       0.0307
      6  CG        -0.1380   -0.8190   64.4220 C.3    31  ARG31       0.0489
      7  CD        -1.5480   -0.9000   64.9630 C.3    31  ARG31       0.2205
      8  NE        -2.3010    0.2630   64.5320 N.pl3  31  ARG31      -0.0865
      9  CZ        -3.5800    0.4670   64.7890 C.cat  31  ARG31       0.5346
     10  NH1       -4.2610   -0.4180   65.4940 N.pl3  31  ARG31       0.1354
     11  NH2       -4.1730    1.5690   64.3450 N.pl3  31  ARG31       0.1354
     12  N        -13.2750   -3.4700   77.9440 N.3   140  ARG140     -0.1245
     13  CA       -14.0300   -3.3040   76.7120 C.3   140  ARG140      0.1563
     14  C        -15.5210   -3.3080   77.0080 C.2   140  ARG140      0.2260
     15  O        -15.9640   -3.8580   78.0090 O.2   140  ARG140     -0.2867
     16  CB       -13.6700   -4.4050   75.7240 C.3   140  ARG140      0.0307
     17  CG       -12.1940   -4.4190   75.3610 C.3   140  ARG140      0.0489
     18  CD       -11.9020   -5.3930   74.2370 C.3   140  ARG140      0.2205
     19  NE       -12.8080   -5.1740   73.1200 N.pl3 140  ARG140     -0.0865
     20  CZ       -12.6630   -4.2150   72.2150 C.cat 140  ARG140      0.5346
     21  NH1      -11.6300   -3.3810   72.2780 N.pl3 140  ARG140      0.1354
     22  NH2      -13.5520   -4.0980   71.2370 N.pl3 140  ARG140      0.1354
     23  N        -17.6410    4.1840   65.1230 N.3   170  GLY170     -0.1210
     24  CA       -16.5900    3.3490   65.6500 C.3   170  GLY170      0.1956
     25  C        -16.8380    1.8780   65.3140 C.2   170  GLY170      0.2612
     26  O        -17.5970    1.5110   64.4060 O.2   170  GLY170     -0.2717
     27  N        -16.1900    1.0230   66.0950 N.am  171  SER171     -0.1952
     28  CA       -16.3980   -0.4110   65.9420 C.3   171  SER171      0.1924
     29  C        -17.8470   -0.8370   66.1970 C.2   171  SER171      0.2314
     30  O        -18.2220   -1.9510   65.8190 O.2   171  SER171     -0.2863
     31  CB       -15.4620   -1.1470   66.8890 C.3   171  SER171      0.2116
     32  OG       -15.7030   -0.6880   68.2020 O.3   171  SER171     -0.2180
     33  N        -19.5490   -0.8800   62.7410 N.3   174  ARG174     -0.1245
     34  CA       -18.9920   -2.0290   62.0430 C.3   174  ARG174      0.1563
     35  C        -19.4850   -3.3620   62.6070 C.2   174  ARG174      0.2260
     36  O        -19.0850   -4.4130   62.1040 O.2   174  ARG174     -0.2867
     37  CB       -17.4630   -1.9870   62.0970 C.3   174  ARG174      0.0307
     38  CG       -16.8560   -0.6270   61.8060 C.3   174  ARG174      0.0489
     39  CD       -15.4020   -0.7740   61.3290 C.3   174  ARG174      0.2205
     40  NE       -14.5520   -1.4440   62.3160 N.pl3 174  ARG174     -0.0865
     41  CZ       -13.9070   -0.8180   63.2980 C.cat 174  ARG174      0.5346
     42  NH1      -13.9980    0.5020   63.4380 N.pl3 174  ARG174      0.1354
     43  NH2      -13.1770   -1.5110   64.1510 N.pl3 174  ARG174      0.1354
     44  N        -16.6250   -3.1540   72.2140 N.3   179  SER179     -0.1202
     45  CA       -16.0630   -1.8800   71.7630 C.3   179  SER179      0.2020
     46  C        -15.0560   -1.3330   72.7580 C.2   179  SER179      0.2619
     47  O        -15.2920   -1.3730   73.9720 O.2   179  SER179     -0.2717
     48  CB       -17.1320   -0.8050   71.5820 C.3   179  SER179      0.2103
     49  OG       -17.7750   -0.9370   70.3440 O.3   179  SER179     -0.2182
     50  N        -13.9590   -0.7730   72.2260 N.am  180  GLY180     -0.1942
     51  CA       -13.0490    0.0050   73.0540 C.3   180  GLY180      0.2014
     52  C        -13.7340    1.1530   73.7800 C.2   180  GLY180      0.2638
     53  O        -13.6120    1.2910   75.0040 O.2   180  GLY180     -0.2714
     54  N        -14.4640    1.9880   73.0370 N.am  181  ASP181     -0.1971
     55  CA       -15.2070    3.1200   73.5900 C.3   181  ASP181      0.1709
     56  C        -16.3180    3.5040   72.6020 C.2   181  ASP181      0.2293
     57  O        -16.5240    2.8380   71.5790 O.2   181  ASP181     -0.2864
     58  CB       -14.2630    4.2880   73.8890 C.3   181  ASP181      0.1436
     59  CG       -13.9160    5.0900   72.6470 C.2   181  ASP181      0.3671
     60  OD1      -13.7140    4.4690   71.5980 O.co2 181  ASP181     -0.2456
     61  OD2      -13.8540    6.3430   72.7050 O.co2 181  ASP181     -0.2456
     62  N        -18.4620    6.3420   70.1320 N.3   183  ASP183     -0.1239
     63  CA       -18.1860    7.4420   69.2130 C.3   183  ASP183      0.1674
     64  C        -19.4980    7.8880   68.5840 C.2   183  ASP183      0.2266
     65  O        -20.1870    7.0850   67.9330 O.2   183  ASP183     -0.2867
     66  CB       -17.1840    7.0250   68.1350 C.3   183  ASP183      0.1410
     67  CG       -15.8720    6.4880   68.7170 C.2   183  ASP183      0.3668
     68  OD1      -15.0940    7.2350   69.3490 O.co2 183  ASP183     -0.2456
     69  OD2      -15.5900    5.3100   68.5220 O.co2 183  ASP183     -0.2456
     70  N        -16.6310    9.9260   72.8310 N.3   247  ASP247     -0.1239
     71  CA       -16.1810   10.9340   71.8840 C.3   247  ASP247      0.1674
     72  C        -17.4050   11.3770   71.0950 C.2   247  ASP247      0.2266
     73  O        -18.2060   10.5330   70.6670 O.2   247  ASP247     -0.2867
     74  CB       -15.1190   10.3870   70.9200 C.3   247  ASP247      0.1410
     75  CG       -13.7730   10.1250   71.5790 C.2   247  ASP247      0.3668
     76  OD1      -13.3620   10.8900   72.4660 O.co2 247  ASP247     -0.2456
     77  OD2      -13.1110    9.1480   71.1700 O.co2 247  ASP247     -0.2456
     78  N        -15.2460    8.6240   57.9610 N.3   262  TYR262     -0.1227
     79  CA       -14.1390    8.7830   58.8910 C.3   262  TYR262      0.1736
     80  C        -14.3820    8.0370   60.2030 C.2   262  TYR262      0.2595
     81  O        -13.5380    7.2540   60.6520 O.2   262  TYR262     -0.2718
     82  CB       -13.9240   10.2730   59.1530 C.3   262  TYR262      0.0548
     83  CG       -13.2810   10.5400   60.4760 C.ar  262  TYR262     -0.0200
     84  CD1      -11.9420   10.2380   60.6870 C.ar  262  TYR262     -0.0009
     85  CD2      -14.0050   11.0820   61.5150 C.ar  262  TYR262     -0.0009
     86  CE1      -11.3450   10.4710   61.9030 C.ar  262  TYR262      0.0417
     87  CE2      -13.4200   11.3250   62.7330 C.ar  262  TYR262      0.0417
     88  CZ       -12.0920   11.0140   62.9320 C.ar  262  TYR262      0.1957
     89  OH       -11.5020   11.2580   64.1590 O.3   262  TYR262     -0.2866
     90  N        -15.5330    8.2820   60.8310 N.am  263  PHE263     -0.1962
     91  CA       -15.7910    7.8620   62.2070 C.3   263  PHE263      0.1771
     92  C        -16.1240    6.3800   62.3210 C.2   263  PHE263      0.2620
     93  O        -16.0650    5.8290   63.4220 O.2   263  PHE263     -0.2715
     94  CB       -16.9480    8.6720   62.7880 C.3   263  PHE263      0.0574
     95  CG       -16.6710    9.2780   64.1220 C.ar  263  PHE263     -0.0200
     96  CD1      -15.3950    9.2910   64.6500 C.ar  263  PHE263     -0.0042
     97  CD2      -17.7080    9.8370   64.8630 C.ar  263  PHE263     -0.0042
     98  CE1      -15.1480    9.8600   65.8830 C.ar  263  PHE263     -0.0003
     99  CE2      -17.4710   10.4110   66.1040 C.ar  263  PHE263     -0.0003
    100  CZ       -16.1910   10.4190   66.6190 C.ar  263  PHE263     -0.0000
    101  N        -16.4900    5.7250   61.2190 N.am  264  THR264     -0.1937
    102  CA       -16.7050    4.2870   61.2610 C.3   264  THR264      0.2028
    103  C        -15.3970    3.5130   61.1960 C.2   264  THR264      0.2643
    104  O        -15.3130    2.3890   61.7100 O.2   264  THR264     -0.2714
    105  CB       -17.6170    3.8940   60.1170 C.3   264  THR264      0.1808
    106  OG1      -18.7400    4.7770   60.1340 O.3   264  THR264     -0.2208
    107  CG2      -18.0840    2.4400   60.2770 C.3   264  THR264      0.0379
    108  N        -14.3770    4.0960   60.5840 N.am  265  GLY265     -0.1939
    109  CA       -13.0760    3.4710   60.5110 C.3   265  GLY265      0.2014
    110  C        -13.0530    2.1540   59.7660 C.2   265  GLY265      0.2640
    111  O        -13.8500    1.9540   58.8540 O.2   265  GLY265     -0.2714
    112  N        -12.1580    1.2420   60.1500 N.am  266  SER266     -0.1935
    113  CA       -11.2180    1.4240   61.2650 C.3   266  SER266      0.2055
    114  C        -10.1590    2.4800   60.9870 C.2   266  SER266      0.2643
    115  O        -10.1290    3.0710   59.9170 O.2   266  SER266     -0.2714
    116  CB       -10.5180    0.0950   61.5900 C.3   266  SER266      0.2130
    117  OG        -9.6480   -0.3180   60.5310 O.3   266  SER266     -0.2179
    118  N         -9.2830    2.7180   61.9580 N.am  267  ASP267     -0.1971
    119  CA        -8.2090    3.6730   61.7190 C.3   267  ASP267      0.1709
    120  C         -7.3470    3.2200   60.5490 C.2   267  ASP267      0.2293
    121  O         -6.9720    4.0360   59.6900 O.2   267  ASP267     -0.2864
    122  CB        -7.3650    3.8710   62.9850 C.3   267  ASP267      0.1436
    123  CG        -7.0560    2.5570   63.7180 C.2   267  ASP267      0.3671
    124  OD1       -6.9850    1.4740   63.0890 O.co2 267  ASP267     -0.2456
    125  OD2       -6.8910    2.6160   64.9520 O.co2 267  ASP267     -0.2456
    126  N         -9.2040    3.5750   57.3530 N.3   270  ASN270     -0.1225
    127  CA        -9.1070    4.9840   56.9860 C.3   270  ASN270      0.1785
    128  C         -7.7680    5.2800   56.3270 C.2   270  ASN270      0.2597
    129  O         -7.7100    6.0150   55.3330 O.2   270  ASN270     -0.2718
    130  CB        -9.3180    5.8710   58.2110 C.3   270  ASN270      0.1169
    131  CG       -10.7840    5.9920   58.6020 C.2   270  ASN270      0.2627
    132  OD1      -11.6560    5.3670   57.9930 O.2   270  ASN270     -0.2716
    133  ND2      -11.0610    6.7890   59.6340 N.am  270  ASN270     -0.0877
    134  N         -6.6860    4.6760   56.8310 N.am  271  LYS271     -0.1980
    135  CA        -5.3650    4.9870   56.2960 C.3   271  LYS271      0.1596
    136  C         -5.1710    4.3890   54.9010 C.2   271  LYS271      0.2287
    137  O         -4.6320    5.0540   54.0090 O.2   271  LYS271     -0.2864
    138  CB        -4.2810    4.5140   57.2710 C.3   271  LYS271      0.0298
    139  CG        -3.8790    5.5310   58.2490 C.3   271  LYS271      0.0038
    140  CD        -3.0980    4.8350   59.3260 C.3   271  LYS271      0.0206
    141  CE        -3.5390    5.2740   60.6970 C.3   271  LYS271      0.1093
    142  NZ        -2.9230    4.4060   61.7480 N.3   271  LYS271     -0.1314
    143  N         -7.4760    6.6250   52.3960 N.3   274  ARG274     -0.1245
    144  CA        -6.9070    7.9180   52.0400 C.3   274  ARG274      0.1563
    145  C         -5.6120    7.7620   51.2430 C.2   274  ARG274      0.2260
    146  O         -5.3650    8.5210   50.2950 O.2   274  ARG274     -0.2867
    147  CB        -6.6810    8.7370   53.2960 C.3   274  ARG274      0.0307
    148  CG        -7.9700    9.0050   54.0240 C.3   274  ARG274      0.0489
    149  CD        -7.7240    9.4320   55.4510 C.3   274  ARG274      0.2205
    150  NE        -8.9770    9.6570   56.1570 N.pl3 274  ARG274     -0.0865
    151  CZ        -9.1340   10.5970   57.0840 C.cat 274  ARG274      0.5346
    152  NH1       -8.1100   11.3860   57.3890 N.pl3 274  ARG274      0.1354
    153  NH2      -10.3090   10.7610   57.6850 N.pl3 274  ARG274      0.1354
@<TRIPOS>BOND
     1   146   145    2
     2   145   144    1
     3   144   143    1
     4   144   147    1
     5   147   148    1
     6   137   136    2
     7   148   149    1
     8   136   135    1
     9   129   128    2
    10   149   150    1
    11   150   151    2
    12   135   134    1
    13   135   138    1
    14   128   134   am
    15   128   127    1
    16   127   126    1
    17   127   130    1
    18   151   152    1
    19   151   153    1
    20   138   139    1
    21    78    79    1
    22   132   131    2
    23   130   131    1
    24   139   140    1
    25   131   133   am
    26   111   110    2
    27    79    82    1
    28    79    80    1
    29    82    83    1
    30   140   141    1
    31   121   120    2
    32   110   112   am
    33   110   109    1
    34   115   114    2
    35   105   106    1
    36   105   107    1
    37   105   102    1
    38   112   113    1
    39    80    81    2
    40    80    90   am
    41    83    84   ar
    42    83    85   ar
    43   109   108    1
    44   117   116    1
    45   120   119    1
    46   108   103   am
    47    84    86   ar
    48   141   142    1
    49    90    91    1
    50   114   113    1
    51   114   118   am
    52     4     3    2
    53     3     2    1
    54   103   102    1
    55   103   104    2
    56   101   102    1
    57   101    92   am
    58   113   116    1
    59    39    38    1
    60    39    40    1
    61    85    87   ar
    62   119   118    1
    63   119   122    1
    64    38    37    1
    65    86    88   ar
    66    34    37    1
    67    34    35    1
    68    34    33    1
    69    36    35    2
    70     1     2    1
    71    91    92    1
    72    91    94    1
    73    40    41    2
    74    92    93    2
    75     2     5    1
    76    87    88   ar
    77    94    95    1
    78     5     6    1
    79    88    89    1
    80   122   123    1
    81   124   123   ar
    82    41    42    1
    83    41    43    1
    84   123   125   ar
    85    95    96   ar
    86    95    97   ar
    87    11     9    1
    88    26    25    2
    89     6     7    1
    90     8     9    2
    91     8     7    1
    92    96    98   ar
    93     9    10    1
    94    97    99   ar
    95    23    24    1
    96    25    24    1
    97    25    27   am
    98    30    29    2
    99    98   100   ar
   100    28    27    1
   101    28    29    1
   102    28    31    1
   103    99   100   ar
   104    31    32    1
   105    65    64    2
   106    66    67    1
   107    66    63    1
   108    69    67   ar
   109    64    63    1
   110    67    68   ar
   111    63    62    1
   112    49    48    1
   113    73    72    2
   114    74    75    1
   115    74    71    1
   116    72    71    1
   117    77    75   ar
   118    22    20    1
   119    75    76   ar
   120    57    56    2
   121    48    45    1
   122    60    59   ar
   123    45    44    1
   124    45    46    1
   125    71    70    1
   126    20    21    1
   127    20    19    2
   128    50    46   am
   129    50    51    1
   130    56    55    1
   131    59    61   ar
   132    59    58    1
   133    46    47    2
   134    54    55    1
   135    54    52   am
   136    51    52    1
   137    19    18    1
   138    55    58    1
   139    52    53    2
   140    18    17    1
   141    17    16    1
   142    16    13    1
   143    13    14    1
   144    13    12    1
   145    14    15    2
