@<TRIPOS>MOLECULE
tmp/5wo0D00.pdb
 153 145 0 0 0
SMALL
GASTEIGER

@<TRIPOS>ATOM
      1  N          2.0350   -1.7060   61.7870 N.3    31  ARG31      -0.1245
      2  CA         0.5840   -1.8380   61.8490 C.3    31  ARG31       0.1563
      3  C          0.0160   -2.2760   60.5070 C.2    31  ARG31       0.2260
      4  O         -0.9280   -3.0750   60.4560 O.2    31  ARG31      -0.2867
      5  CB        -0.0510   -0.5210   62.2780 C.3    31  ARG31       0.0307
      6  CG         0.1970   -0.1770   63.7280 C.3    31  ARG31       0.0489
      7  CD        -0.8410    0.7950   64.1730 C.3    31  ARG31       0.2205
      8  NE        -2.1500    0.1740   64.3330 N.pl3  31  ARG31      -0.0865
      9  CZ        -3.2950    0.8420   64.2280 C.cat  31  ARG31       0.5346
     10  NH1       -3.2790    2.1390   63.9430 N.pl3  31  ARG31       0.1354
     11  NH2       -4.4530    0.2120   64.3870 N.pl3  31  ARG31       0.1354
     12  N        -12.9410   -3.4530   77.6120 N.3   140  ARG140     -0.1245
     13  CA       -13.7590   -3.3150   76.4180 C.3   140  ARG140      0.1563
     14  C        -15.2190   -3.1080   76.8020 C.2   140  ARG140      0.2260
     15  O        -15.6380   -3.3420   77.9400 O.2   140  ARG140     -0.2867
     16  CB       -13.6360   -4.5490   75.5330 C.3   140  ARG140      0.0307
     17  CG       -12.2710   -5.1760   75.5230 C.3   140  ARG140      0.0489
     18  CD       -11.6040   -4.9170   74.2050 C.3   140  ARG140      0.2205
     19  NE       -12.5270   -5.0510   73.0810 N.pl3 140  ARG140     -0.0865
     20  CZ       -12.4130   -4.3470   71.9600 C.cat 140  ARG140      0.5346
     21  NH1      -11.4270   -3.4690   71.8350 N.pl3 140  ARG140      0.1354
     22  NH2      -13.2840   -4.5040   70.9720 N.pl3 140  ARG140      0.1354
     23  N        -17.4800    4.3240   64.6130 N.3   170  GLY170     -0.1210
     24  CA       -16.4300    3.4200   65.0740 C.3   170  GLY170      0.1956
     25  C        -16.7520    1.9460   64.8510 C.2   170  GLY170      0.2612
     26  O        -17.5440    1.5540   63.9890 O.2   170  GLY170     -0.2717
     27  N        -16.0930    1.1200   65.6580 N.am  171  SER171     -0.1952
     28  CA       -16.2660   -0.3230   65.5460 C.3   171  SER171      0.1924
     29  C        -17.7140   -0.7500   65.7910 C.2   171  SER171      0.2314
     30  O        -18.1380   -1.8070   65.3050 O.2   171  SER171     -0.2863
     31  CB       -15.3250   -1.0250   66.5210 C.3   171  SER171      0.2116
     32  OG       -15.5720   -0.5790   67.8570 O.3   171  SER171     -0.2180
     33  N        -19.4230   -0.7810   62.5600 N.3   174  ARG174     -0.1245
     34  CA       -18.8860   -1.9300   61.8430 C.3   174  ARG174      0.1563
     35  C        -19.4000   -3.2540   62.3900 C.2   174  ARG174      0.2260
     36  O        -18.9710   -4.3120   61.9110 O.2   174  ARG174     -0.2867
     37  CB       -17.3570   -1.9120   61.8810 C.3   174  ARG174      0.0307
     38  CG       -16.7590   -0.6100   61.3180 C.3   174  ARG174      0.0489
     39  CD       -15.2970   -0.7860   60.9120 C.3   174  ARG174      0.2205
     40  NE       -14.4890   -1.3830   61.9780 N.pl3 174  ARG174     -0.0865
     41  CZ       -13.8450   -0.6960   62.9120 C.cat 174  ARG174      0.5346
     42  NH1      -13.8930    0.6390   62.9410 N.pl3 174  ARG174      0.1354
     43  NH2      -13.1290   -1.3470   63.8190 N.pl3 174  ARG174      0.1354
     44  N        -16.5030   -2.9650   71.7460 N.3   179  SER179     -0.1202
     45  CA       -15.8680   -1.7460   71.2810 C.3   179  SER179      0.2020
     46  C        -14.8960   -1.2410   72.3330 C.2   179  SER179      0.2619
     47  O        -15.0730   -1.4630   73.5320 O.2   179  SER179     -0.2717
     48  CB       -16.9100   -0.6770   70.9610 C.3   179  SER179      0.2103
     49  OG       -17.6560   -1.0470   69.8090 O.3   179  SER179     -0.2182
     50  N        -13.8580   -0.5520   71.8720 N.am  180  GLY180     -0.1942
     51  CA       -12.9380    0.0610   72.8110 C.3   180  GLY180      0.2014
     52  C        -13.5130    1.3070   73.4590 C.2   180  GLY180      0.2638
     53  O        -13.2410    1.5820   74.6280 O.2   180  GLY180     -0.2714
     54  N        -14.2800    2.0920   72.7030 N.am  181  ASP181     -0.1971
     55  CA       -14.9110    3.3070   73.2130 C.3   181  ASP181      0.1709
     56  C        -16.0460    3.6890   72.2630 C.2   181  ASP181      0.2293
     57  O        -16.2220    3.0810   71.2000 O.2   181  ASP181     -0.2864
     58  CB       -13.8830    4.4430   73.4170 C.3   181  ASP181      0.1436
     59  CG       -13.4840    5.1700   72.1300 C.2   181  ASP181      0.3671
     60  OD1      -13.9100    4.8110   71.0270 O.co2 181  ASP181     -0.2456
     61  OD2      -12.6950    6.1250   72.2430 O.co2 181  ASP181     -0.2456
     62  N        -17.9270    6.4340   69.7820 N.3   183  ASP183     -0.1239
     63  CA       -17.7200    7.5690   68.8870 C.3   183  ASP183      0.1674
     64  C        -19.0700    8.0110   68.3590 C.2   183  ASP183      0.2266
     65  O        -19.8150    7.1960   67.8030 O.2   183  ASP183     -0.2867
     66  CB       -16.7870    7.1710   67.7470 C.3   183  ASP183      0.1410
     67  CG       -15.6180    6.3950   68.2470 C.2   183  ASP183      0.3668
     68  OD1      -14.6870    7.0450   68.7350 O.co2 183  ASP183     -0.2456
     69  OD2      -15.6610    5.1510   68.2260 O.co2 183  ASP183     -0.2456
     70  N        -16.1120   10.0260   72.3980 N.3   247  ASP247     -0.1239
     71  CA       -15.7520   11.0930   71.4770 C.3   247  ASP247      0.1674
     72  C        -16.9990   11.5380   70.7360 C.2   247  ASP247      0.2266
     73  O        -17.7900   10.7010   70.2940 O.2   247  ASP247     -0.2867
     74  CB       -14.6970   10.6040   70.4800 C.3   247  ASP247      0.1410
     75  CG       -13.4270   10.1450   71.1740 C.2   247  ASP247      0.3668
     76  OD1      -12.9630   10.8690   72.0700 O.co2 247  ASP247     -0.2456
     77  OD2      -12.9120    9.0550   70.8550 O.co2 247  ASP247     -0.2456
     78  N        -15.3220    8.6070   57.6330 N.3   262  TYR262     -0.1227
     79  CA       -14.1400    8.7550   58.4790 C.3   262  TYR262      0.1736
     80  C        -14.3690    8.1350   59.8520 C.2   262  TYR262      0.2595
     81  O        -13.5330    7.3700   60.3550 O.2   262  TYR262     -0.2718
     82  CB       -13.7760   10.2360   58.6330 C.3   262  TYR262      0.0548
     83  CG       -13.1040   10.5420   59.9520 C.ar  262  TYR262     -0.0200
     84  CD1      -11.7650   10.2040   60.1800 C.ar  262  TYR262     -0.0009
     85  CD2      -13.8150   11.1370   60.9880 C.ar  262  TYR262     -0.0009
     86  CE1      -11.1580   10.4780   61.4230 C.ar  262  TYR262      0.0417
     87  CE2      -13.2180   11.4140   62.2060 C.ar  262  TYR262      0.0417
     88  CZ       -11.8960   11.0760   62.4170 C.ar  262  TYR262      0.1957
     89  OH       -11.3340   11.3600   63.6520 O.3   262  TYR262     -0.2866
     90  N        -15.4920    8.4760   60.4890 N.am  263  PHE263     -0.1962
     91  CA       -15.6740    8.0640   61.8720 C.3   263  PHE263      0.1771
     92  C        -16.0180    6.5840   62.0020 C.2   263  PHE263      0.2620
     93  O        -15.8700    6.0230   63.1000 O.2   263  PHE263     -0.2715
     94  CB       -16.7610    8.9130   62.5450 C.3   263  PHE263      0.0574
     95  CG       -16.3820    9.4230   63.9110 C.ar  263  PHE263     -0.0200
     96  CD1      -15.0640    9.3820   64.3480 C.ar  263  PHE263     -0.0042
     97  CD2      -17.3520    9.9440   64.7600 C.ar  263  PHE263     -0.0042
     98  CE1      -14.7180    9.8450   65.6010 C.ar  263  PHE263     -0.0003
     99  CE2      -17.0110   10.4240   66.0070 C.ar  263  PHE263     -0.0003
    100  CZ       -15.6890   10.3680   66.4320 C.ar  263  PHE263     -0.0000
    101  N        -16.4360    5.9320   60.9100 N.am  264  THR264     -0.1937
    102  CA       -16.6620    4.4920   60.9570 C.3   264  THR264      0.2028
    103  C        -15.3570    3.7160   60.9090 C.2   264  THR264      0.2643
    104  O        -15.2550    2.6430   61.5130 O.2   264  THR264     -0.2714
    105  CB       -17.5890    4.0800   59.8150 C.3   264  THR264      0.1808
    106  OG1      -18.8450    4.7270   60.0100 O.3   264  THR264     -0.2208
    107  CG2      -17.8150    2.5780   59.8090 C.3   264  THR264      0.0379
    108  N        -14.3520    4.2400   60.2100 N.am  265  GLY265     -0.1939
    109  CA       -13.0620    3.5700   60.1440 C.3   265  GLY265      0.2014
    110  C        -13.0990    2.1820   59.5130 C.2   265  GLY265      0.2640
    111  O        -13.9520    1.9210   58.6560 O.2   265  GLY265     -0.2714
    112  N        -12.2000    1.2760   59.9160 N.am  266  SER266     -0.1935
    113  CA       -11.1920    1.4770   60.9650 C.3   266  SER266      0.2055
    114  C        -10.1290    2.5110   60.5930 C.2   266  SER266      0.2643
    115  O        -10.1370    3.0380   59.4910 O.2   266  SER266     -0.2714
    116  CB       -10.4880    0.1520   61.2670 C.3   266  SER266      0.2130
    117  OG        -9.6300   -0.1880   60.1790 O.3   266  SER266     -0.2179
    118  N         -9.2070    2.7760   61.5210 N.am  267  ASP267     -0.1971
    119  CA        -8.1380    3.7260   61.2340 C.3   267  ASP267      0.1709
    120  C         -7.2640    3.2370   60.0900 C.2   267  ASP267      0.2293
    121  O         -6.9390    4.0080   59.1880 O.2   267  ASP267     -0.2864
    122  CB        -7.3020    3.9900   62.4930 C.3   267  ASP267      0.1436
    123  CG        -6.6230    2.7370   63.0450 C.2   267  ASP267      0.3671
    124  OD1       -7.0940    1.6050   62.7860 O.co2 267  ASP267     -0.2456
    125  OD2       -5.6100    2.8930   63.7660 O.co2 267  ASP267     -0.2456
    126  N         -9.1350    3.6420   56.9000 N.3   270  ASN270     -0.1225
    127  CA        -9.1010    5.0190   56.4130 C.3   270  ASN270      0.1785
    128  C         -7.7650    5.3330   55.7540 C.2   270  ASN270      0.2597
    129  O         -7.7140    6.0010   54.7140 O.2   270  ASN270     -0.2718
    130  CB        -9.3750    5.9980   57.5570 C.3   270  ASN270      0.1169
    131  CG       -10.8200    5.9740   58.0090 C.2   270  ASN270      0.2627
    132  OD1      -11.6990    5.4530   57.3100 O.2   270  ASN270     -0.2716
    133  ND2      -11.0820    6.5500   59.1760 N.am  270  ASN270     -0.0877
    134  N         -6.6710    4.8620   56.3500 N.am  271  LYS271     -0.1980
    135  CA        -5.3560    5.1140   55.7720 C.3   271  LYS271      0.1596
    136  C         -5.2070    4.4280   54.4240 C.2   271  LYS271      0.2287
    137  O         -4.6910    5.0270   53.4750 O.2   271  LYS271     -0.2864
    138  CB        -4.2740    4.6490   56.7350 C.3   271  LYS271      0.0298
    139  CG        -4.1660    5.4910   57.9770 C.3   271  LYS271      0.0038
    140  CD        -3.0200    4.9960   58.8190 C.3   271  LYS271      0.0206
    141  CE        -1.7420    5.0180   58.0090 C.3   271  LYS271      0.1093
    142  NZ        -0.5550    5.0040   58.8830 N.3   271  LYS271     -0.1314
    143  N         -7.5240    6.4440   51.9750 N.3   274  ARG274     -0.1245
    144  CA        -7.0120    7.7690   51.6520 C.3   274  ARG274      0.1563
    145  C         -5.7420    7.6740   50.8150 C.2   274  ARG274      0.2260
    146  O         -5.5700    8.4390   49.8590 O.2   274  ARG274     -0.2867
    147  CB        -6.7800    8.5670   52.9330 C.3   274  ARG274      0.0307
    148  CG        -8.0970    8.9430   53.6150 C.3   274  ARG274      0.0489
    149  CD        -7.8930    9.4200   55.0250 C.3   274  ARG274      0.2205
    150  NE        -9.1740    9.8450   55.5950 N.pl3 274  ARG274     -0.0865
    151  CZ        -9.3120   10.7500   56.5600 C.cat 274  ARG274      0.5346
    152  NH1       -8.2550   11.3460   57.0970 N.pl3 274  ARG274      0.1354
    153  NH2      -10.5270   11.0660   56.9820 N.pl3 274  ARG274      0.1354
@<TRIPOS>BOND
     1   146   145    2
     2   145   144    1
     3   144   143    1
     4   144   147    1
     5   147   148    1
     6   137   136    2
     7   148   149    1
     8   136   135    1
     9   129   128    2
    10   149   150    1
    11   150   151    2
    12   128   134   am
    13   128   127    1
    14   135   134    1
    15   135   138    1
    16   127   126    1
    17   127   130    1
    18   151   153    1
    19   151   152    1
    20   138   139    1
    21   132   131    2
    22   130   131    1
    23    78    79    1
    24   139   140    1
    25   131   133   am
    26   141   140    1
    27   141   142    1
    28    79    82    1
    29    79    80    1
    30    82    83    1
    31   111   110    2
    32   121   120    2
    33   115   114    2
    34   110   112   am
    35   110   109    1
    36   107   105    1
    37   105   106    1
    38   105   102    1
    39    80    81    2
    40    80    90   am
    41   112   113    1
    42    83    84   ar
    43    83    85   ar
    44   120   119    1
    45   109   108    1
    46   117   116    1
    47    84    86   ar
    48   108   103   am
    49     4     3    2
    50    90    91    1
    51     3     2    1
    52   114   113    1
    53   114   118   am
    54   103   102    1
    55   103   104    2
    56   101   102    1
    57   101    92   am
    58    39    38    1
    59    39    40    1
    60   113   116    1
    61    85    87   ar
    62   119   118    1
    63   119   122    1
    64    38    37    1
    65    86    88   ar
    66     1     2    1
    67    34    37    1
    68    34    35    1
    69    34    33    1
    70     2     5    1
    71    91    92    1
    72    91    94    1
    73    36    35    2
    74    40    41    2
    75    92    93    2
    76    87    88   ar
    77     5     6    1
    78    88    89    1
    79   122   123    1
    80    94    95    1
    81   124   123   ar
    82    41    42    1
    83    41    43    1
    84   123   125   ar
    85     6     7    1
    86    95    96   ar
    87    95    97   ar
    88    10     9    1
    89    26    25    2
    90     7     8    1
    91     9     8    2
    92     9    11    1
    93    96    98   ar
    94    23    24    1
    95    97    99   ar
    96    25    24    1
    97    25    27   am
    98    30    29    2
    99    28    27    1
   100    28    29    1
   101    28    31    1
   102    98   100   ar
   103    99   100   ar
   104    31    32    1
   105    66    67    1
   106    66    63    1
   107    65    64    2
   108    69    67   ar
   109    67    68   ar
   110    64    63    1
   111    63    62    1
   112    49    48    1
   113    73    72    2
   114    74    75    1
   115    74    71    1
   116    72    71    1
   117    77    75   ar
   118    48    45    1
   119    22    20    1
   120    60    59   ar
   121    75    76   ar
   122    57    56    2
   123    45    44    1
   124    45    46    1
   125    71    70    1
   126    21    20    1
   127    50    46   am
   128    50    51    1
   129    20    19    2
   130    59    61   ar
   131    59    58    1
   132    56    55    1
   133    46    47    2
   134    54    55    1
   135    54    52   am
   136    51    52    1
   137    19    18    1
   138    55    58    1
   139    52    53    2
   140    18    17    1
   141    17    16    1
   142    16    13    1
   143    13    14    1
   144    13    12    1
   145    14    15    2
