@<TRIPOS>MOLECULE
tmp/5wo4A00.pdb
 158 150 0 0 0
SMALL
GASTEIGER

@<TRIPOS>ATOM
      1  N          6.0250   57.2930  -11.3370 N.3    26  ARG26      -0.1245
      2  CA         6.9320   56.1850  -11.0360 C.3    26  ARG26       0.1563
      3  C          6.5340   55.4880   -9.7490 C.2    26  ARG26       0.2260
      4  O          5.7500   56.0400   -8.9830 O.2    26  ARG26      -0.2867
      5  CB         8.3970   56.6880  -10.9500 C.3    26  ARG26       0.0307
      6  CG         8.7280   57.5910   -9.7370 C.3    26  ARG26       0.0489
      7  CD        10.1190   58.1770   -9.8630 C.3    26  ARG26       0.2205
      8  NE        10.4130   59.1980   -8.8510 N.pl3  26  ARG26      -0.0865
      9  CZ        11.0500   58.9610   -7.7080 C.cat  26  ARG26       0.5346
     10  NH1       11.4390   57.7300   -7.3980 N.pl3  26  ARG26       0.1354
     11  NH2       11.2970   59.9500   -6.8630 N.pl3  26  ARG26       0.1354
     12  N          7.2790   54.1580   -5.9630 N.3    28  LEU28      -0.1231
     13  CA         8.0650   54.6290   -4.8160 C.3    28  LEU28       0.1693
     14  C          8.3890   53.4620   -3.9070 C.2    28  LEU28       0.2593
     15  O          9.4850   53.3860   -3.3610 O.2    28  LEU28      -0.2718
     16  CB         7.3370   55.7610   -4.0510 C.3    28  LEU28       0.0284
     17  CG         7.1100   57.0820   -4.8280 C.3    28  LEU28       0.0019
     18  CD1        6.2430   58.0620   -4.0110 C.3    28  LEU28       0.0001
     19  CD2        8.4450   57.7370   -5.3110 C.3    28  LEU28       0.0001
     20  N          7.4490   52.5440   -3.7600 N.am   29  GLY29      -0.1942
     21  CA         7.6560   51.3930   -2.9050 C.3    29  GLY29       0.2014
     22  C          6.4980   50.4420   -2.9170 C.2    29  GLY29       0.2638
     23  O          5.4890   50.6860   -3.5920 O.2    29  GLY29      -0.2714
     24  N          6.6600   49.3460   -2.1580 N.am   30  GLU30      -0.1977
     25  CA         5.7180   48.2380   -2.0160 C.3    30  GLU30       0.1602
     26  C          5.7400   47.7420   -0.5720 C.2    30  GLU30       0.2287
     27  O          6.7350   47.9290    0.1360 O.2    30  GLU30      -0.2864
     28  CB         6.1360   47.0810   -2.9510 C.3    30  GLU30       0.0415
     29  CG         5.8910   47.3360   -4.4270 C.3    30  GLU30       0.1163
     30  CD         6.4130   46.2440   -5.3370 C.2    30  GLU30       0.3649
     31  OE1        7.6350   46.2350   -5.6140 O.co2  30  GLU30      -0.2457
     32  OE2        5.6030   45.3960   -5.7750 O.co2  30  GLU30      -0.2457
     33  N          2.9930   51.9000   -3.5740 N.3    36  VAL36      -0.1245
     34  CA         2.9610   53.3490   -3.4980 C.3    36  VAL36       0.1561
     35  C          3.6010   53.8780   -4.7550 C.2    36  VAL36       0.2260
     36  O          4.7040   53.4670   -5.1050 O.2    36  VAL36      -0.2867
     37  CB         3.6290   53.9080   -2.2130 C.3    36  VAL36       0.0252
     38  CG1        3.5280   55.4280   -2.1680 C.3    36  VAL36       0.0019
     39  CG2        2.9940   53.3150   -0.9560 C.3    36  VAL36       0.0019
     40  N          1.6860   61.1770   -3.4160 N.3    53  ALA53      -0.1245
     41  CA         2.0630   59.7850   -3.2500 C.3    53  ALA53       0.1562
     42  C          0.7250   59.0330   -3.1760 C.2    53  ALA53       0.2260
     43  O         -0.1770   59.4400   -2.4440 O.2    53  ALA53      -0.2867
     44  CB         2.8470   59.5750   -1.9690 C.3    53  ALA53       0.0290
     45  N          3.0730   61.8100    8.1470 N.3    81  VAL81      -0.1245
     46  CA         2.7550   62.1860    6.7540 C.3    81  VAL81       0.1561
     47  C          1.2870   62.6370    6.6340 C.2    81  VAL81       0.2260
     48  O          0.3980   62.0800    7.2950 O.2    81  VAL81      -0.2867
     49  CB         3.1050   61.0670    5.7400 C.3    81  VAL81       0.0252
     50  CG1        2.1090   59.9040    5.8290 C.3    81  VAL81       0.0019
     51  CG2        3.1480   61.6180    4.3090 C.3    81  VAL81       0.0019
     52  N         -1.6130   60.8500   -0.5120 N.3    96  MET96      -0.1230
     53  CA        -0.8170   61.4640    0.5520 C.3    96  MET96       0.1702
     54  C          0.1080   62.5240   -0.0090 C.2    96  MET96       0.2592
     55  O          0.4240   62.5020   -1.2000 O.2    96  MET96      -0.2718
     56  CB         0.0270   60.3960    1.2670 C.3    96  MET96       0.0401
     57  CG        -0.8180   59.2930    1.9440 C.3    96  MET96       0.0596
     58  SD         0.1730   57.8580    2.3580 S.3    96  MET96      -0.1393
     59  CE         0.3920   57.0870    0.6540 C.3    96  MET96       0.0692
     60  N          0.6110   63.4120    0.8500 N.am   97  GLU97      -0.1966
     61  CA         1.6020   64.3800    0.3690 C.3    97  GLU97       0.1733
     62  C          2.8470   63.6270   -0.1060 C.2    97  GLU97       0.2616
     63  O          3.1660   62.5360    0.4040 O.2    97  GLU97      -0.2715
     64  CB         1.9530   65.4100    1.4550 C.3    97  GLU97       0.0429
     65  CG         2.5650   64.7690    2.6910 C.3    97  GLU97       0.1163
     66  CD         3.0480   65.7380    3.7440 C.2    97  GLU97       0.3649
     67  OE1        3.2670   66.9220    3.4050 O.co2  97  GLU97      -0.2457
     68  OE2        3.2740   65.2980    4.8940 O.co2  97  GLU97      -0.2457
     69  N          3.5390   64.1960   -1.0850 N.am   98  PHE98      -0.1960
     70  CA         4.7320   63.5720   -1.6320 C.3    98  PHE98       0.1771
     71  C          5.9600   64.2270   -1.0300 C.2    98  PHE98       0.2619
     72  O          6.0600   65.4520   -1.0530 O.2    98  PHE98      -0.2715
     73  CB         4.7520   63.6820   -3.1640 C.3    98  PHE98       0.0574
     74  CG         6.0500   63.2490   -3.7840 C.ar   98  PHE98      -0.0200
     75  CD1        6.5210   61.9470   -3.6170 C.ar   98  PHE98      -0.0042
     76  CD2        6.7780   64.1220   -4.5910 C.ar   98  PHE98      -0.0042
     77  CE1        7.7200   61.5330   -4.2050 C.ar   98  PHE98      -0.0003
     78  CE2        7.9840   63.7090   -5.1850 C.ar   98  PHE98      -0.0003
     79  CZ         8.4330   62.4150   -5.0070 C.ar   98  PHE98      -0.0000
     80  N          6.8520   63.4270   -0.4690 N.am   99  LEU99      -0.1964
     81  CA         8.1060   63.9440    0.1340 C.3    99  LEU99       0.1713
     82  C          9.2560   63.4910   -0.7680 C.2    99  LEU99       0.2458
     83  O          9.6700   62.3300   -0.6820 O.2    99  LEU99      -0.2730
     84  CB         8.2740   63.4280    1.5850 C.3    99  LEU99       0.0310
     85  CG         7.5970   64.2690    2.6790 C.3    99  LEU99       0.0022
     86  CD1        6.1010   64.2620    2.5560 C.3    99  LEU99       0.0001
     87  CD2        7.9150   63.7150    4.0730 C.3    99  LEU99       0.0001
     88  N          9.7570   64.3990   -1.6550 N.am  100  PRO100     -0.2716
     89  CA        10.7500   63.9850   -2.6760 C.3   100  PRO100      0.1536
     90  C         12.0570   63.3740   -2.1830 C.2   100  PRO100      0.2599
     91  O         12.6810   62.6170   -2.9300 O.2   100  PRO100     -0.2715
     92  CB        11.0310   65.2670   -3.4810 C.3   100  PRO100      0.0310
     93  CG        10.0500   66.2360   -3.0800 C.3   100  PRO100      0.0237
     94  CD         9.3200   65.7960   -1.8550 C.3   100  PRO100      0.0939
     95  N         12.4760   63.7090   -0.9500 N.am  101  SER101     -0.1936
     96  CA        13.7000   63.1720   -0.3630 C.3   101  SER101      0.2055
     97  C         13.6200   61.6990   -0.0240 C.2   101  SER101      0.2644
     98  O         14.6440   61.0860    0.2450 O.2   101  SER101     -0.2714
     99  CB        14.1110   63.9740    0.8710 C.3   101  SER101      0.2130
    100  OG        14.4780   65.2840    0.4740 O.3   101  SER101     -0.2179
    101  N         12.4200   61.1350   -0.0300 N.am  102  GLY102     -0.1939
    102  CA        12.2540   59.7300    0.2730 C.3   102  GLY102      0.2014
    103  C         12.3860   59.4230    1.7500 C.2   102  GLY102      0.2639
    104  O         12.2730   60.3050    2.6040 O.2   102  GLY102     -0.2714
    105  N         12.6750   58.1760    2.0260 N.am  103  SER103     -0.1949
    106  CA        12.8230   57.7060    3.3720 C.3   103  SER103      0.1924
    107  C         14.2630   57.8910    3.8310 C.2   103  SER103      0.2314
    108  O         15.1350   58.2380    3.0160 O.2   103  SER103     -0.2863
    109  CB        12.3860   56.2410    3.4700 C.3   103  SER103      0.2116
    110  OG        13.4210   55.3350    3.1290 O.3   103  SER103     -0.2180
    111  N         16.9240   56.0370    1.6670 N.3   106  GLU106     -0.1245
    112  CA        17.4200   56.7220    0.4780 C.3   106  GLU106      0.1567
    113  C         18.2460   57.9260    0.8730 C.2   106  GLU106      0.2260
    114  O         19.2700   58.1930    0.2570 O.2   106  GLU106     -0.2867
    115  CB        16.2650   57.2620   -0.3970 C.3   106  GLU106      0.0388
    116  CG        15.5070   56.2120   -1.1810 C.3   106  GLU106      0.1160
    117  CD        14.7000   55.2780   -0.3080 C.2   106  GLU106      0.3649
    118  OE1       13.9920   55.7740    0.5990 O.co2 106  GLU106     -0.2457
    119  OE2       14.8030   54.0470   -0.5080 O.co2 106  GLU106     -0.2457
    120  N         12.9450   52.5970    6.6410 N.3   147  ARG147     -0.1231
    121  CA        12.2620   52.6270    5.3200 C.3   147  ARG147      0.1694
    122  C         10.8670   53.2860    5.3800 C.2   147  ARG147      0.2592
    123  O         10.3450   53.7230    4.3380 O.2   147  ARG147     -0.2718
    124  CB        12.1510   51.2000    4.7530 C.3   147  ARG147      0.0321
    125  CG        11.1860   50.3060    5.5350 C.3   147  ARG147      0.0489
    126  CD        11.1640   48.8480    5.0680 C.3   147  ARG147      0.2205
    127  NE        10.9350   47.9680    6.2160 N.pl3 147  ARG147     -0.0865
    128  CZ         9.7410   47.5740    6.6370 C.cat 147  ARG147      0.5346
    129  NH1        8.6440   47.9380    5.9820 N.pl3 147  ARG147      0.1354
    130  NH2        9.6320   46.8150    7.7140 N.pl3 147  ARG147      0.1354
    131  N         10.2740   53.3550    6.6020 N.am  148  ASN148     -0.1974
    132  CA         8.9670   53.9750    6.8080 C.3   148  ASN148      0.1688
    133  C          9.0400   55.3670    7.4360 C.2   148  ASN148      0.2292
    134  O          8.0070   55.9090    7.8560 O.2   148  ASN148     -0.2864
    135  CB         8.0590   53.0550    7.6170 C.3   148  ASN148      0.1181
    136  CG         7.6500   51.8440    6.8310 C.2   148  ASN148      0.2629
    137  OD1        7.5300   51.8890    5.6170 O.2   148  ASN148     -0.2716
    138  ND2        7.4720   50.7310    7.5040 N.am  148  ASN148     -0.0877
    139  N         10.0090   59.1210    6.5100 N.3   150  LEU150     -0.1245
    140  CA        10.2220   60.0200    5.3820 C.3   150  LEU150      0.1561
    141  C         10.9400   61.2950    5.7810 C.2   150  LEU150      0.2260
    142  O         10.7400   61.7940    6.8750 O.2   150  LEU150     -0.2867
    143  CB         8.8810   60.3760    4.7490 C.3   150  LEU150      0.0270
    144  CG         8.0960   59.1980    4.1110 C.3   150  LEU150      0.0019
    145  CD1        6.7150   59.6700    3.6420 C.3   150  LEU150      0.0001
    146  CD2        8.8970   58.5580    2.9570 C.3   150  LEU150      0.0001
    147  N          5.8600   57.7400    7.5440 N.3   160  GLY160     -0.1210
    148  CA         5.1640   57.7900    6.2620 C.3   160  GLY160      0.1956
    149  C          4.3670   56.5940    5.7810 C.2   160  GLY160      0.2611
    150  O          3.8700   56.6200    4.6560 O.2   160  GLY160     -0.2717
    151  N          4.2230   55.5530    6.6030 N.am  161  ASP161     -0.1973
    152  CA         3.4430   54.3690    6.1680 C.3   161  ASP161      0.1709
    153  C          2.7690   53.7700    7.3890 C.2   161  ASP161      0.2293
    154  O          3.3810   53.7360    8.4450 O.2   161  ASP161     -0.2864
    155  CB         4.3280   53.3260    5.4790 C.3   161  ASP161      0.1436
    156  CG         3.5000   52.2360    4.8130 C.2   161  ASP161      0.3671
    157  OD1        3.1070   51.2850    5.5130 O.co2 161  ASP161     -0.2456
    158  OD2        3.2070   52.3670    3.5960 O.co2 161  ASP161     -0.2456
@<TRIPOS>BOND
     1     1     2    1
     2     2     5    1
     3     2     3    1
     4     5     6    1
     5     7     6    1
     6     7     8    1
     7     3     4    2
     8     8     9    2
     9     9    10    1
    10     9    11    1
    11    12    13    1
    12    32    30   ar
    13    31    30   ar
    14    30    29    1
    15    19    17    1
    16    78    79   ar
    17    78    76   ar
    18    36    35    2
    19    79    77   ar
    20    17    16    1
    21    17    18    1
    22    13    16    1
    23    13    14    1
    24    35    34    1
    25    76    74   ar
    26    29    28    1
    27    77    75   ar
    28    14    20   am
    29    14    15    2
    30    74    75   ar
    31    74    73    1
    32    20    21    1
    33    23    22    2
    34    33    34    1
    35    34    37    1
    36    92    93    1
    37    92    89    1
    38    40    41    1
    39    41    42    1
    40    41    44    1
    41    42    43    2
    42    73    70    1
    43    93    94    1
    44    28    25    1
    45    91    90    2
    46    22    21    1
    47    22    24   am
    48    89    90    1
    49    89    88    1
    50    37    38    1
    51    37    39    1
    52    90    95   am
    53    24    25    1
    54    25    26    1
    55    94    88    1
    56    88    82   am
    57    70    69    1
    58    70    71    1
    59    55    54    2
    60   116   115    1
    61   116   117    1
    62    69    62   am
    63    72    71    2
    64    71    80   am
    65    95    96    1
    66    82    83    2
    67    82    81    1
    68    26    27    2
    69    52    53    1
    70   119   117   ar
    71    80    81    1
    72   115   112    1
    73    96    97    1
    74    96    99    1
    75   117   118   ar
    76    62    61    1
    77    62    63    2
    78   101    97   am
    79   101   102    1
    80    97    98    2
    81    54    53    1
    82    54    60   am
    83    81    84    1
    84   114   113    2
    85   102   103    1
    86    61    60    1
    87    61    64    1
    88   100    99    1
    89   112   113    1
    90   112   111    1
    91    53    56    1
    92    59    58    1
    93    56    57    1
    94    64    65    1
    95    84    85    1
    96   103   105   am
    97   103   104    2
    98    57    58    1
    99   105   106    1
   100    86    85    1
   101    85    87    1
   102    65    66    1
   103   146   144    1
   104   108   107    2
   105   110   109    1
   106   106   109    1
   107   106   107    1
   108    67    66   ar
   109   158   156   ar
   110   145   144    1
   111    66    68   ar
   112   144   143    1
   113    51    49    1
   114   123   122    2
   115   150   149    2
   116   143   140    1
   117   124   121    1
   118   124   125    1
   119   156   155    1
   120   156   157   ar
   121   126   125    1
   122   126   127    1
   123   121   122    1
   124   121   120    1
   125   122   131   am
   126   140   141    1
   127   140   139    1
   128   155   152    1
   129   137   136    2
   130    49    50    1
   131    49    46    1
   132   149   148    1
   133   149   151   am
   134   141   142    2
   135   129   128    1
   136   152   151    1
   137   152   153    1
   138   127   128    2
   139   148   147    1
   140   131   132    1
   141    47    46    1
   142    47    48    2
   143   128   130    1
   144    46    45    1
   145   132   133    1
   146   132   135    1
   147   136   138   am
   148   136   135    1
   149   153   154    2
   150   133   134    2
