@<TRIPOS>MOLECULE
tmp/5wolA00.pdb
 182 176 0 0 0
SMALL
GASTEIGER

@<TRIPOS>ATOM
      1  N         16.8850   -8.0480    9.9820 N.3     7  ASN7       -0.1225
      2  CA        16.5860   -9.4110    9.5790 C.3     7  ASN7        0.1785
      3  C         15.3600   -9.8790   10.3440 C.2     7  ASN7        0.2597
      4  O         15.3360   -9.8090   11.5800 O.2     7  ASN7       -0.2718
      5  CB        17.7700  -10.3110    9.8780 C.3     7  ASN7        0.1169
      6  CG        17.6820  -11.6460    9.1610 C.2     7  ASN7        0.2627
      7  OD1       17.1770  -11.7570    8.0130 O.2     7  ASN7       -0.2716
      8  ND2       18.1800  -12.6820    9.8330 N.am    7  ASN7       -0.0877
      9  N         14.3630  -10.3800    9.6140 N.am    8  GLY8       -0.1957
     10  CA        13.0420  -10.6060   10.1830 C.3     8  GLY8        0.1869
     11  C         12.1160   -9.4240   10.0030 C.2     8  GLY8        0.2309
     12  O         11.2120   -9.2280   10.8230 O.2     8  GLY8       -0.2863
     13  N          9.5690   -8.6300    8.4350 N.3    10  ASN10      -0.1225
     14  CA         8.1180   -8.7500    8.3910 C.3    10  ASN10       0.1785
     15  C          7.5150   -9.1810    9.7170 C.2    10  ASN10       0.2598
     16  O          6.2840   -9.1940    9.8410 O.2    10  ASN10      -0.2718
     17  CB         7.6860   -9.7450    7.3010 C.3    10  ASN10       0.1169
     18  CG         8.0260   -9.2600    5.8980 C.2    10  ASN10       0.2627
     19  OD1        8.1080   -8.0570    5.6500 O.2    10  ASN10      -0.2716
     20  ND2        8.2400  -10.1970    4.9790 N.am   10  ASN10      -0.0877
     21  N          8.3400   -9.5520   10.7030 N.am   11  GLY11      -0.1942
     22  CA         7.8130   -9.9960   11.9740 C.3    11  GLY11       0.2014
     23  C          7.2630   -8.8410   12.7980 C.2    11  GLY11       0.2639
     24  O          7.4110   -7.6670   12.4680 O.2    11  GLY11      -0.2714
     25  N          6.6510   -9.2020   13.9260 N.am   12  LYS12      -0.1963
     26  CA         6.1180   -8.1950   14.8360 C.3    12  LYS12       0.1728
     27  C          7.2120   -7.2330   15.2860 C.2    12  LYS12       0.2616
     28  O          7.0480   -6.0130   15.1760 O.2    12  LYS12      -0.2715
     29  CB         5.4440   -8.8760   16.0300 C.3    12  LYS12       0.0311
     30  CG         4.2630   -9.7490   15.6310 C.3    12  LYS12       0.0038
     31  CD         3.3080  -10.0320   16.8080 C.3    12  LYS12       0.0206
     32  CE         3.8510  -11.1390   17.7210 C.3    12  LYS12       0.1093
     33  NZ         4.2330  -12.3970   16.9960 N.3    12  LYS12      -0.1314
     34  N          8.3650   -7.7610   15.7520 N.am   13  MET13      -0.1963
     35  CA         9.4400   -6.8510   16.1570 C.3    13  MET13       0.1736
     36  C         10.1060   -6.1640   14.9720 C.2    13  MET13       0.2617
     37  O         10.4170   -4.9700   15.0540 O.2    13  MET13      -0.2715
     38  CB        10.5020   -7.5540   17.0190 C.3    13  MET13       0.0427
     39  CG         9.9790   -8.0540   18.3040 C.3    13  MET13       0.0599
     40  SD         9.8800   -6.6330   19.4220 S.3    13  MET13      -0.1393
     41  CE        11.2970   -5.6130   18.9830 C.3    13  MET13       0.0692
     42  N         10.3760   -6.8840   13.8810 N.am   14  GLY14      -0.1955
     43  CA        11.0090   -6.2470   12.7330 C.3    14  GLY14       0.1869
     44  C         10.2100   -5.0680   12.2160 C.2    14  GLY14       0.2309
     45  O         10.7760   -4.0490   11.8250 O.2    14  GLY14      -0.2863
     46  N         13.9730  -11.0450    4.9630 N.3    34  GLY34      -0.1210
     47  CA        13.0660  -12.0220    5.5090 C.3    34  GLY34       0.1956
     48  C         13.5710  -13.4210    5.2570 C.2    34  GLY34       0.2612
     49  O         14.7080  -13.6190    4.8090 O.2    34  GLY34      -0.2717
     50  N         12.6950  -14.3960    5.4980 N.am   35  ARG35      -0.1965
     51  CA        13.1110  -15.7950    5.5330 C.3    35  ARG35       0.1729
     52  C         13.7700  -16.2370    4.2310 C.2    35  ARG35       0.2616
     53  O         14.7940  -16.9390    4.2540 O.2    35  ARG35      -0.2715
     54  CB        11.9010  -16.6680    5.8540 C.3    35  ARG35       0.0348
     55  CG        12.2720  -18.0420    6.3070 C.3    35  ARG35       0.0492
     56  CD        11.1140  -19.0050    6.1800 C.3    35  ARG35       0.2205
     57  NE         9.9850  -18.6070    7.0110 N.pl3  35  ARG35      -0.0865
     58  CZ         9.6040  -19.2440    8.1190 C.cat  35  ARG35       0.5346
     59  NH1       10.2610  -20.3210    8.5560 N.pl3  35  ARG35       0.1354
     60  NH2        8.5590  -18.7950    8.8030 N.pl3  35  ARG35       0.1354
     61  N         13.2200  -15.8280    3.0840 N.am   36  GLN36      -0.1977
     62  CA        13.6960  -16.3310    1.7990 C.3    36  GLN36       0.1601
     63  C         14.6700  -15.3870    1.1050 C.2    36  GLN36       0.2287
     64  O         14.9990  -15.6050   -0.0690 O.2    36  GLN36      -0.2864
     65  CB        12.5050  -16.6420    0.8890 C.3    36  GLN36       0.0394
     66  CG        11.5570  -17.6890    1.4770 C.3    36  GLN36       0.0908
     67  CD        10.1000  -17.3730    1.2180 C.2    36  GLN36       0.2608
     68  OE1        9.7160  -17.0410    0.0970 O.2    36  GLN36      -0.2717
     69  NE2        9.2800  -17.4510    2.2650 N.am   36  GLN36      -0.0878
     70  N         15.6140  -10.4040   14.5470 N.3    54  PHE54      -0.1227
     71  CA        14.4230  -10.8180   15.2980 C.3    54  PHE54       0.1736
     72  C         13.7160  -11.8900   14.4630 C.2    54  PHE54       0.2596
     73  O         12.7470  -11.5790   13.7600 O.2    54  PHE54      -0.2718
     74  CB        13.5110   -9.6590   15.5830 C.3    54  PHE54       0.0547
     75  CG        13.9790   -8.7910   16.7460 C.ar   54  PHE54      -0.0202
     76  CD1       13.7860   -9.1990   18.0570 C.ar   54  PHE54      -0.0042
     77  CD2       14.6600   -7.5960   16.5030 C.ar   54  PHE54      -0.0042
     78  CE1       14.2290   -8.4010   19.1240 C.ar   54  PHE54      -0.0003
     79  CE2       15.1190   -6.8110   17.5360 C.ar   54  PHE54      -0.0003
     80  CZ        14.8940   -7.1810   18.8520 C.ar   54  PHE54      -0.0000
     81  N         14.1790  -13.1510   14.5740 N.am   55  THR55      -0.1939
     82  CA        13.7790  -14.2110   13.6760 C.3    55  THR55       0.2028
     83  C         13.2270  -15.3670   14.5240 C.2    55  THR55       0.2643
     84  O         12.2000  -15.2010   15.1750 O.2    55  THR55      -0.2714
     85  CB        14.9140  -14.6060   12.7120 C.3    55  THR55       0.1808
     86  OG1       16.0270  -15.1830   13.4080 O.3    55  THR55      -0.2208
     87  CG2       15.3790  -13.4010   11.9180 C.3    55  THR55       0.0379
     88  N         13.8610  -16.5270   14.4920 N.am   56  THR56      -0.1937
     89  CA        13.3210  -17.7380   15.1080 C.3    56  THR56       0.2013
     90  C         14.4400  -18.4460   15.8460 C.2    56  THR56       0.2484
     91  O         15.6040  -18.3420   15.4430 O.2    56  THR56      -0.2729
     92  CB        12.7410  -18.7150   14.0620 C.3    56  THR56       0.1807
     93  OG1       13.7870  -19.1780   13.2150 O.3    56  THR56      -0.2208
     94  CG2       11.6900  -18.0170   13.1860 C.3    56  THR56       0.0379
     95  N         14.1230  -19.1950   16.9110 N.am   57  PRO57      -0.2726
     96  CA        15.1770  -19.9570   17.5990 C.3    57  PRO57       0.1402
     97  C         15.8390  -20.9830   16.7110 C.2    57  PRO57       0.2269
     98  O         17.0220  -21.2830   16.9180 O.2    57  PRO57      -0.2865
     99  CB        14.4340  -20.6050   18.7800 C.3    57  PRO57       0.0296
    100  CG        13.2530  -19.7050   19.0310 C.3    57  PRO57       0.0237
    101  CD        12.8470  -19.2060   17.6480 C.3    57  PRO57       0.0939
    102  N         16.7370  -20.5510   13.6220 N.3    59  SER59      -0.1217
    103  CA        17.6500  -19.9170   12.6810 C.3    59  SER59       0.1889
    104  C         18.6970  -19.0340   13.3450 C.2    59  SER59       0.2288
    105  O         19.6770  -18.6660   12.6760 O.2    59  SER59      -0.2866
    106  CB        16.8770  -19.0410   11.6840 C.3    59  SER59       0.2089
    107  OG        16.1040  -19.8200   10.8030 O.3    59  SER59      -0.2183
    108  N         22.1020  -17.6460   11.6210 N.3    63  ASN63      -0.1240
    109  CA        22.0620  -16.2520   11.2050 C.3    63  ASN63       0.1653
    110  C         23.2490  -15.4880   11.7790 C.2    63  ASN63       0.2266
    111  O         23.9010  -14.7130   11.0770 O.2    63  ASN63      -0.2867
    112  CB        20.7530  -15.6000   11.6710 C.3    63  ASN63       0.1155
    113  CG        19.5710  -16.0890   10.8830 C.2    63  ASN63       0.2627
    114  OD1       19.7440  -16.9240    9.9730 O.2    63  ASN63      -0.2716
    115  ND2       18.3710  -15.5990   11.2040 N.am   63  ASN63      -0.0877
    116  N         18.2320  -10.1510   19.1270 N.3    77  GLY77      -0.1210
    117  CA        17.2010  -10.1720   20.1450 C.3    77  GLY77       0.1956
    118  C         16.5100  -11.5210   20.1790 C.2    77  GLY77       0.2613
    119  O         15.8930  -11.8800   21.1760 O.2    77  GLY77      -0.2717
    120  N         16.5430  -12.2330   19.0660 N.am   78  THR78      -0.1938
    121  CA        15.9650  -13.5620   18.9830 C.3    78  THR78       0.2028
    122  C         16.3600  -14.4130   20.1860 C.2    78  THR78       0.2642
    123  O         17.5160  -14.4120   20.6160 O.2    78  THR78      -0.2714
    124  CB        16.4530  -14.2540   17.7110 C.3    78  THR78       0.1808
    125  OG1       16.3270  -13.3590   16.6120 O.3    78  THR78      -0.2208
    126  CG2       15.6070  -15.5030   17.4600 C.3    78  THR78       0.0379
    127  N         15.3940  -15.1530   20.7190 N.am   79  THR79      -0.1950
    128  CA        15.6980  -16.1240   21.7570 C.3    79  THR79       0.1897
    129  C         16.1780  -17.4320   21.1300 C.2    79  THR79       0.2313
    130  O         15.9340  -17.7110   19.9520 O.2    79  THR79      -0.2863
    131  CB        14.4670  -16.3660   22.6150 C.3    79  THR79       0.1794
    132  OG1       13.4320  -16.8940   21.7770 O.3    79  THR79      -0.2208
    133  CG2       13.9960  -15.0530   23.2250 C.3    79  THR79       0.0378
    134  N         21.0360   -9.9940   23.4170 N.3   103  ALA103     -0.1231
    135  CA        20.2550   -9.5120   24.5670 C.3   103  ALA103      0.1679
    136  C         18.9670  -10.3300   24.6690 C.2   103  ALA103      0.2434
    137  O         18.1020  -10.2210   23.7760 O.2   103  ALA103     -0.2733
    138  CB        19.9520   -8.0250   24.4220 C.3   103  ALA103      0.0304
    139  N         18.7940  -11.1720   25.6950 N.am  104  PRO104     -0.2718
    140  CA        17.4860  -11.8480   25.8870 C.3   104  PRO104      0.1535
    141  C         16.3610  -10.9020   26.1880 C.2   104  PRO104      0.2599
    142  O         15.1860  -11.3100   26.0720 O.2   104  PRO104     -0.2715
    143  CB        17.7120  -12.7660   27.0970 C.3   104  PRO104      0.0310
    144  CG        19.1790  -12.7770   27.3290 C.3   104  PRO104      0.0237
    145  CD        19.7790  -11.5560   26.7210 C.3   104  PRO104      0.0939
    146  N         16.6780   -9.7010   26.6740 N.am  105  ASN105     -0.1959
    147  CA        15.6700   -8.6920   26.9650 C.3   105  ASN105      0.1819
    148  C         16.2540   -7.3470   26.5840 C.2   105  ASN105      0.2621
    149  O         17.2320   -6.9050   27.2080 O.2   105  ASN105     -0.2715
    150  CB        15.2520   -8.6960   28.4370 C.3   105  ASN105      0.1195
    151  CG        13.9360   -7.9680   28.6300 C.2   105  ASN105      0.2630
    152  OD1       13.6550   -6.9690   27.9320 O.2   105  ASN105     -0.2716
    153  ND2       13.0950   -8.4690   29.5340 N.am  105  ASN105     -0.0877
    154  N         15.6660   -6.7120   25.5590 N.am  106  PHE106     -0.1974
    155  CA        16.1690   -5.4470   25.0450 C.3   106  PHE106      0.1639
    156  C         15.4760   -4.2510   25.7150 C.2   106  PHE106      0.2290
    157  O         15.7950   -3.1090   25.3750 O.2   106  PHE106     -0.2864
    158  CB        16.0050   -5.3770   23.5020 C.3   106  PHE106      0.0560
    159  CG        17.2550   -5.7160   22.7420 C.ar  106  PHE106     -0.0200
    160  CD1       18.3870   -4.9240   22.8480 C.ar  106  PHE106     -0.0042
    161  CD2       17.2940   -6.8110   21.8800 C.ar  106  PHE106     -0.0042
    162  CE1       19.5430   -5.2150   22.1660 C.ar  106  PHE106     -0.0003
    163  CE2       18.4670   -7.1170   21.1640 C.ar  106  PHE106     -0.0003
    164  CZ        19.6010   -6.3170   21.3140 C.ar  106  PHE106     -0.0000
    165  N          5.6080   -2.8390   22.0100 N.3   202  ARG202     -0.1245
    166  CA         6.9510   -3.2340   21.5960 C.3   202  ARG202      0.1563
    167  C          7.9190   -2.0640   21.4430 C.2   202  ARG202      0.2260
    168  O          9.1240   -2.3050   21.2720 O.2   202  ARG202     -0.2867
    169  CB         6.9030   -4.0190   20.2720 C.3   202  ARG202      0.0307
    170  CG         6.2610   -5.3700   20.4690 C.3   202  ARG202      0.0489
    171  CD         6.1390   -6.1890   19.1710 C.3   202  ARG202      0.2205
    172  NE         5.5690   -7.4880   19.5210 N.pl3 202  ARG202     -0.0865
    173  CZ         4.2680   -7.7260   19.7030 C.cat 202  ARG202      0.5346
    174  NH1        3.3720   -6.7640   19.5310 N.pl3 202  ARG202      0.1354
    175  NH2        3.8610   -8.9410   20.0560 N.pl3 202  ARG202      0.1354
    176  N         11.3460   -1.9030   23.7200 N.3   205  THR205     -0.1218
    177  CA        12.6900   -2.4110   23.4840 C.3   205  THR205      0.1862
    178  C         13.5330   -1.5000   22.6000 C.2   205  THR205      0.2287
    179  O         14.7200   -1.7700   22.4200 O.2   205  THR205     -0.2866
    180  CB        12.6320   -3.7790   22.8220 C.3   205  THR205      0.1770
    181  OG1       11.9030   -3.6300   21.6120 O.3   205  THR205     -0.2211
    182  CG2       11.9260   -4.7810   23.7250 C.3   205  THR205      0.0375
@<TRIPOS>BOND
     1    64    63    2
     2    68    67    2
     3    65    66    1
     4    65    62    1
     5    63    62    1
     6    67    66    1
     7    67    69   am
     8    62    61    1
     9    61    52   am
    10    52    53    2
    11    52    51    1
    12    49    48    2
    13    46    47    1
    14    20    18   am
    15    48    50   am
    16    48    47    1
    17    50    51    1
    18    51    54    1
    19    19    18    2
    20    54    55    1
    21    18    17    1
    22    56    55    1
    23    56    57    1
    24    57    58    2
    25    17    14    1
    26     7     6    2
    27    58    59    1
    28    58    60    1
    29    14    13    1
    30    14    15    1
    31     6     8   am
    32     6     5    1
    33     2     5    1
    34     2     1    1
    35     2     3    1
    36     9    10    1
    37     9     3   am
    38    15    16    2
    39    15    21   am
    40   114   113    2
    41    11    10    1
    42    11    12    2
    43     3     4    2
    44    21    22    1
    45   107   106    1
    46   113   115   am
    47   113   112    1
    48   111   110    2
    49   109   108    1
    50   109   112    1
    51   109   110    1
    52   106   103    1
    53    45    44    2
    54    87    85    1
    55    22    23    1
    56    44    43    1
    57    24    23    2
    58   105   104    2
    59   103   104    1
    60   103   102    1
    61    85    86    1
    62    85    82    1
    63    43    42    1
    64    23    25   am
    65    94    92    1
    66    93    92    1
    67    82    83    1
    68    82    81    1
    69    73    72    2
    70    42    36   am
    71    25    26    1
    72    92    89    1
    73    72    81   am
    74    72    71    1
    75    88    83   am
    76    88    89    1
    77    83    84    2
    78    70    71    1
    79    26    27    1
    80    26    29    1
    81    36    37    2
    82    36    35    1
    83    89    90    1
    84    28    27    2
    85    27    34   am
    86    71    74    1
    87    91    90    2
    88    74    75    1
    89    30    29    1
    90    30    31    1
    91    34    35    1
    92    90    95   am
    93    35    38    1
    94    77    75   ar
    95    77    79   ar
    96   125   124    1
    97    97    98    2
    98    97    96    1
    99    75    76   ar
   100    31    32    1
   101    95    96    1
   102    95   101    1
   103    33    32    1
   104    38    39    1
   105   126   124    1
   106    79    80   ar
   107    96    99    1
   108   101   100    1
   109   124   121    1
   110    76    78   ar
   111    39    40    1
   112    99   100    1
   113    80    78   ar
   114   121   120    1
   115   121   122    1
   116    41    40    1
   117   120   118   am
   118   116   117    1
   119   171   172    1
   120   171   170    1
   121   172   173    2
   122   174   173    1
   123   173   175    1
   124   130   129    2
   125   117   118    1
   126   118   119    2
   127   122   123    2
   128   122   127   am
   129   169   170    1
   130   169   166    1
   131   127   128    1
   132   129   128    1
   133   163   164   ar
   134   163   161   ar
   135   168   167    2
   136   164   162   ar
   137   167   166    1
   138   166   165    1
   139   181   180    1
   140   128   131    1
   141   132   131    1
   142   161   159   ar
   143   162   160   ar
   144   179   178    2
   145   178   177    1
   146   131   133    1
   147   159   160   ar
   148   159   158    1
   149   180   177    1
   150   180   182    1
   151   134   135    1
   152   177   176    1
   153   158   155    1
   154   137   136    2
   155   138   135    1
   156   135   136    1
   157   136   139   am
   158   155   154    1
   159   155   156    1
   160   157   156    2
   161   154   148   am
   162   139   140    1
   163   139   145    1
   164   140   141    1
   165   140   143    1
   166   142   141    2
   167   141   146   am
   168   148   147    1
   169   148   149    2
   170   146   147    1
   171   145   144    1
   172   147   150    1
   173   143   144    1
   174   152   151    2
   175   150   151    1
   176   151   153   am
