@<TRIPOS>MOLECULE
tmp/5wolA01.pdb
 111 106 0 0 0
SMALL
GASTEIGER

@<TRIPOS>ATOM
      1  N          6.6510   -9.2020   13.9260 N.3    12  LYS12      -0.1231
      2  CA         6.1180   -8.1950   14.8360 C.3    12  LYS12       0.1693
      3  C          7.2120   -7.2330   15.2860 C.2    12  LYS12       0.2591
      4  O          7.0480   -6.0130   15.1760 O.2    12  LYS12      -0.2718
      5  CB         5.4440   -8.8760   16.0300 C.3    12  LYS12       0.0285
      6  CG         4.2630   -9.7490   15.6310 C.3    12  LYS12       0.0035
      7  CD         3.3080  -10.0320   16.8080 C.3    12  LYS12       0.0206
      8  CE         3.8510  -11.1390   17.7210 C.3    12  LYS12       0.1093
      9  NZ         4.2330  -12.3970   16.9960 N.3    12  LYS12      -0.1314
     10  N          8.3650   -7.7610   15.7520 N.am   13  MET13      -0.1979
     11  CA         9.4400   -6.8510   16.1570 C.3    13  MET13       0.1605
     12  C         10.1060   -6.1640   14.9720 C.2    13  MET13       0.2287
     13  O         10.4170   -4.9700   15.0540 O.2    13  MET13      -0.2864
     14  CB        10.5020   -7.5540   17.0190 C.3    13  MET13       0.0413
     15  CG         9.9790   -8.0540   18.3040 C.3    13  MET13       0.0598
     16  SD         9.8800   -6.6330   19.4220 S.3    13  MET13      -0.1393
     17  CE        11.2970   -5.6130   18.9830 C.3    13  MET13       0.0692
     18  N         16.6780   -9.7010   26.6740 N.3   105  ASN105     -0.1240
     19  CA        15.6700   -8.6920   26.9650 C.3   105  ASN105      0.1653
     20  C         16.2540   -7.3470   26.5840 C.2   105  ASN105      0.2266
     21  O         17.2320   -6.9050   27.2080 O.2   105  ASN105     -0.2867
     22  CB        15.2520   -8.6960   28.4370 C.3   105  ASN105      0.1155
     23  CG        13.9360   -7.9680   28.6300 C.2   105  ASN105      0.2627
     24  OD1       13.6550   -6.9690   27.9320 O.2   105  ASN105     -0.2716
     25  ND2       13.0950   -8.4690   29.5340 N.am  105  ASN105     -0.0877
     26  N         14.5820   -4.4910   26.6790 N.3   107  SER107     -0.1217
     27  CA        13.9630   -3.3830   27.4420 C.3   107  SER107      0.1889
     28  C         14.9230   -2.8660   28.5240 C.2   107  SER107      0.2288
     29  O         15.2610   -3.6020   29.4570 O.2   107  SER107     -0.2866
     30  CB        12.6430   -3.8550   28.0820 C.3   107  SER107      0.2089
     31  OG        12.2790   -2.9200   29.1240 O.3   107  SER107     -0.2183
     32  N          0.9600  -10.6200   31.8230 N.3   133  HIS133     -0.1226
     33  CA         1.1650  -10.5300   30.3940 C.3   133  HIS133      0.1752
     34  C         -0.1650  -10.7060   29.6950 C.2   133  HIS133      0.2596
     35  O         -1.1460  -11.1800   30.2820 O.2   133  HIS133     -0.2718
     36  CB         2.1500  -11.5940   29.8710 C.3   133  HIS133      0.0759
     37  CG         3.5790  -11.2790   30.1640 C.ar  133  HIS133      0.0818
     38  ND1        4.1430  -11.5280   31.3900 N.ar  133  HIS133     -0.2268
     39  CD2        4.5530  -10.7330   29.3960 C.ar  133  HIS133      0.1154
     40  CE1        5.4100  -11.1430   31.3710 C.ar  133  HIS133      0.1986
     41  NE2        5.6880  -10.6660   30.1750 N.ar  133  HIS133     -0.2212
     42  N         -0.2080  -10.2570   28.4450 N.am  134  HIS134     -0.1975
     43  CA        -1.3700  -10.5670   27.6230 C.3   134  HIS134      0.1656
     44  C         -1.4940  -12.0800   27.4690 C.2   134  HIS134      0.2291
     45  O         -0.5380  -12.8300   27.6130 O.2   134  HIS134     -0.2864
     46  CB        -1.2250   -9.9080   26.2260 C.3   134  HIS134      0.0771
     47  CG         0.0650  -10.2180   25.5270 C.ar  134  HIS134      0.0820
     48  ND1        0.4280   -9.6140   24.3420 N.ar  134  HIS134     -0.2267
     49  CD2        1.0730  -11.0690   25.8380 C.ar  134  HIS134      0.1154
     50  CE1        1.6060  -10.0760   23.9570 C.ar  134  HIS134      0.1986
     51  NE2        2.0180  -10.9620   24.8460 N.ar  134  HIS134     -0.2212
     52  N          0.8990  -14.6930   25.7260 N.3   137  LYS137     -0.1245
     53  CA         2.1220  -15.1640   26.3800 C.3   137  LYS137      0.1561
     54  C          1.8050  -16.4940   27.0240 C.2   137  LYS137      0.2260
     55  O          1.2740  -16.5520   28.1330 O.2   137  LYS137     -0.2867
     56  CB         2.5830  -14.1750   27.4360 C.3   137  LYS137      0.0271
     57  CG         3.7570  -14.7030   28.2410 C.3   137  LYS137      0.0035
     58  CD         4.9870  -14.3950   27.4880 C.3   137  LYS137      0.0206
     59  CE         6.1960  -14.8350   28.2330 C.3   137  LYS137      0.1093
     60  NZ         7.3480  -14.5780   27.3360 N.3   137  LYS137     -0.1314
     61  N          0.2850   -5.9040   28.4910 N.3   179  PHE179     -0.1227
     62  CA         1.3200   -6.2770   27.5300 C.3   179  PHE179      0.1736
     63  C          2.3840   -7.0540   28.2740 C.2   179  PHE179      0.2596
     64  O          2.3890   -8.3020   28.2370 O.2   179  PHE179     -0.2718
     65  CB         1.8780   -5.0250   26.8110 C.3   179  PHE179      0.0547
     66  CG         2.8450   -5.3740   25.7210 C.ar  179  PHE179     -0.0202
     67  CD1        2.4000   -5.9890   24.5590 C.ar  179  PHE179     -0.0042
     68  CD2        4.1980   -5.1400   25.8790 C.ar  179  PHE179     -0.0042
     69  CE1        3.2960   -6.3490   23.5660 C.ar  179  PHE179     -0.0003
     70  CE2        5.1150   -5.5050   24.8910 C.ar  179  PHE179     -0.0003
     71  CZ         4.6610   -6.1120   23.7330 C.ar  179  PHE179     -0.0000
     72  N          3.2890   -6.3730   28.9910 N.am  180  SER180     -0.1952
     73  CA         4.3180   -7.1120   29.7020 C.3   180  SER180      0.1924
     74  C          4.6780   -6.3440   30.9650 C.2   180  SER180      0.2314
     75  O          5.1700   -5.2040   30.8880 O.2   180  SER180     -0.2863
     76  CB         5.5440   -7.2990   28.8170 C.3   180  SER180      0.2116
     77  OG         6.6480   -7.7450   29.5780 O.3   180  SER180     -0.2180
     78  N          8.2030   -2.8380   36.5130 N.3   197  HIS197     -0.1241
     79  CA         8.3830   -2.4490   35.1120 C.3   197  HIS197      0.1621
     80  C          7.0580   -2.6270   34.3850 C.2   197  HIS197      0.2264
     81  O          6.4500   -3.7020   34.4900 O.2   197  HIS197     -0.2867
     82  CB         9.4690   -3.3350   34.4920 C.3   197  HIS197      0.0745
     83  CG         9.5560   -3.1570   33.0190 C.ar  197  HIS197      0.0817
     84  ND1        9.4010   -4.2010   32.1350 N.ar  197  HIS197     -0.2268
     85  CD2        9.7430   -2.0470   32.2820 C.ar  197  HIS197      0.1154
     86  CE1        9.5310   -3.7460   30.9040 C.ar  197  HIS197      0.1986
     87  NE2        9.7410   -2.4470   30.9580 N.ar  197  HIS197     -0.2212
     88  N          5.6080   -2.8390   22.0100 N.3   202  ARG202     -0.1245
     89  CA         6.9510   -3.2340   21.5960 C.3   202  ARG202      0.1563
     90  C          7.9190   -2.0640   21.4430 C.2   202  ARG202      0.2260
     91  O          9.1240   -2.3050   21.2720 O.2   202  ARG202     -0.2867
     92  CB         6.9030   -4.0190   20.2720 C.3   202  ARG202      0.0307
     93  CG         6.2610   -5.3700   20.4690 C.3   202  ARG202      0.0489
     94  CD         6.1390   -6.1890   19.1710 C.3   202  ARG202      0.2205
     95  NE         5.5690   -7.4880   19.5210 N.pl3 202  ARG202     -0.0865
     96  CZ         4.2680   -7.7260   19.7030 C.cat 202  ARG202      0.5346
     97  NH1        3.3720   -6.7640   19.5310 N.pl3 202  ARG202      0.1354
     98  NH2        3.8610   -8.9410   20.0560 N.pl3 202  ARG202      0.1354
     99  N          8.9140   -0.5820   23.8040 N.3   204  CYS204     -0.1221
    100  CA         9.6980   -0.6390   25.0330 C.3   204  CYS204      0.1808
    101  C         11.0970   -1.1740   24.8080 C.2   204  CYS204      0.2601
    102  O         11.9860   -0.8970   25.6210 O.2   204  CYS204     -0.2717
    103  CB         9.0020   -1.4710   26.0960 C.3   204  CYS204      0.0970
    104  SG         8.9850   -3.2040   25.8940 S.3   204  CYS204     -0.0800
    105  N         11.3460   -1.9030   23.7200 N.am  205  THR205     -0.1953
    106  CA        12.6900   -2.4110   23.4840 C.3   205  THR205      0.1897
    107  C         13.5330   -1.5000   22.6000 C.2   205  THR205      0.2313
    108  O         14.7200   -1.7700   22.4200 O.2   205  THR205     -0.2863
    109  CB        12.6320   -3.7790   22.8220 C.3   205  THR205      0.1794
    110  OG1       11.9030   -3.6300   21.6120 O.3   205  THR205     -0.2208
    111  CG2       11.9260   -4.7810   23.7250 C.3   205  THR205      0.0378
@<TRIPOS>BOND
     1     1     2    1
     2     2     3    1
     3     2     5    1
     4    12    13    2
     5    12    11    1
     6     4     3    2
     7     3    10   am
     8     6     5    1
     9     6     7    1
    10    10    11    1
    11    11    14    1
    12     7     8    1
    13     9     8    1
    14    14    15    1
    15    15    16    1
    16    17    16    1
    17    94    95    1
    18    94    93    1
    19    95    96    2
    20    97    96    1
    21    96    98    1
    22    92    93    1
    23    92    89    1
    24    91    90    2
    25    90    89    1
    26    89    88    1
    27   110   109    1
    28   108   107    2
    29   107   106    1
    30   109   106    1
    31   109   111    1
    32   106   105    1
    33    69    71   ar
    34    69    67   ar
    35   105   101   am
    36    71    70   ar
    37    99   100    1
    38    50    48   ar
    39    50    51   ar
    40    48    47   ar
    41    67    66   ar
    42   101   100    1
    43   101   102    2
    44    51    49   ar
    45    70    68   ar
    46   100   103    1
    47    47    49   ar
    48    47    46    1
    49    66    68   ar
    50    66    65    1
    51    52    53    1
    52   104   103    1
    53    46    43    1
    54    53    54    1
    55    53    56    1
    56    20    19    1
    57    20    21    2
    58    18    19    1
    59    26    27    1
    60    65    62    1
    61    19    22    1
    62    54    55    2
    63    60    59    1
    64    56    57    1
    65    27    30    1
    66    27    28    1
    67    44    45    2
    68    44    43    1
    69    58    59    1
    70    58    57    1
    71    62    63    1
    72    62    61    1
    73    43    42    1
    74    24    23    2
    75    30    31    1
    76    64    63    2
    77    63    72   am
    78    22    23    1
    79    42    34   am
    80    28    29    2
    81    23    25   am
    82    76    77    1
    83    76    73    1
    84    72    73    1
    85    39    37   ar
    86    39    41   ar
    87    34    35    2
    88    34    33    1
    89    73    74    1
    90    36    37    1
    91    36    33    1
    92    37    38   ar
    93    41    40   ar
    94    33    32    1
    95    75    74    2
    96    86    87   ar
    97    86    84   ar
    98    87    85   ar
    99    40    38   ar
   100    84    83   ar
   101    85    83   ar
   102    83    82    1
   103    80    81    2
   104    80    79    1
   105    82    79    1
   106    79    78    1
