@<TRIPOS>MOLECULE
tmp/5wooA00.pdb
 208 196 0 0 0
SMALL
GASTEIGER

@<TRIPOS>ATOM
      1  N          5.3470    3.6230    8.7360 N.3    28  LEU28      -0.1245
      2  CA         4.5510    4.3850    7.7890 C.3    28  LEU28       0.1561
      3  C          5.4550    4.8260    6.6340 C.2    28  LEU28       0.2260
      4  O          6.6750    4.6840    6.6770 O.2    28  LEU28      -0.2867
      5  CB         3.8820    5.5840    8.4840 C.3    28  LEU28       0.0270
      6  CG         2.6950    5.2420    9.4080 C.3    28  LEU28       0.0019
      7  CD1        3.1510    4.8320   10.8330 C.3    28  LEU28       0.0001
      8  CD2        1.7160    6.4260    9.4720 C.3    28  LEU28       0.0001
      9  N          1.0430   10.3900    2.4490 N.3    62  THR62      -0.1203
     10  CA         1.5490    9.4330    3.4150 C.3    62  THR62       0.1994
     11  C          0.6250    8.2280    3.4610 C.2    62  THR62       0.2619
     12  O         -0.5230    8.2810    3.0110 O.2    62  THR62      -0.2717
     13  CB         1.6900   10.0450    4.8200 C.3    62  THR62       0.1784
     14  OG1        0.4040   10.4130    5.3170 O.3    62  THR62      -0.2211
     15  CG2        2.6050   11.2920    4.8030 C.3    62  THR62       0.0376
     16  N          1.1540    7.1310    4.0010 N.am   63  SER63      -0.1937
     17  CA         0.3940    5.8870    4.1330 C.3    63  SER63       0.2055
     18  C          0.6860    5.2490    5.4820 C.2    63  SER63       0.2642
     19  O          1.8490    5.1150    5.8760 O.2    63  SER63      -0.2714
     20  CB         0.7400    4.8910    3.0190 C.3    63  SER63       0.2130
     21  OG         0.4290    5.4290    1.7420 O.3    63  SER63      -0.2179
     22  N         -0.3720    4.8470    6.1690 N.am   64  GLN64      -0.1976
     23  CA        -0.2950    4.0510    7.3860 C.3    64  GLN64       0.1601
     24  C          0.3930    2.7280    7.0740 C.2    64  GLN64       0.2287
     25  O          0.5460    2.3750    5.8980 O.2    64  GLN64      -0.2864
     26  CB        -1.7030    3.7980    7.9190 C.3    64  GLN64       0.0394
     27  CG        -2.5000    2.9120    6.9690 C.3    64  GLN64       0.0908
     28  CD        -3.8700    2.5720    7.4930 C.2    64  GLN64       0.2608
     29  OE1       -4.1210    1.4500    7.9210 O.2    64  GLN64      -0.2717
     30  NE2       -4.7630    3.5360    7.4660 N.am   64  GLN64      -0.0878
     31  N         -0.2820    5.7810   16.6650 N.3    90  LEU90      -0.1245
     32  CA        -0.6810    7.1370   16.2890 C.3    90  LEU90       0.1561
     33  C         -2.1690    7.3610   16.5300 C.2    90  LEU90       0.2260
     34  O         -2.9800    6.4410   16.4010 O.2    90  LEU90      -0.2867
     35  CB        -0.3630    7.3170   14.8040 C.3    90  LEU90       0.0270
     36  CG        -0.5310    8.6350   14.0820 C.3    90  LEU90       0.0019
     37  CD1        0.4010    9.6530   14.7060 C.3    90  LEU90       0.0001
     38  CD2       -0.1690    8.4050   12.6270 C.3    90  LEU90       0.0001
     39  N         -6.3000   10.8980   13.3540 N.3    94  ILE94      -0.1231
     40  CA        -5.5180   11.4000   12.2330 C.3    94  ILE94       0.1692
     41  C         -5.0010   10.2910   11.3340 C.2    94  ILE94       0.2593
     42  O         -4.4110   10.5800   10.2930 O.2    94  ILE94      -0.2718
     43  CB        -4.3450   12.2820   12.7120 C.3    94  ILE94       0.0266
     44  CG1       -3.2610   11.4520   13.4300 C.3    94  ILE94       0.0019
     45  CG2       -4.8610   13.4140   13.5790 C.3    94  ILE94       0.0020
     46  CD1       -2.1440   12.3260   14.0890 C.3    94  ILE94       0.0001
     47  N         -5.2230    9.0260   11.6820 N.am   95  SER95      -0.1938
     48  CA        -4.6670    7.9600   10.8690 C.3    95  SER95       0.2055
     49  C         -5.4470    6.6790   11.1280 C.2    95  SER95       0.2643
     50  O         -5.9520    6.4650   12.2320 O.2    95  SER95      -0.2714
     51  CB        -3.1870    7.7530   11.1960 C.3    95  SER95       0.2130
     52  OG        -2.6490    6.6270   10.5320 O.3    95  SER95      -0.2179
     53  N         -5.4920    5.8170   10.1090 N.am   96  GLY96      -0.1954
     54  CA        -6.0400    4.4720   10.2320 C.3    96  GLY96       0.1869
     55  C         -5.0980    3.4360   10.8200 C.2    96  GLY96       0.2309
     56  O         -5.4820    2.2700   10.9280 O.2    96  GLY96      -0.2863
     57  N         -2.3180   10.8230   20.0940 N.3   120  LEU120     -0.1231
     58  CA        -1.3510   11.8690   19.7530 C.3   120  LEU120      0.1693
     59  C         -0.3520   11.3350   18.7380 C.2   120  LEU120      0.2592
     60  O         -0.6990   10.4710   17.9230 O.2   120  LEU120     -0.2718
     61  CB        -0.6750   12.4100   21.0180 C.3   120  LEU120      0.0284
     62  CG        -0.9500   13.9210   20.9600 C.3   120  LEU120      0.0019
     63  CD1       -1.0450   14.5440   22.3220 C.3   120  LEU120      0.0001
     64  CD2        0.1230   14.6110   20.0950 C.3   120  LEU120      0.0001
     65  N          0.8830   11.8260   18.7730 N.am  121  ALA121     -0.1966
     66  CA         1.8570   11.4890   17.7440 C.3   121  ALA121      0.1728
     67  C          3.2500   11.9040   18.2170 C.2   121  ALA121      0.2616
     68  O          3.4090   12.5580   19.2530 O.2   121  ALA121     -0.2715
     69  CB         1.4960   12.1680   16.4150 C.3   121  ALA121      0.0334
     70  N          4.2700   11.4730   17.4630 N.am  122  ALA122     -0.1977
     71  CA         5.6510   11.8700   17.7380 C.3   122  ALA122      0.1597
     72  C          6.0600   11.3890   19.1340 C.2   122  ALA122      0.2287
     73  O          5.5190   10.3970   19.6390 O.2   122  ALA122     -0.2864
     74  CB         5.8180   13.4060   17.5560 C.3   122  ALA122      0.0319
     75  N          5.3950   12.2770   22.0270 N.3   124  ILE124     -0.1245
     76  CA         4.3250   12.1040   23.0100 C.3   124  ILE124      0.1561
     77  C          3.7220   10.7090   22.8960 C.2   124  ILE124      0.2260
     78  O          3.5200   10.0310   23.9060 O.2   124  ILE124     -0.2867
     79  CB         3.2430   13.1880   22.8800 C.3   124  ILE124      0.0252
     80  CG1        3.8710   14.5740   23.0380 C.3   124  ILE124      0.0019
     81  CG2        2.2080   12.9870   23.9770 C.3   124  ILE124      0.0019
     82  CD1        4.5960   14.7480   24.3680 C.3   124  ILE124      0.0001
     83  N         -0.7300   18.3630   23.4930 N.3   158  ALA158     -0.1231
     84  CA         0.2910   19.1210   22.7790 C.3   158  ALA158      0.1694
     85  C         -0.3490   20.3030   22.0710 C.2   158  ALA158      0.2592
     86  O         -1.4860   20.2240   21.6000 O.2   158  ALA158     -0.2718
     87  CB         1.0370   18.2530   21.7580 C.3   158  ALA158      0.0304
     88  N          0.4100   21.3910   21.9930 N.am  159  TYR159     -0.1962
     89  CA         0.1060   22.5350   21.1510 C.3   159  TYR159      0.1771
     90  C          1.1780   22.6180   20.0700 C.2   159  TYR159      0.2619
     91  O          2.2750   22.0810   20.2240 O.2   159  TYR159     -0.2715
     92  CB         0.0600   23.8250   21.9890 C.3   159  TYR159      0.0574
     93  CG        -1.1250   23.8910   22.9380 C.ar  159  TYR159     -0.0198
     94  CD1       -1.2270   23.0230   24.0150 C.ar  159  TYR159     -0.0009
     95  CD2       -2.1410   24.8320   22.7610 C.ar  159  TYR159     -0.0009
     96  CE1       -2.3110   23.0620   24.8720 C.ar  159  TYR159      0.0417
     97  CE2       -3.2280   24.8810   23.6270 C.ar  159  TYR159      0.0417
     98  CZ        -3.3050   23.9930   24.6800 C.ar  159  TYR159      0.1957
     99  OH        -4.3790   24.0190   25.5470 O.3   159  TYR159     -0.2866
    100  N          0.8550   23.2660   18.9510 N.am  160  LEU160     -0.1977
    101  CA         1.8410   23.3400   17.8830 C.3   160  LEU160      0.1596
    102  C          1.5550   24.5390   17.0000 C.2   160  LEU160      0.2287
    103  O          0.4430   25.0780   16.9870 O.2   160  LEU160     -0.2864
    104  CB         1.8660   22.0670   17.0340 C.3   160  LEU160      0.0297
    105  CG         0.5510   21.7320   16.3300 C.3   160  LEU160      0.0022
    106  CD1        0.7920   21.1000   14.9600 C.3   160  LEU160      0.0001
    107  CD2       -0.2800   20.8030   17.2160 C.3   160  LEU160      0.0001
    108  N         -1.7570   20.8100    6.1450 N.3   168  LEU168     -0.1245
    109  CA        -2.8000   20.1880    6.9640 C.3   168  LEU168      0.1561
    110  C         -4.1540   20.2320    6.2620 C.2   168  LEU168      0.2260
    111  O         -4.9290   19.2710    6.3380 O.2   168  LEU168     -0.2867
    112  CB        -2.8840   20.8780    8.3270 C.3   168  LEU168      0.0270
    113  CG        -1.8210   20.5080    9.3680 C.3   168  LEU168      0.0019
    114  CD1       -1.8480   21.5180   10.5140 C.3   168  LEU168      0.0001
    115  CD2       -2.0410   19.0730    9.8780 C.3   168  LEU168      0.0001
    116  N         -6.1770   16.9940    7.8160 N.3   173  ARG173     -0.1245
    117  CA        -5.8320   16.7110    9.2050 C.3   173  ARG173      0.1563
    118  C         -5.9920   17.9110   10.1260 C.2   173  ARG173      0.2260
    119  O         -5.6090   17.8270   11.2990 O.2   173  ARG173     -0.2867
    120  CB        -4.4000   16.1770    9.3170 C.3   173  ARG173      0.0307
    121  CG        -4.3250   14.6530    9.4260 C.3   173  ARG173      0.0489
    122  CD        -4.8660   14.0070    8.1670 C.3   173  ARG173      0.2205
    123  NE        -4.6650   12.5560    8.2080 N.pl3 173  ARG173     -0.0865
    124  CZ        -4.7280   11.7690    7.1430 C.cat 173  ARG173      0.5346
    125  NH1       -4.9950   12.2860    5.9540 N.pl3 173  ARG173      0.1354
    126  NH2       -4.5090   10.4700    7.2680 N.pl3 173  ARG173      0.1354
    127  N         -4.0000   19.5330   20.0720 N.3   193  PHE193     -0.1241
    128  CA        -4.7190   18.2740   19.9930 C.3   193  PHE193      0.1605
    129  C         -5.8790   18.2800   20.9670 C.2   193  PHE193      0.2264
    130  O         -5.7620   18.7640   22.0950 O.2   193  PHE193     -0.2867
    131  CB        -3.8110   17.0870   20.3140 C.3   193  PHE193      0.0534
    132  CG        -3.1240   16.5250   19.1210 C.ar  193  PHE193     -0.0203
    133  CD1       -2.0200   17.1740   18.5830 C.ar  193  PHE193     -0.0042
    134  CD2       -3.5660   15.3410   18.5420 C.ar  193  PHE193     -0.0042
    135  CE1       -1.3650   16.6470   17.4790 C.ar  193  PHE193     -0.0003
    136  CE2       -2.9250   14.8080   17.4430 C.ar  193  PHE193     -0.0003
    137  CZ        -1.8240   15.4590   16.9020 C.ar  193  PHE193     -0.0000
    138  N         -6.6940   17.5040   15.5540 N.3   198  ILE198     -0.1245
    139  CA        -5.9760   18.7770   15.5660 C.3   198  ILE198      0.1561
    140  C         -6.9770   19.8920   15.2870 C.2   198  ILE198      0.2260
    141  O         -7.6540   19.8780   14.2510 O.2   198  ILE198     -0.2867
    142  CB        -4.8410   18.7800   14.5360 C.3   198  ILE198      0.0252
    143  CG1       -3.8380   17.6790   14.8780 C.3   198  ILE198      0.0019
    144  CG2       -4.1640   20.1670   14.4790 C.3   198  ILE198      0.0019
    145  CD1       -2.7250   17.5160   13.8440 C.3   198  ILE198      0.0001
    146  N          9.1050   19.4980   20.2350 N.3   233  ILE233     -0.1245
    147  CA         9.1160   18.6130   19.0800 C.3   233  ILE233      0.1561
    148  C          9.3120   19.5080   17.8660 C.2   233  ILE233      0.2260
    149  O          8.3920   20.2080   17.4480 O.2   233  ILE233     -0.2867
    150  CB         7.8380   17.7800   18.9770 C.3   233  ILE233      0.0252
    151  CG1        7.6280   17.0060   20.2860 C.3   233  ILE233      0.0019
    152  CG2        7.9270   16.8230   17.8000 C.3   233  ILE233      0.0019
    153  CD1        6.4230   16.0750   20.2660 C.3   233  ILE233      0.0001
    154  N         10.2570   15.9590   14.5620 N.3   263  PHE263     -0.1241
    155  CA         9.3040   15.2640   13.7010 C.3   263  PHE263      0.1605
    156  C         10.0300   14.4780   12.6160 C.2   263  PHE263      0.2264
    157  O         11.0090   14.9540   12.0400 O.2   263  PHE263     -0.2867
    158  CB         8.3680   16.2610   13.0030 C.3   263  PHE263      0.0534
    159  CG         7.5440   17.0830   13.9300 C.ar  263  PHE263     -0.0203
    160  CD1        6.5930   16.4870   14.7380 C.ar  263  PHE263     -0.0042
    161  CD2        7.6830   18.4660   13.9600 C.ar  263  PHE263     -0.0042
    162  CE1        5.8100   17.2490   15.5820 C.ar  263  PHE263     -0.0003
    163  CE2        6.9160   19.2290   14.7970 C.ar  263  PHE263     -0.0003
    164  CZ         5.9710   18.6210   15.6160 C.ar  263  PHE263     -0.0000
    165  N          6.7840   11.5760    7.9400 N.3   266  VAL266     -0.1231
    166  CA         5.3390   11.4570    7.7810 C.3   266  VAL266      0.1692
    167  C          4.6160   12.6300    8.4320 C.2   266  VAL266      0.2591
    168  O          3.7060   13.2190    7.8390 O.2   266  VAL266     -0.2718
    169  CB         4.8490   10.1030    8.3260 C.3   266  VAL266      0.0266
    170  CG1        3.3330   10.1320    8.5280 C.3   266  VAL266      0.0020
    171  CG2        5.2580    8.9830    7.3610 C.3   266  VAL266      0.0020
    172  N          5.0150   13.0100    9.6480 N.am  267  VAL267     -0.1980
    173  CA         4.3810   14.1690   10.2810 C.3   267  VAL267      0.1595
    174  C          4.7620   15.4570    9.5570 C.2   267  VAL267      0.2287
    175  O          3.9310   16.3630    9.3930 O.2   267  VAL267     -0.2864
    176  CB         4.7440   14.2210   11.7760 C.3   267  VAL267      0.0276
    177  CG1        4.4200   15.6020   12.3690 C.3   267  VAL267      0.0022
    178  CG2        4.0030   13.1030   12.5290 C.3   267  VAL267      0.0022
    179  N          2.5650   16.4030    6.6350 N.3   270  HIS270     -0.1226
    180  CA         1.2750   16.9860    6.9700 C.3   270  HIS270      0.1752
    181  C          1.3950   18.3840    7.5520 C.2   270  HIS270      0.2595
    182  O          0.4960   19.2050    7.3470 O.2   270  HIS270     -0.2718
    183  CB         0.5200   16.0780    7.9530 C.3   270  HIS270      0.0759
    184  CG         0.0560   14.7900    7.3410 C.ar  270  HIS270      0.0818
    185  ND1       -1.2160   14.6250    6.8360 N.ar  270  HIS270     -0.2268
    186  CD2        0.7030   13.6210    7.1200 C.ar  270  HIS270      0.1154
    187  CE1       -1.3420   13.3990    6.3530 C.ar  270  HIS270      0.1986
    188  NE2       -0.1920   12.7680    6.5140 N.ar  270  HIS270     -0.2212
    189  N          2.4950   18.6870    8.2510 N.am  271  LEU271     -0.1980
    190  CA         2.6720   20.0170    8.8240 C.3   271  LEU271      0.1596
    191  C          3.2540   21.0030    7.8200 C.2   271  LEU271      0.2287
    192  O          2.9010   22.1850    7.8500 O.2   271  LEU271     -0.2864
    193  CB         3.5760   19.9590   10.0560 C.3   271  LEU271      0.0297
    194  CG         3.0570   19.0920   11.2110 C.3   271  LEU271      0.0022
    195  CD1        3.9500   19.2560   12.4380 C.3   271  LEU271      0.0001
    196  CD2        1.6230   19.4570   11.5350 C.3   271  LEU271      0.0001
    197  N          6.1530   21.8460   17.8870 N.3   277  GLY277     -0.1210
    198  CA         5.1970   21.4310   18.8940 C.3   277  GLY277      0.1956
    199  C          5.7850   21.5020   20.2900 C.2   277  GLY277      0.2611
    200  O          7.0000   21.4230   20.4760 O.2   277  GLY277     -0.2717
    201  N          4.9100   21.6920   21.2710 N.am  278  LEU278     -0.1979
    202  CA         5.2560   21.5420   22.6810 C.3   278  LEU278      0.1596
    203  C          4.2530   20.5600   23.2650 C.2   278  LEU278      0.2287
    204  O          3.0550   20.8540   23.3460 O.2   278  LEU278     -0.2864
    205  CB         5.2450   22.8840   23.4300 C.3   278  LEU278      0.0297
    206  CG         5.6270   22.7980   24.9150 C.3   278  LEU278      0.0022
    207  CD1        6.9790   22.1250   25.1290 C.3   278  LEU278      0.0001
    208  CD2        5.6340   24.1930   25.5230 C.3   278  LEU278      0.0001
@<TRIPOS>BOND
     1    21    20    1
     2     9    10    1
     3    12    11    2
     4    20    17    1
     5    10    11    1
     6    10    13    1
     7    11    16   am
     8    16    17    1
     9    17    18    1
    10    15    13    1
    11    13    14    1
    12    18    19    2
    13    18    22   am
    14    25    24    2
    15   125   124    1
    16   108   109    1
    17    22    23    1
    18   110   111    2
    19   110   109    1
    20   187   188   ar
    21   187   185   ar
    22   188   186   ar
    23     3     4    2
    24     3     2    1
    25   179   180    1
    26   185   184   ar
    27   109   112    1
    28    27    28    1
    29    27    26    1
    30   180   181    1
    31   180   183    1
    32    24    23    1
    33   186   184   ar
    34   124   126    1
    35   124   123    2
    36   184   183    1
    37   182   181    2
    38   171   169    1
    39    23    26    1
    40    30    28   am
    41    28    29    2
    42   181   189   am
    43   166   165    1
    44   166   169    1
    45   166   167    1
    46     2     5    1
    47     2     1    1
    48   116   117    1
    49   191   192    2
    50   191   190    1
    51   168   167    2
    52   122   123    1
    53   122   121    1
    54   189   190    1
    55   169   170    1
    56   112   113    1
    57   167   172   am
    58     5     6    1
    59   190   193    1
    60   117   120    1
    61   117   118    1
    62   120   121    1
    63   113   115    1
    64   113   114    1
    65   175   174    2
    66     6     8    1
    67     6     7    1
    68   174   173    1
    69   172   173    1
    70   193   194    1
    71    53    54    1
    72    53    49   am
    73   118   119    2
    74    54    55    1
    75   173   176    1
    76    42    41    2
    77    52    51    1
    78    55    56    2
    79    48    49    1
    80    48    51    1
    81    48    47    1
    82    49    50    2
    83   194   196    1
    84   194   195    1
    85    41    47   am
    86    41    40    1
    87   176   177    1
    88   176   178    1
    89   157   156    2
    90    40    43    1
    91    40    39    1
    92   156   155    1
    93    38    36    1
    94    43    44    1
    95    43    45    1
    96   158   155    1
    97   158   159    1
    98    44    46    1
    99   155   154    1
   100   145   143    1
   101   159   161   ar
   102   159   160   ar
   103   161   163   ar
   104    36    37    1
   105    36    35    1
   106   141   140    2
   107   144   142    1
   108   142   143    1
   109   142   139    1
   110   160   162   ar
   111   163   164   ar
   112    35    32    1
   113   106   105    1
   114   140   139    1
   115   138   139    1
   116   162   164   ar
   117    32    33    1
   118    32    31    1
   119   105   104    1
   120   105   107    1
   121    34    33    2
   122    69    66    1
   123   137   136   ar
   124   137   135   ar
   125   103   102    2
   126   102   101    1
   127   104   101    1
   128   136   134   ar
   129   149   148    2
   130    70    71    1
   131    70    67   am
   132   135   133   ar
   133    74    71    1
   134    71    72    1
   135    66    67    1
   136    66    65    1
   137   152   150    1
   138   148   147    1
   139   101   100    1
   140   197   198    1
   141    60    59    2
   142    67    68    2
   143   134   132   ar
   144   133   132   ar
   145    59    65   am
   146    59    58    1
   147   198   199    1
   148   100    90   am
   149   150   147    1
   150   150   151    1
   151   147   146    1
   152   132   131    1
   153    72    73    2
   154    58    57    1
   155    58    61    1
   156   128   127    1
   157   128   131    1
   158   128   129    1
   159    90    91    2
   160    90    89    1
   161    64    62    1
   162   153   151    1
   163   199   200    2
   164   199   201   am
   165    62    61    1
   166    62    63    1
   167   129   130    2
   168    89    92    1
   169    89    88    1
   170   201   202    1
   171    86    85    2
   172    87    84    1
   173    92    93    1
   174    88    85   am
   175    75    76    1
   176    85    84    1
   177   202   203    1
   178   202   205    1
   179    95    93   ar
   180    95    97   ar
   181    84    83    1
   182    79    76    1
   183    79    80    1
   184    79    81    1
   185    77    76    1
   186    77    78    2
   187    93    94   ar
   188    80    82    1
   189   203   204    2
   190   205   206    1
   191    97    98   ar
   192    94    96   ar
   193    98    96   ar
   194    98    99    1
   195   206   207    1
   196   206   208    1
