@<TRIPOS>MOLECULE
tmp/5wp1A00.pdb
 96 88 0 0 0
SMALL
GASTEIGER

@<TRIPOS>ATOM
      1  N        -19.7040   20.2420   38.7190 N.3    17  ILE17      -0.1245
      2  CA       -19.2480   19.8240   40.0410 C.3    17  ILE17       0.1561
      3  C        -18.0430   20.6400   40.5030 C.2    17  ILE17       0.2260
      4  O        -18.0070   21.1150   41.6390 O.2    17  ILE17      -0.2867
      5  CB       -18.9500   18.3080   40.0880 C.3    17  ILE17       0.0252
      6  CG1      -20.2550   17.5070   40.0260 C.3    17  ILE17       0.0019
      7  CG2      -18.1560   17.9620   41.3520 C.3    17  ILE17       0.0019
      8  CD1      -20.0540   16.0030   39.8850 C.3    17  ILE17       0.0001
      9  N        -15.0440   18.7220   36.0850 N.3    25  VAL25      -0.1245
     10  CA       -15.7960   17.5510   36.5200 C.3    25  VAL25       0.1561
     11  C        -17.2730   17.9170   36.5520 C.2    25  VAL25       0.2260
     12  O        -17.6500   18.9500   37.1190 O.2    25  VAL25      -0.2867
     13  CB       -15.3320   17.0660   37.9060 C.3    25  VAL25       0.0252
     14  CG1      -15.9370   15.7070   38.2200 C.3    25  VAL25       0.0019
     15  CG2      -13.8040   17.0160   37.9720 C.3    25  VAL25       0.0019
     16  N        -20.3130   10.4270   37.1380 N.3    38  ALA38      -0.1245
     17  CA       -19.3750   11.5310   37.0560 C.3    38  ALA38       0.1562
     18  C        -18.6530   11.4590   35.7210 C.2    38  ALA38       0.2260
     19  O        -18.3160   10.3700   35.2450 O.2    38  ALA38      -0.2867
     20  CB       -18.3440   11.4540   38.1800 C.3    38  ALA38       0.0290
     21  N        -15.3100   13.4280   33.8060 N.3    40  LYS40      -0.1245
     22  CA       -14.1970   14.3610   33.8560 C.3    40  LYS40       0.1561
     23  C        -13.7110   14.6310   32.4450 C.2    40  LYS40       0.2260
     24  O        -13.3710   13.6960   31.7140 O.2    40  LYS40      -0.2867
     25  CB       -13.0410   13.7650   34.6550 C.3    40  LYS40       0.0271
     26  CG       -13.3710   13.5390   36.0940 C.3    40  LYS40       0.0035
     27  CD       -12.2960   12.7430   36.7880 C.3    40  LYS40       0.0206
     28  CE       -12.5960   12.6010   38.2550 C.3    40  LYS40       0.1093
     29  NZ       -11.7660   11.5340   38.8540 N.3    40  LYS40      -0.1314
     30  N        -11.3950    3.6040   42.6760 N.3    70  ILE70      -0.1245
     31  CA       -12.2670    4.1360   41.6400 C.3    70  ILE70       0.1561
     32  C        -11.9300    3.4580   40.3200 C.2    70  ILE70       0.2260
     33  O        -10.7600    3.2090   39.9980 O.2    70  ILE70      -0.2867
     34  CB       -12.1770    5.6710   41.5720 C.3    70  ILE70       0.0252
     35  CG1      -13.3600    6.2540   40.8030 C.3    70  ILE70       0.0019
     36  CG2      -10.8910    6.1050   40.9260 C.3    70  ILE70       0.0019
     37  CD1      -14.7070    6.1020   41.4880 C.3    70  ILE70       0.0001
     38  N        -17.0880    7.7690   35.3740 N.3    91  GLN91      -0.1231
     39  CA       -16.8790    7.0040   36.5980 C.3    91  GLN91       0.1698
     40  C        -18.1490    7.0160   37.4450 C.2    91  GLN91       0.2592
     41  O        -19.0450    7.8440   37.2500 O.2    91  GLN91      -0.2718
     42  CB       -15.7250    7.6000   37.4020 C.3    91  GLN91       0.0381
     43  CG       -14.4210    7.5710   36.6160 C.3    91  GLN91       0.0905
     44  CD       -13.2900    8.2870   37.2950 C.2    91  GLN91       0.2608
     45  OE1      -13.3650    9.4850   37.5500 O.2    91  GLN91      -0.2717
     46  NE2      -12.2200    7.5590   37.5840 N.am   91  GLN91      -0.0878
     47  N        -18.2320    6.0750   38.3810 N.am   92  ASP92      -0.1960
     48  CA       -19.3440    6.0830   39.3220 C.3    92  ASP92       0.1840
     49  C        -19.3890    7.4250   40.0350 C.2    92  ASP92       0.2622
     50  O        -18.3510    7.9860   40.4040 O.2    92  ASP92      -0.2715
     51  CB       -19.1660    4.9910   40.3740 C.3    92  ASP92       0.1450
     52  CG       -19.3040    3.6000   39.8110 C.2    92  ASP92       0.3671
     53  OD1      -19.7490    3.4550   38.6590 O.co2  92  ASP92      -0.2456
     54  OD2      -18.9700    2.6420   40.5400 O.co2  92  ASP92      -0.2456
     55  N        -20.5990    7.9300   40.2560 N.am   93  LEU93      -0.1963
     56  CA       -20.7600    9.2060   40.9310 C.3    93  LEU93       0.1728
     57  C        -20.5010    9.0390   42.4220 C.2    93  LEU93       0.2616
     58  O        -21.1320    8.2130   43.0890 O.2    93  LEU93      -0.2715
     59  CB       -22.1680    9.7480   40.6950 C.3    93  LEU93       0.0311
     60  CG       -22.4100   11.1360   41.2830 C.3    93  LEU93       0.0022
     61  CD1      -21.4630   12.1660   40.7140 C.3    93  LEU93       0.0001
     62  CD2      -23.8460   11.5510   41.0240 C.3    93  LEU93       0.0001
     63  N        -19.5670    9.8250   42.9370 N.am   94  MET94      -0.1963
     64  CA       -19.2310    9.8380   44.3520 C.3    94  MET94       0.1736
     65  C        -19.4750   11.2470   44.8480 C.2    94  MET94       0.2616
     66  O        -18.7860   12.1820   44.4250 O.2    94  MET94      -0.2715
     67  CB       -17.7640    9.4530   44.5700 C.3    94  MET94       0.0427
     68  CG       -17.3880    8.1360   43.9360 C.3    94  MET94       0.0599
     69  SD       -18.1850    6.6960   44.6770 S.3    94  MET94      -0.1393
     70  CE       -17.2110    6.5190   46.1810 C.3    94  MET94       0.0692
     71  N        -20.4350   11.3920   45.7600 N.am   95  GLU95      -0.1977
     72  CA       -20.9390   12.7080   46.1170 C.3    95  GLU95       0.1602
     73  C        -20.0020   13.5060   47.0070 C.2    95  GLU95       0.2287
     74  O        -20.1690   14.7210   47.1200 O.2    95  GLU95      -0.2864
     75  CB       -22.2960   12.5790   46.8070 C.3    95  GLU95       0.0415
     76  CG       -23.4490   12.2170   45.8620 C.3    95  GLU95       0.1163
     77  CD       -23.6100   10.7220   45.6360 C.2    95  GLU95       0.3649
     78  OE1      -24.5770   10.3450   44.9350 O.co2  95  GLU95      -0.2457
     79  OE2      -22.7980    9.9220   46.1590 O.co2  95  GLU95      -0.2457
     80  N        -13.6990   16.8760   52.4440 N.3   100  LYS100     -0.1245
     81  CA       -14.9020   17.6820   52.6080 C.3   100  LYS100      0.1561
     82  C        -15.6930   17.2430   53.8320 C.2   100  LYS100      0.2260
     83  O        -16.2020   18.0820   54.5910 O.2   100  LYS100     -0.2867
     84  CB       -15.7710   17.5710   51.3540 C.3   100  LYS100      0.0271
     85  CG       -15.1590   18.1590   50.0920 C.3   100  LYS100      0.0035
     86  CD       -16.1590   18.1160   48.9400 C.3   100  LYS100      0.0206
     87  CE       -15.6610   18.8720   47.7220 C.3   100  LYS100      0.1093
     88  NZ       -14.7500   18.0520   46.8860 N.3   100  LYS100     -0.1314
     89  N        -12.7020    9.1030   48.0020 N.3   141  LEU141     -0.1245
     90  CA       -14.0580    9.4760   47.6260 C.3   141  LEU141      0.1561
     91  C        -15.0500    8.6330   48.3980 C.2   141  LEU141      0.2260
     92  O        -14.8010    7.4640   48.6950 O.2   141  LEU141     -0.2867
     93  CB       -14.2630    9.2310   46.1390 C.3   141  LEU141      0.0270
     94  CG       -13.2520    9.9390   45.2440 C.3   141  LEU141      0.0019
     95  CD1      -13.4880    9.5590   43.8080 C.3   141  LEU141      0.0001
     96  CD2      -13.3330   11.4320   45.4240 C.3   141  LEU141      0.0001
@<TRIPOS>BOND
     1    24    23    2
     2    23    22    1
     3    21    22    1
     4    22    25    1
     5    25    26    1
     6    19    18    2
     7    38    39    1
     8    18    17    1
     9     9    10    1
    10    26    27    1
    11    10    11    1
    12    10    13    1
    13    11    12    2
    14    39    42    1
    15    39    40    1
    16    43    44    1
    17    43    42    1
    18    27    28    1
    19    17    16    1
    20    17    20    1
    21    41    40    2
    22    44    45    2
    23    44    46   am
    24    40    47   am
    25    13    15    1
    26    13    14    1
    27    28    29    1
    28    47    48    1
    29    53    52   ar
    30     1     2    1
    31    48    49    1
    32    48    51    1
    33    52    51    1
    34    52    54   ar
    35     8     6    1
    36    33    32    2
    37     6     5    1
    38    49    55   am
    39    49    50    2
    40     2     5    1
    41     2     3    1
    42     5     7    1
    43    55    56    1
    44    32    31    1
    45     3     4    2
    46    59    56    1
    47    59    60    1
    48    61    60    1
    49    35    37    1
    50    35    34    1
    51    36    34    1
    52    56    57    1
    53    62    60    1
    54    34    31    1
    55    31    30    1
    56    57    63   am
    57    57    58    2
    58    63    64    1
    59    95    94    1
    60    68    67    1
    61    68    69    1
    62    64    67    1
    63    64    65    1
    64    66    65    2
    65    69    70    1
    66    65    71   am
    67    78    77   ar
    68    94    96    1
    69    94    93    1
    70    77    76    1
    71    77    79   ar
    72    71    72    1
    73    76    75    1
    74    72    75    1
    75    72    73    1
    76    93    90    1
    77    88    87    1
    78    73    74    2
    79    90    89    1
    80    90    91    1
    81    87    86    1
    82    91    92    2
    83    86    85    1
    84    85    84    1
    85    84    81    1
    86    80    81    1
    87    81    82    1
    88    82    83    2
