@<TRIPOS>MOLECULE
tmp/5wp4A02.pdb
 213 205 0 0 0
SMALL
GASTEIGER

@<TRIPOS>ATOM
      1  N         19.8080    8.5060   -0.7990 N.3   231  PHE231     -0.1241
      2  CA        20.4220    9.8300   -0.7170 C.3   231  PHE231      0.1605
      3  C         20.4590   10.3290    0.7260 C.2   231  PHE231      0.2264
      4  O         21.4460   10.9210    1.1520 O.2   231  PHE231     -0.2867
      5  CB        19.7330   10.8400   -1.6450 C.3   231  PHE231      0.0534
      6  CG        20.4190   12.1720   -1.6900 C.ar  231  PHE231     -0.0203
      7  CD1       21.7250   12.2810   -2.1500 C.ar  231  PHE231     -0.0042
      8  CD2       19.7700   13.3180   -1.2550 C.ar  231  PHE231     -0.0042
      9  CE1       22.3660   13.5100   -2.1780 C.ar  231  PHE231     -0.0003
     10  CE2       20.4040   14.5540   -1.2830 C.ar  231  PHE231     -0.0003
     11  CZ        21.7070   14.6500   -1.7380 C.ar  231  PHE231     -0.0000
     12  N         23.8120   11.5040    2.8250 N.3   235  LEU235     -0.1245
     13  CA        23.9510   12.7160    3.6340 C.3   235  LEU235      0.1561
     14  C         24.3870   12.3910    5.0650 C.2   235  LEU235      0.2260
     15  O         25.3160   13.0100    5.6020 O.2   235  LEU235     -0.2867
     16  CB        22.6310   13.4890    3.6760 C.3   235  LEU235      0.0270
     17  CG        22.1680   14.1070    2.3590 C.3   235  LEU235      0.0019
     18  CD1       20.7560   14.6530    2.5250 C.3   235  LEU235      0.0001
     19  CD2       23.1280   15.1980    1.8530 C.3   235  LEU235      0.0001
     20  N         27.3520   14.8540    6.2070 N.3   240  TYR240     -0.1241
     21  CA        26.6510   15.2420    7.4230 C.3   240  TYR240      0.1605
     22  C         26.5220   14.1040    8.4230 C.2   240  TYR240      0.2264
     23  O         25.5030   13.9600    9.1010 O.2   240  TYR240     -0.2867
     24  CB        25.2930   15.8730    7.0940 C.3   240  TYR240      0.0534
     25  CG        25.3960   17.0010    6.0850 C.ar  240  TYR240     -0.0201
     26  CD1       25.9600   18.2190    6.4330 C.ar  240  TYR240     -0.0009
     27  CD2       24.9530   16.8390    4.7800 C.ar  240  TYR240     -0.0009
     28  CE1       26.0630   19.2630    5.5150 C.ar  240  TYR240      0.0417
     29  CE2       25.0520   17.8680    3.8510 C.ar  240  TYR240      0.0417
     30  CZ        25.6050   19.0860    4.2230 C.ar  240  TYR240      0.1957
     31  OH        25.7050   20.1070    3.3020 O.3   240  TYR240     -0.2866
     32  N         24.6980   26.7460   16.1690 N.3   255  GLY255     -0.1210
     33  CA        23.4350   26.5640   15.4880 C.3   255  GLY255      0.1956
     34  C         23.4170   26.5940   13.9620 C.2   255  GLY255      0.2612
     35  O         22.4040   26.4180   13.4220 O.2   255  GLY255     -0.2717
     36  N         24.5840   26.7280   13.3780 N.am  256  PHE256     -0.1962
     37  CA        24.6100   26.8800   11.9240 C.3   256  PHE256      0.1771
     38  C         25.5750   25.9160   11.2710 C.2   256  PHE256      0.2619
     39  O         26.5930   25.5370   11.8630 O.2   256  PHE256     -0.2715
     40  CB        24.9770   28.3170   11.5500 C.3   256  PHE256      0.0574
     41  CG        23.9680   29.3370   11.9970 C.ar  256  PHE256     -0.0200
     42  CD1       22.8370   29.5910   11.2400 C.ar  256  PHE256     -0.0042
     43  CD2       24.1510   30.0410   13.1750 C.ar  256  PHE256     -0.0042
     44  CE1       21.9070   30.5270   11.6510 C.ar  256  PHE256     -0.0003
     45  CE2       23.2250   30.9790   13.5890 C.ar  256  PHE256     -0.0003
     46  CZ        22.1010   31.2220   12.8270 C.ar  256  PHE256     -0.0000
     47  N         25.2880   25.5860   10.0290 N.am  257  VAL257     -0.1963
     48  CA        26.0980   24.6660    9.2400 C.3   257  VAL257      0.1727
     49  C         26.3560   25.3070    7.8810 C.2   257  VAL257      0.2616
     50  O         26.6140   24.6160    6.8950 O.2   257  VAL257     -0.2715
     51  CB        25.3950   23.2820    9.0480 C.3   257  VAL257      0.0290
     52  CG1       26.4170   22.1860    8.7440 C.3   257  VAL257      0.0023
     53  CG2       24.5830   22.9000   10.2860 C.3   257  VAL257      0.0023
     54  N         26.2980   26.6330    7.8130 N.am  258  SER258     -0.1950
     55  CA        26.6190   27.3070    6.5570 C.3   258  SER258      0.1924
     56  C         27.1410   28.7210    6.7640 C.2   258  SER258      0.2314
     57  O         27.0890   29.2890    7.8770 O.2   258  SER258     -0.2863
     58  CB        25.4090   27.3280    5.6270 C.3   258  SER258      0.2116
     59  OG        24.4670   28.2870    6.0580 O.3   258  SER258     -0.2180
     60  N         11.5160   26.6770    6.1330 N.3   282  ASP282     -0.1239
     61  CA        12.9660   26.6160    5.9890 C.3   282  ASP282      0.1674
     62  C         13.3370   25.2870    5.3440 C.2   282  ASP282      0.2266
     63  O         13.2120   24.2160    5.9550 O.2   282  ASP282     -0.2867
     64  CB        13.6680   26.7920    7.3350 C.3   282  ASP282      0.1410
     65  CG        15.1900   26.8080    7.2010 C.2   282  ASP282      0.3668
     66  OD1       15.7060   26.4850    6.1130 O.co2 282  ASP282     -0.2456
     67  OD2       15.8970   27.1320    8.1840 O.co2 282  ASP282     -0.2456
     68  N         15.8810   22.7970    4.2460 N.3   284  GLY284     -0.1210
     69  CA        17.2250   22.4210    4.6570 C.3   284  GLY284      0.1956
     70  C         17.5710   23.0530    5.9950 C.2   284  GLY284      0.2612
     71  O         18.6060   23.6880    6.1320 O.2   284  GLY284     -0.2717
     72  N         16.7250   22.8520    6.9990 N.am  285  CYS285     -0.1956
     73  CA        16.8400   23.6160    8.2370 C.3   285  CYS285      0.1843
     74  C         18.0370   23.2390    9.1110 C.2   285  CYS285      0.2626
     75  O         18.3250   23.9390   10.0850 O.2   285  CYS285     -0.2714
     76  CB        15.5450   23.5030    9.0440 C.3   285  CYS285      0.0997
     77  SG        15.1490   21.8220    9.5580 S.3   285  CYS285     -0.0797
     78  N         18.7230   22.1450    8.7900 N.am  286  GLY286     -0.1940
     79  CA        19.9040   21.7490    9.5410 C.3   286  GLY286      0.2014
     80  C         19.6300   21.5280   11.0140 C.2   286  GLY286      0.2638
     81  O         18.6750   20.8250   11.3670 O.2   286  GLY286     -0.2714
     82  N         20.4560   22.1420   11.8640 N.am  287  ILE287     -0.1977
     83  CA        20.3560   21.9540   13.3070 C.3   287  ILE287      0.1596
     84  C         19.5170   23.0490   13.9660 C.2   287  ILE287      0.2287
     85  O         19.4000   23.0740   15.1960 O.2   287  ILE287     -0.2864
     86  CB        21.7540   21.7700   13.9780 C.3   287  ILE287      0.0276
     87  CG1       22.6220   23.0120   13.7930 C.3   287  ILE287      0.0022
     88  CG2       22.4500   20.5470   13.3880 C.3   287  ILE287      0.0022
     89  CD1       24.0530   22.8780   14.3340 C.3   287  ILE287      0.0001
     90  N         18.9570   29.0040   12.5600 N.3   290  GLY290     -0.1225
     91  CA        18.2860   30.0740   11.8470 C.3   290  GLY290      0.1811
     92  C         16.7940   30.1280   12.1350 C.2   290  GLY290      0.2280
     93  O         16.1660   31.1990   12.0780 O.2   290  GLY290     -0.2866
     94  N         12.2860   21.7440    7.4520 N.3   305  ILE305     -0.1231
     95  CA        12.4880   20.3930    6.9450 C.3   305  ILE305      0.1692
     96  C         13.9290   20.1530    6.5550 C.2   305  ILE305      0.2592
     97  O         14.6200   21.0500    6.0730 O.2   305  ILE305     -0.2718
     98  CB        11.5520   20.0290    5.7500 C.3   305  ILE305      0.0266
     99  CG1       11.7330   20.9730    4.5550 C.3   305  ILE305      0.0019
    100  CG2       10.0970   19.9900    6.2080 C.3   305  ILE305      0.0020
    101  CD1       10.9230   20.5450    3.3300 C.3   305  ILE305      0.0001
    102  N         14.3790   18.9200    6.7430 N.am  306  ASP306     -0.1960
    103  CA        15.7240   18.5420    6.3610 C.3   306  ASP306      0.1840
    104  C         15.7130   17.0520    6.1250 C.2   306  ASP306      0.2622
    105  O         15.0280   16.3230    6.8340 O.2   306  ASP306     -0.2715
    106  CB        16.7330   18.9060    7.4540 C.3   306  ASP306      0.1450
    107  CG        18.1550   18.9540    6.9270 C.2   306  ASP306      0.3671
    108  OD1       18.7070   17.8860    6.5830 O.co2 306  ASP306     -0.2456
    109  OD2       18.7040   20.0640    6.7950 O.co2 306  ASP306     -0.2456
    110  N         16.4510   16.6010    5.1150 N.am  307  LEU307     -0.1963
    111  CA        16.4740   15.1830    4.7710 C.3   307  LEU307      0.1728
    112  C         17.3580   14.3630    5.7110 C.2   307  LEU307      0.2616
    113  O         17.1700   13.1490    5.8520 O.2   307  LEU307     -0.2715
    114  CB        16.9250   15.0170    3.3150 C.3   307  LEU307      0.0311
    115  CG        16.8500   13.5930    2.7610 C.3   307  LEU307      0.0022
    116  CD1       15.4660   12.9780    2.9440 C.3   307  LEU307      0.0001
    117  CD2       17.2170   13.6110    1.2860 C.3   307  LEU307      0.0001
    118  N         18.3150   15.0300    6.3490 N.am  308  SER308     -0.1950
    119  CA        19.2580   14.3430    7.2170 C.3   308  SER308      0.1924
    120  C         18.6310   13.9920    8.5650 C.2   308  SER308      0.2314
    121  O         18.1470   14.8670    9.3010 O.2   308  SER308     -0.2863
    122  CB        20.4960   15.2170    7.4120 C.3   308  SER308      0.2116
    123  OG        21.2820   14.7650    8.5080 O.3   308  SER308     -0.2180
    124  N         20.7040   15.7460   11.2780 N.3   311  MET311     -0.1245
    125  CA        20.3600   17.1540   11.4430 C.3   311  MET311      0.1570
    126  C         19.1250   17.3460   12.2980 C.2   311  MET311      0.2261
    127  O         19.1430   18.0860   13.2840 O.2   311  MET311     -0.2867
    128  CB        20.1380   17.8160   10.0720 C.3   311  MET311      0.0387
    129  CG        21.4060   18.0110    9.2640 C.3   311  MET311      0.0595
    130  SD        22.4860   19.2570    9.9850 S.3   311  MET311     -0.1393
    131  CE        23.6400   19.4630    8.6350 C.3   311  MET311      0.0692
    132  N         12.3720   15.2510    6.0280 N.3   331  ALA331     -0.1231
    133  CA        11.6420   15.2060    4.7730 C.3   331  ALA331      0.1694
    134  C         12.5550   15.6160    3.6430 C.2   331  ALA331      0.2592
    135  O         13.4990   16.3810    3.8370 O.2   331  ALA331     -0.2718
    136  CB        10.4390   16.1400    4.8290 C.3   331  ALA331      0.0304
    137  N         12.2640   15.0990    2.4570 N.am  332  ASP332     -0.1960
    138  CA        12.9610   15.4750    1.2330 C.3   332  ASP332      0.1840
    139  C         12.1730   16.6160    0.6070 C.2   332  ASP332      0.2622
    140  O         10.9970   16.4500    0.2670 O.2   332  ASP332     -0.2715
    141  CB        12.9970   14.2800    0.2840 C.3   332  ASP332      0.1450
    142  CG        13.8930   14.5030   -0.9190 C.2   332  ASP332      0.3671
    143  OD1       14.0100   15.6510   -1.3910 O.co2 332  ASP332     -0.2456
    144  OD2       14.4610   13.5080   -1.4210 O.co2 332  ASP332     -0.2456
    145  N         12.7970   17.7800    0.4500 N.am  333  CYS333     -0.1954
    146  CA        12.0810   18.9110   -0.1320 C.3   333  CYS333      0.1843
    147  C         11.5980   18.6850   -1.5660 C.2   333  CYS333      0.2626
    148  O         10.7200   19.4120   -2.0330 O.2   333  CYS333     -0.2714
    149  CB        12.9150   20.1900   -0.0500 C.3   333  CYS333      0.0997
    150  SG        14.3560   20.2440   -1.1410 S.3   333  CYS333     -0.0797
    151  N         12.1670   17.6980   -2.2520 N.am  334  THR334     -0.1950
    152  CA        11.7960   17.4110   -3.6370 C.3   334  THR334      0.1897
    153  C         10.6180   16.4560   -3.7450 C.2   334  THR334      0.2313
    154  O         10.1030   16.2460   -4.8480 O.2   334  THR334     -0.2863
    155  CB        12.9760   16.8370   -4.4590 C.3   334  THR334      0.1794
    156  OG1       13.2670   15.5000   -4.0340 O.3   334  THR334     -0.2208
    157  CG2       14.2140   17.7170   -4.2920 C.3   334  THR334      0.0378
    158  N         12.4710   30.0240    2.7360 N.3   347  TYR347     -0.1241
    159  CA        13.8300   30.4170    3.0770 C.3   347  TYR347      0.1605
    160  C         14.7050   29.1950    2.9160 C.2   347  TYR347      0.2264
    161  O         14.3300   28.1060    3.3460 O.2   347  TYR347     -0.2867
    162  CB        13.8170   30.8450    4.5410 C.3   347  TYR347      0.0534
    163  CG        15.1330   31.1810    5.2010 C.ar  347  TYR347     -0.0201
    164  CD1       15.8900   32.2700    4.7980 C.ar  347  TYR347     -0.0009
    165  CD2       15.5900   30.4360    6.2790 C.ar  347  TYR347     -0.0009
    166  CE1       17.0640   32.6180    5.4650 C.ar  347  TYR347      0.0417
    167  CE2       16.7560   30.7670    6.9400 C.ar  347  TYR347      0.0417
    168  CZ        17.4830   31.8600    6.5400 C.ar  347  TYR347      0.1957
    169  OH        18.6480   32.1840    7.2000 O.3   347  TYR347     -0.2866
    170  N         19.0780   28.1340    2.9760 N.3   349  ARG349     -0.1231
    171  CA        20.4790   28.5380    3.0690 C.3   349  ARG349      0.1694
    172  C         21.4000   27.3820    2.7460 C.2   349  ARG349      0.2592
    173  O         21.4440   26.3840    3.4860 O.2   349  ARG349     -0.2718
    174  CB        20.7740   29.0650    4.4770 C.3   349  ARG349      0.0321
    175  CG        19.9090   30.2620    4.8930 C.3   349  ARG349      0.0489
    176  CD        20.3080   31.5780    4.1800 C.3   349  ARG349      0.2205
    177  NE        21.7300   31.8380    4.3520 N.pl3 349  ARG349     -0.0865
    178  CZ        22.2450   32.3450    5.4590 C.cat 349  ARG349      0.5346
    179  NH1       21.4550   32.7200    6.4580 N.pl3 349  ARG349      0.1354
    180  NH2       23.5500   32.4900    5.5610 N.pl3 349  ARG349      0.1354
    181  N         22.1240   27.5280    1.6380 N.am  350  ASP350     -0.1960
    182  CA        23.1520   26.5920    1.1830 C.3   350  ASP350      0.1840
    183  C         22.7190   25.1370    1.2880 C.2   350  ASP350      0.2622
    184  O         23.4330   24.2850    1.8160 O.2   350  ASP350     -0.2715
    185  CB        24.4980   26.8390    1.8730 C.3   350  ASP350      0.1450
    186  CG        24.9930   28.2780    1.7250 C.2   350  ASP350      0.3671
    187  OD1       24.4260   29.0640    0.9150 O.co2 350  ASP350     -0.2456
    188  OD2       25.9880   28.6050    2.4060 O.co2 350  ASP350     -0.2456
    189  N         21.5380   24.8840    0.7300 N.am  351  THR351     -0.1951
    190  CA        20.8850   23.5830    0.7170 C.3   351  THR351      0.1897
    191  C         20.6140   23.1150   -0.7150 C.2   351  THR351      0.2313
    192  O         20.7350   21.9280   -1.0260 O.2   351  THR351     -0.2863
    193  CB        19.5320   23.6950    1.4390 C.3   351  THR351      0.1794
    194  OG1       19.7800   23.9190    2.8300 O.3   351  THR351     -0.2208
    195  CG2       18.6900   22.4340    1.2970 C.3   351  THR351      0.0378
    196  N         22.3540   20.6660   -3.1680 N.3   354  HIS354     -0.1226
    197  CA        22.1360   19.2230   -3.0590 C.3   354  HIS354      0.1752
    198  C         20.9520   18.7290   -3.8920 C.2   354  HIS354      0.2595
    199  O         20.6590   17.5320   -3.8990 O.2   354  HIS354     -0.2718
    200  CB        21.8580   18.8260   -1.5980 C.3   354  HIS354      0.0759
    201  CG        23.0260   18.9730   -0.6710 C.ar  354  HIS354      0.0818
    202  ND1       24.1560   18.1810   -0.7520 N.ar  354  HIS354     -0.2268
    203  CD2       23.2210   19.7930    0.3880 C.ar  354  HIS354      0.1154
    204  CE1       24.9980   18.5240    0.2040 C.ar  354  HIS354      0.1986
    205  NE2       24.4570   19.4950    0.9180 N.ar  354  HIS354     -0.2212
    206  N         20.2470   19.6440   -4.5560 N.am  355  ILE355     -0.1980
    207  CA        19.0380   19.3030   -5.3110 C.3   355  ILE355      0.1595
    208  C         19.3810   19.2880   -6.7990 C.2   355  ILE355      0.2287
    209  O         19.9420   20.2550   -7.3270 O.2   355  ILE355     -0.2864
    210  CB        17.8970   20.3130   -5.0010 C.3   355  ILE355      0.0276
    211  CG1       17.1960   19.9880   -3.6590 C.3   355  ILE355      0.0022
    212  CG2       16.8210   20.2820   -6.0760 C.3   355  ILE355      0.0022
    213  CD1       18.0750   19.8890   -2.4000 C.3   355  ILE355      0.0001
@<TRIPOS>BOND
     1   209   208    2
     2   208   207    1
     3   212   210    1
     4   207   210    1
     5   207   206    1
     6   210   211    1
     7   154   153    2
     8   206   198   am
     9   155   157    1
    10   155   156    1
    11   155   152    1
    12   199   198    2
    13   198   197    1
    14   153   152    1
    15   211   213    1
    16   152   151    1
    17   196   197    1
    18   197   200    1
    19   151   147   am
    20     9     7   ar
    21     9    11   ar
    22     7     6   ar
    23   148   147    2
    24    11    10   ar
    25     6     5    1
    26     6     8   ar
    27     5     2    1
    28   200   201    1
    29   147   146    1
    30   144   142   ar
    31   143   142   ar
    32    10     8   ar
    33   150   149    1
    34   192   191    2
    35   142   141    1
    36     1     2    1
    37   202   201   ar
    38   202   204   ar
    39     2     3    1
    40   191   190    1
    41   201   203   ar
    42   146   149    1
    43   146   145    1
    44   204   205   ar
    45   140   139    2
    46   141   138    1
    47   203   205   ar
    48   145   139   am
    49   139   138    1
    50   190   189    1
    51   190   193    1
    52     3     4    2
    53   189   183   am
    54   187   186   ar
    55   182   183    1
    56   182   181    1
    57   182   185    1
    58   138   137    1
    59   117   115    1
    60   183   184    2
    61   195   193    1
    62   193   194    1
    63   181   172   am
    64   186   185    1
    65   186   188   ar
    66    19    17    1
    67    17    18    1
    68    17    16    1
    69   137   134   am
    70   158   159    1
    71   172   171    1
    72   172   173    2
    73   115   116    1
    74   115   114    1
    75    12    13    1
    76   160   159    1
    77   160   161    2
    78   170   171    1
    79   171   174    1
    80   159   162    1
    81    31    30    1
    82   114   111    1
    83   101    99    1
    84    13    16    1
    85    13    14    1
    86   134   135    2
    87   134   133    1
    88    29    30   ar
    89    29    27   ar
    90   176   177    1
    91   176   175    1
    92    30    28   ar
    93    68    69    1
    94   177   178    2
    95   174   175    1
    96   162   163    1
    97    99    98    1
    98    69    70    1
    99   111   110    1
   100   111   112    1
   101   133   136    1
   102   133   132    1
   103    27    25   ar
   104   164   163   ar
   105   164   166   ar
   106    14    15    2
   107   110   104   am
   108   163   165   ar
   109    62    63    2
   110    62    61    1
   111   178   180    1
   112   178   179    1
   113   166   168   ar
   114    28    26   ar
   115    58    59    1
   116    58    55    1
   117   112   113    2
   118   112   118   am
   119    98   100    1
   120    98    95    1
   121    61    60    1
   122    61    64    1
   123    70    71    2
   124    70    72   am
   125    97    96    2
   126    25    26   ar
   127    25    24    1
   128    66    65   ar
   129   104   103    1
   130   104   105    2
   131    20    21    1
   132   165   167   ar
   133   118   119    1
   134   103   102    1
   135   103   106    1
   136   168   167   ar
   137   168   169    1
   138    96   102   am
   139    96    95    1
   140    55    56    1
   141    55    54    1
   142   108   107   ar
   143    56    57    2
   144   109   107   ar
   145    50    49    2
   146   107   106    1
   147    95    94    1
   148    72    73    1
   149    24    21    1
   150    65    64    1
   151    65    67   ar
   152   119   122    1
   153   119   120    1
   154   122   123    1
   155    21    22    1
   156    54    49   am
   157    49    48    1
   158    73    76    1
   159    73    74    1
   160    22    23    2
   161   120   121    2
   162   131   130    1
   163    52    51    1
   164    78    74   am
   165    78    79    1
   166    76    77    1
   167    51    48    1
   168    51    53    1
   169    74    75    2
   170    48    47    1
   171   129   130    1
   172   129   128    1
   173    79    80    1
   174    47    38   am
   175   128   125    1
   176    80    81    2
   177    80    82   am
   178    42    44   ar
   179    42    41   ar
   180    38    39    2
   181    38    37    1
   182   124   125    1
   183   125   126    1
   184    40    37    1
   185    40    41    1
   186    44    46   ar
   187    91    92    1
   188    91    90    1
   189    82    83    1
   190    37    36    1
   191    41    43   ar
   192    93    92    2
   193   126   127    2
   194    46    45   ar
   195    43    45   ar
   196    83    84    1
   197    83    86    1
   198    36    34   am
   199    88    86    1
   200    35    34    2
   201    87    86    1
   202    87    89    1
   203    34    33    1
   204    84    85    2
   205    33    32    1
