@<TRIPOS>MOLECULE
tmp/5wp4A00.pdb
 220 217 0 0 0
SMALL
GASTEIGER

@<TRIPOS>ATOM
      1  N         22.2720   -7.7850   30.3770 N.3     3  ARG3       -0.1245
      2  CA        21.0250   -8.3200   30.9190 C.3     3  ARG3        0.1563
      3  C         21.1320   -8.5650   32.4210 C.2     3  ARG3        0.2260
      4  O         20.1860   -8.3090   33.1640 O.2     3  ARG3       -0.2867
      5  CB        20.6180   -9.6060   30.1940 C.3     3  ARG3        0.0307
      6  CG        20.2580   -9.4220   28.7210 C.3     3  ARG3        0.0489
      7  CD        18.9940   -8.5760   28.5330 C.3     3  ARG3        0.2205
      8  NE        19.2780   -7.1440   28.4440 N.pl3   3  ARG3       -0.0865
      9  CZ        18.6830   -6.1990   29.1700 C.cat   3  ARG3        0.5346
     10  NH1       17.7510   -6.5180   30.0620 N.pl3   3  ARG3        0.1354
     11  NH2       19.0220   -4.9220   29.0050 N.pl3   3  ARG3        0.1354
     12  N         16.8630   -3.8730   38.7190 N.3    10  TRP10      -0.1241
     13  CA        15.4170   -3.9290   38.9010 C.3    10  TRP10       0.1605
     14  C         14.9480   -4.9600   39.9280 C.2    10  TRP10       0.2264
     15  O         13.9150   -4.7700   40.5650 O.2    10  TRP10      -0.2867
     16  CB        14.6830   -4.0150   37.5550 C.3    10  TRP10       0.0550
     17  CG        14.6230   -2.6400   36.9900 C.ar   10  TRP10       0.0003
     18  CD1       15.2890   -2.1460   35.8980 C.ar   10  TRP10       0.0946
     19  CD2       13.9210   -1.5370   37.5650 C.ar   10  TRP10       0.0152
     20  NE1       15.0050   -0.8080   35.7460 N.ar   10  TRP10      -0.2442
     21  CE2       14.1760   -0.4100   36.7630 C.ar   10  TRP10       0.0810
     22  CE3       13.0860   -1.4000   38.6790 C.ar   10  TRP10       0.0012
     23  CZ2       13.6180    0.8390   37.0430 C.ar   10  TRP10       0.0191
     24  CZ3       12.5460   -0.1660   38.9580 C.ar   10  TRP10       0.0001
     25  CH2       12.8060    0.9380   38.1420 C.ar   10  TRP10       0.0015
     26  N         12.7260   -3.3940   42.7940 N.3    14  SER14      -0.1217
     27  CA        11.3660   -3.9250   42.7900 C.3    14  SER14       0.1889
     28  C         11.0260   -4.6550   44.0800 C.2    14  SER14       0.2288
     29  O          9.8710   -5.0120   44.2940 O.2    14  SER14      -0.2866
     30  CB        11.1680   -4.9050   41.6340 C.3    14  SER14       0.2089
     31  OG        11.3280   -4.2510   40.3890 O.3    14  SER14      -0.2183
     32  N          9.7930    2.1960   42.9240 N.3    22  MET22      -0.1245
     33  CA        10.0390    2.3370   41.4940 C.3    22  MET22       0.1570
     34  C         10.5550    3.7290   41.1320 C.2    22  MET22       0.2261
     35  O         11.3790    3.8880   40.2240 O.2    22  MET22      -0.2867
     36  CB         8.7520    2.0230   40.7200 C.3    22  MET22       0.0387
     37  CG         8.8380    2.2210   39.2160 C.3    22  MET22       0.0595
     38  SD         8.4870    3.9050   38.6770 S.3    22  MET22      -0.1393
     39  CE         6.7440    4.0390   39.0730 C.3    22  MET22       0.0692
     40  N          1.9150   -2.6640   26.6190 N.3    53  GLU53      -0.1231
     41  CA         2.6340   -1.8570   27.6050 C.3    53  GLU53       0.1699
     42  C          3.9100   -2.5730   28.0220 C.2    53  GLU53       0.2592
     43  O          3.8570   -3.6580   28.5920 O.2    53  GLU53      -0.2718
     44  CB         1.7560   -1.5740   28.8290 C.3    53  GLU53       0.0402
     45  CG         2.4430   -0.6620   29.8400 C.3    53  GLU53       0.1161
     46  CD         1.6570   -0.4470   31.1210 C.2    53  GLU53       0.3649
     47  OE1        0.7370   -1.2400   31.4320 O.co2  53  GLU53      -0.2457
     48  OE2        1.9830    0.5250   31.8310 O.co2  53  GLU53      -0.2457
     49  N          5.0560   -1.9680   27.7190 N.am   54  LEU54      -0.1966
     50  CA         6.3610   -2.5600   28.0050 C.3    54  LEU54       0.1728
     51  C          7.0050   -1.9500   29.2400 C.2    54  LEU54       0.2617
     52  O          7.1580   -0.7320   29.3400 O.2    54  LEU54      -0.2715
     53  CB         7.2980   -2.3560   26.8140 C.3    54  LEU54       0.0311
     54  CG         6.8160   -2.9070   25.4730 C.3    54  LEU54       0.0022
     55  CD1        7.8070   -2.5260   24.3750 C.3    54  LEU54       0.0001
     56  CD2        6.6430   -4.4080   25.5550 C.3    54  LEU54       0.0001
     57  N          7.4070   -2.8070   30.1720 N.am   55  GLY55      -0.1940
     58  CA         7.9090   -2.3400   31.4540 C.3    55  GLY55       0.2014
     59  C          6.7830   -1.7720   32.3040 C.2    55  GLY55       0.2639
     60  O          6.9040   -0.6780   32.8540 O.2    55  GLY55      -0.2714
     61  N          5.6890   -2.5260   32.4220 N.am   56  ALA56      -0.1963
     62  CA         4.4640   -2.0410   33.0640 C.3    56  ALA56       0.1728
     63  C          4.6210   -1.7950   34.5630 C.2    56  ALA56       0.2616
     64  O          3.8160   -1.0750   35.1690 O.2    56  ALA56      -0.2715
     65  CB         3.3050   -3.0250   32.8160 C.3    56  ALA56       0.0334
     66  N          5.6230   -2.4090   35.1810 N.am   57  GLY57      -0.1955
     67  CA         5.7700   -2.2750   36.6200 C.3    57  GLY57       0.1869
     68  C          4.5830   -2.8630   37.3680 C.2    57  GLY57       0.2309
     69  O          3.8960   -3.7430   36.8510 O.2    57  GLY57      -0.2863
     70  N          1.0520    1.3760   37.5170 N.3    60  ARG60      -0.1231
     71  CA         0.6050    2.7730   37.6170 C.3    60  ARG60       0.1694
     72  C         -0.3530    3.1420   36.4840 C.2    60  ARG60       0.2592
     73  O         -1.3380    3.8500   36.7000 O.2    60  ARG60      -0.2718
     74  CB         1.7840    3.7490   37.5640 C.3    60  ARG60       0.0321
     75  CG         2.6030    3.8970   38.8220 C.3    60  ARG60       0.0489
     76  CD         3.3160    5.2450   38.8280 C.3    60  ARG60       0.2205
     77  NE         4.0980    5.4700   37.6100 N.pl3  60  ARG60      -0.0865
     78  CZ         4.3010    6.6590   37.0470 C.cat  60  ARG60       0.5346
     79  NH1        3.7630    7.7540   37.5710 N.pl3  60  ARG60       0.1354
     80  NH2        5.0340    6.7540   35.9430 N.pl3  60  ARG60       0.1354
     81  N         -0.0570    2.6580   35.2800 N.am   61  PHE61      -0.1976
     82  CA        -0.8680    2.9780   34.1040 C.3    61  PHE61       0.1639
     83  C         -1.7920    1.8430   33.6670 C.2    61  PHE61       0.2290
     84  O         -2.7970    2.0880   33.0080 O.2    61  PHE61      -0.2864
     85  CB         0.0230    3.3500   32.9120 C.3    61  PHE61       0.0560
     86  CG         0.8730    4.5680   33.1360 C.ar   61  PHE61      -0.0200
     87  CD1        0.3160    5.8330   33.0880 C.ar   61  PHE61      -0.0042
     88  CD2        2.2340    4.4490   33.3660 C.ar   61  PHE61      -0.0042
     89  CE1        1.0950    6.9620   33.2920 C.ar   61  PHE61      -0.0003
     90  CE2        3.0230    5.5750   33.5610 C.ar   61  PHE61      -0.0003
     91  CZ         2.4520    6.8300   33.5240 C.ar   61  PHE61      -0.0000
     92  N          3.5440   -6.0870   30.2020 N.3    75  LEU75      -0.1231
     93  CA         4.7520   -6.9030   30.2010 C.3    75  LEU75       0.1693
     94  C          5.8140   -6.3000   31.1190 C.2    75  LEU75       0.2592
     95  O          6.0420   -5.0910   31.0950 O.2    75  LEU75      -0.2718
     96  CB         5.2740   -7.0170   28.7580 C.3    75  LEU75       0.0284
     97  CG         6.5640   -7.7790   28.4290 C.3    75  LEU75       0.0019
     98  CD1        6.5710   -8.2090   26.9770 C.3    75  LEU75       0.0001
     99  CD2        7.8010   -6.9350   28.7080 C.3    75  LEU75       0.0001
    100  N          6.4740   -7.1400   31.9140 N.am   76  ASP76      -0.1960
    101  CA         7.6270   -6.6980   32.6990 C.3    76  ASP76       0.1840
    102  C          8.5810   -7.8710   32.9010 C.2    76  ASP76       0.2622
    103  O          8.1260   -9.0120   33.0060 O.2    76  ASP76      -0.2715
    104  CB         7.1680   -6.1440   34.0520 C.3    76  ASP76       0.1450
    105  CG         8.1820   -5.1980   34.6730 C.2    76  ASP76       0.3671
    106  OD1        7.9750   -3.9680   34.6110 O.co2  76  ASP76      -0.2456
    107  OD2        9.2010   -5.6880   35.2050 O.co2  76  ASP76      -0.2456
    108  N          9.8900   -7.6170   32.9840 N.am   77  PHE77      -0.1960
    109  CA        10.8120   -8.7410   33.1960 C.3    77  PHE77       0.1771
    110  C         11.0100   -9.2150   34.6350 C.2    77  PHE77       0.2619
    111  O         11.6540  -10.2410   34.8550 O.2    77  PHE77      -0.2715
    112  CB        12.1520   -8.5950   32.4460 C.3    77  PHE77       0.0574
    113  CG        13.1310   -7.5830   33.0230 C.ar   77  PHE77      -0.0200
    114  CD1       14.4600   -7.6350   32.6040 C.ar   77  PHE77      -0.0042
    115  CD2       12.7570   -6.5860   33.9130 C.ar   77  PHE77      -0.0042
    116  CE1       15.4020   -6.7300   33.0510 C.ar   77  PHE77      -0.0003
    117  CE2       13.7080   -5.6670   34.3800 C.ar   77  PHE77      -0.0003
    118  CZ        15.0350   -5.7460   33.9450 C.ar   77  PHE77      -0.0000
    119  N         10.4460   -8.4910   35.6020 N.am   78  ILE78      -0.1977
    120  CA        10.4720   -8.9470   36.9840 C.3    78  ILE78       0.1596
    121  C          9.1520   -9.6560   37.3010 C.2    78  ILE78       0.2287
    122  O          8.0840   -9.0260   37.3210 O.2    78  ILE78      -0.2864
    123  CB        10.7020   -7.7820   37.9700 C.3    78  ILE78       0.0276
    124  CG1       11.9570   -6.9780   37.6050 C.3    78  ILE78       0.0022
    125  CG2       10.7900   -8.3180   39.3940 C.3    78  ILE78       0.0022
    126  CD1       13.2320   -7.7990   37.4910 C.3    78  ILE78       0.0001
    127  N          6.8200   -8.3970   40.0190 N.3    81  VAL81      -0.1245
    128  CA         6.2310   -7.1250   39.6750 C.3    81  VAL81       0.1561
    129  C          4.9900   -7.2930   38.8020 C.2    81  VAL81       0.2260
    130  O          3.9380   -6.6980   39.0760 O.2    81  VAL81      -0.2867
    131  CB         7.2970   -6.2570   38.9990 C.3    81  VAL81       0.0252
    132  CG1        6.6850   -5.1600   38.1870 C.3    81  VAL81       0.0019
    133  CG2        8.2210   -5.6840   40.0460 C.3    81  VAL81       0.0019
    134  N          8.4300  -11.1280   30.6690 N.3   100  ALA100     -0.1231
    135  CA         9.3670  -11.2700   29.5670 C.3   100  ALA100      0.1694
    136  C         10.3250  -10.0990   29.5550 C.2   100  ALA100      0.2592
    137  O          9.9990   -9.0050   30.0250 O.2   100  ALA100     -0.2718
    138  CB         8.6220  -11.3480   28.2280 C.3   100  ALA100      0.0304
    139  N         11.5160  -10.3400   29.0190 N.am  101  ASP101     -0.1960
    140  CA        12.4920   -9.2930   28.7550 C.3   101  ASP101      0.1840
    141  C         12.2780   -8.8090   27.3200 C.2   101  ASP101      0.2621
    142  O         12.2700   -9.6220   26.3740 O.2   101  ASP101     -0.2715
    143  CB        13.9070   -9.8570   28.9530 C.3   101  ASP101      0.1450
    144  CG        14.9900   -8.7810   28.9130 C.2   101  ASP101      0.3671
    145  OD1       14.9440   -7.8980   28.0330 O.co2 101  ASP101     -0.2456
    146  OD2       15.9110   -8.8290   29.7610 O.co2 101  ASP101     -0.2456
    147  N         12.0910   -7.5010   27.1500 N.am  102  VAL102     -0.1977
    148  CA        11.8080   -6.9330   25.8220 C.3   102  VAL102      0.1596
    149  C         12.9090   -7.1970   24.8040 C.2   102  VAL102      0.2287
    150  O         12.6720   -7.1130   23.5950 O.2   102  VAL102     -0.2864
    151  CB        11.5090   -5.4140   25.8570 C.3   102  VAL102      0.0276
    152  CG1       10.2890   -5.1350   26.7040 C.3   102  VAL102      0.0022
    153  CG2       12.7060   -4.6180   26.3740 C.3   102  VAL102      0.0022
    154  N          3.3350    1.2720   24.2620 N.3   118  PHE118     -0.1227
    155  CA         3.5350    2.2970   25.2810 C.3   118  PHE118      0.1736
    156  C          4.5830    1.8370   26.2780 C.2   118  PHE118      0.2596
    157  O          4.5080    0.7170   26.7870 O.2   118  PHE118     -0.2718
    158  CB         2.2000    2.5750   25.9920 C.3   118  PHE118      0.0547
    159  CG         2.3280    3.3610   27.2680 C.ar  118  PHE118     -0.0202
    160  CD1        2.8660    4.6400   27.2630 C.ar  118  PHE118     -0.0042
    161  CD2        1.8680    2.8360   28.4640 C.ar  118  PHE118     -0.0042
    162  CE1        2.9720    5.3740   28.4360 C.ar  118  PHE118     -0.0003
    163  CE2        1.9680    3.5660   29.6470 C.ar  118  PHE118     -0.0003
    164  CZ         2.5240    4.8340   29.6280 C.ar  118  PHE118     -0.0000
    165  N          5.5740    2.6870   26.5290 N.am  119  SER119     -0.1938
    166  CA         6.4860    2.4650   27.6400 C.3   119  SER119      0.2055
    167  C          6.7500    3.8120   28.2870 C.2   119  SER119      0.2643
    168  O          6.5580    4.8660   27.6710 O.2   119  SER119     -0.2714
    169  CB         7.7840    1.7710   27.2020 C.3   119  SER119      0.2130
    170  OG         8.5190    2.5590   26.2830 O.3   119  SER119     -0.2179
    171  N          7.1430    3.7690   29.5500 N.am  120  ASN120     -0.1957
    172  CA         7.4640    4.9630   30.3020 C.3   120  ASN120      0.1819
    173  C          8.6130    4.6480   31.2520 C.2   120  ASN120      0.2621
    174  O          8.3950    4.1310   32.3510 O.2   120  ASN120     -0.2715
    175  CB         6.2310    5.4610   31.0520 C.3   120  ASN120      0.1195
    176  CG         6.4590    6.8000   31.6890 C.2   120  ASN120      0.2630
    177  OD1        6.4610    7.8240   31.0070 O.2   120  ASN120     -0.2716
    178  ND2        6.6570    6.8080   33.0040 N.am  120  ASN120     -0.0877
    179  N          9.8200    4.9910   30.7980 N.am  121  TRP121     -0.1960
    180  CA        11.1110    4.5410   31.3370 C.3   121  TRP121      0.1771
    181  C         11.3550    3.0780   30.9800 C.2   121  TRP121      0.2619
    182  O         10.7640    2.1650   31.5660 O.2   121  TRP121     -0.2715
    183  CB        11.2440    4.7670   32.8460 C.3   121  TRP121      0.0590
    184  CG        11.1130    6.1990   33.3060 C.ar  121  TRP121      0.0006
    185  CD1       11.8800    7.2710   32.9330 C.ar  121  TRP121      0.0946
    186  CD2       10.1840    6.6930   34.2800 C.ar  121  TRP121      0.0152
    187  NE1       11.4730    8.3990   33.6070 N.ar  121  TRP121     -0.2442
    188  CE2       10.4390    8.0720   34.4430 C.ar  121  TRP121      0.0810
    189  CE3        9.1670    6.0990   35.0350 C.ar  121  TRP121      0.0012
    190  CZ2        9.7030    8.8690   35.3260 C.ar  121  TRP121      0.0191
    191  CZ3        8.4410    6.8890   35.9080 C.ar  121  TRP121      0.0001
    192  CH2        8.7140    8.2570   36.0520 C.ar  121  TRP121      0.0015
    193  N         12.2250    2.8590   30.0000 N.am  122  LEU122     -0.1977
    194  CA        12.5080    1.5070   29.5300 C.3   122  LEU122      0.1596
    195  C         13.8200    1.4410   28.7600 C.2   122  LEU122      0.2287
    196  O         14.7160    0.6740   29.1030 O.2   122  LEU122     -0.2864
    197  CB        11.3700    0.9800   28.6450 C.3   122  LEU122      0.0297
    198  CG        11.6300   -0.4080   28.0430 C.3   122  LEU122      0.0022
    199  CD1       11.6740   -1.4930   29.1230 C.3   122  LEU122      0.0001
    200  CD2       10.6000   -0.7550   26.9470 C.3   122  LEU122      0.0001
    201  N         17.2730    1.3770   30.1390 N.3   125  TYR125     -0.1227
    202  CA        17.7300    0.1290   30.7730 C.3   125  TYR125      0.1736
    203  C         18.1720   -0.9150   29.7480 C.2   125  TYR125      0.2595
    204  O         18.3420   -2.0930   30.0800 O.2   125  TYR125     -0.2718
    205  CB        16.6580   -0.4280   31.7230 C.3   125  TYR125      0.0548
    206  CG        16.2570    0.5960   32.7440 C.ar  125  TYR125     -0.0200
    207  CD1       17.1810    1.0800   33.6630 C.ar  125  TYR125     -0.0009
    208  CD2       14.9680    1.1100   32.7730 C.ar  125  TYR125     -0.0009
    209  CE1       16.8320    2.0350   34.5970 C.ar  125  TYR125      0.0417
    210  CE2       14.6070    2.0670   33.7000 C.ar  125  TYR125      0.0417
    211  CZ        15.5450    2.5340   34.6040 C.ar  125  TYR125      0.1957
    212  OH        15.1920    3.4960   35.5260 O.3   125  TYR125     -0.2866
    213  N         18.3840   -0.4610   28.5170 N.am  126  LEU126     -0.1980
    214  CA        18.8600   -1.2990   27.4220 C.3   126  LEU126      0.1596
    215  C         20.1830   -0.7490   26.9010 C.2   126  LEU126      0.2287
    216  O         20.4210    0.4560   26.9760 O.2   126  LEU126     -0.2864
    217  CB        17.8340   -1.2960   26.2830 C.3   126  LEU126      0.0297
    218  CG        16.7180   -2.3400   26.2890 C.3   126  LEU126      0.0022
    219  CD1       15.8640   -2.3300   27.5450 C.3   126  LEU126      0.0001
    220  CD2       15.8410   -2.1630   25.0530 C.3   126  LEU126      0.0001
@<TRIPOS>BOND
     1   150   149    2
     2   154   155    1
     3    55    54    1
     4   149   148    1
     5   220   218    1
     6   155   158    1
     7   155   156    1
     8    54    56    1
     9    54    53    1
    10   148   151    1
    11   148   147    1
    12   151   153    1
    13   151   152    1
    14   158   159    1
    15   156   165   am
    16   156   157    2
    17   217   218    1
    18   217   214    1
    19   170   169    1
    20   218   219    1
    21   142   141    2
    22   165   166    1
    23    40    41    1
    24    53    50    1
    25   215   216    2
    26   215   214    1
    27   200   198    1
    28    98    97    1
    29   147   141   am
    30   169   166    1
    31   160   159   ar
    32   160   162   ar
    33   159   161   ar
    34   141   140    1
    35   214   213    1
    36    41    42    1
    37    41    44    1
    38   166   167    1
    39   168   167    2
    40    49    50    1
    41    49    42   am
    42    50    51    1
    43    42    43    2
    44   145   144   ar
    45   198   197    1
    46   198   199    1
    47   138   135    1
    48   167   171   am
    49    97    99    1
    50    97    96    1
    51   162   164   ar
    52     8     7    1
    53     8     9    2
    54   161   163   ar
    55   213   203   am
    56     7     6    1
    57   197   194    1
    58     6     5    1
    59   140   143    1
    60   140   139    1
    61    96    93    1
    62   195   196    2
    63   195   194    1
    64    44    45    1
    65   144   143    1
    66   144   146   ar
    67    11     9    1
    68   139   136   am
    69     9    10    1
    70    51    52    2
    71    51    57   am
    72   194   193    1
    73   171   172    1
    74   136   135    1
    75   136   137    2
    76   135   134    1
    77   164   163   ar
    78   203   204    2
    79   203   202    1
    80    45    46    1
    81   193   181   am
    82   201   202    1
    83    57    58    1
    84     5     2    1
    85    93    92    1
    86    93    94    1
    87   172   175    1
    88   172   173    1
    89     1     2    1
    90   202   205    1
    91   179   173   am
    92   179   180    1
    93     2     3    1
    94   181   180    1
    95   181   182    2
    96   177   176    2
    97   175   176    1
    98    95    94    2
    99    94   100   am
   100    46    47   ar
   101    46    48   ar
   102   173   174    2
   103   180   183    1
   104    58    59    1
   105   176   178   am
   106   205   206    1
   107   100   101    1
   108    59    61   am
   109    59    60    2
   110     3     4    2
   111    61    62    1
   112   112   113    1
   113   112   109    1
   114   114   113   ar
   115   114   116   ar
   116   101   102    1
   117   101   104    1
   118   206   208   ar
   119   206   207   ar
   120   208   210   ar
   121    65    62    1
   122   183   184    1
   123   102   108   am
   124   102   103    2
   125    85    86    1
   126    85    82    1
   127   185   184   ar
   128   185   187   ar
   129   108   109    1
   130    84    83    2
   131   113   115   ar
   132   116   118   ar
   133    62    63    1
   134    87    86   ar
   135    87    89   ar
   136    86    88   ar
   137   109   110    1
   138    89    91   ar
   139   184   186   ar
   140    88    90   ar
   141    91    90   ar
   142   187   188   ar
   143   207   209   ar
   144    83    82    1
   145   210   211   ar
   146   115   117   ar
   147   118   117   ar
   148   104   105    1
   149    82    81    1
   150   186   188   ar
   151   186   189   ar
   152   188   190   ar
   153    63    64    2
   154    63    66   am
   155   209   211   ar
   156   211   212    1
   157   106   105   ar
   158   110   111    2
   159   110   119   am
   160   105   107   ar
   161   189   191   ar
   162    66    67    1
   163    81    72   am
   164   190   192   ar
   165   119   120    1
   166    20    18   ar
   167    20    21   ar
   168    18    17   ar
   169   191   192   ar
   170    80    78    1
   171    72    73    2
   172    72    71    1
   173    67    68    1
   174    21    23   ar
   175    21    19   ar
   176    69    68    2
   177   120   121    1
   178   120   123    1
   179    17    16    1
   180    17    19   ar
   181    23    25   ar
   182    78    79    1
   183    78    77    2
   184   121   122    2
   185   126   124    1
   186    70    71    1
   187    16    13    1
   188    74    71    1
   189    74    75    1
   190    19    22   ar
   191   124   123    1
   192    77    76    1
   193   123   125    1
   194    25    24   ar
   195   132   131    1
   196    38    39    1
   197    38    37    1
   198    22    24   ar
   199    12    13    1
   200   129   130    2
   201   129   128    1
   202    75    76    1
   203    13    14    1
   204   131   128    1
   205   131   133    1
   206    37    36    1
   207   128   127    1
   208    14    15    2
   209    35    34    2
   210    31    30    1
   211    36    33    1
   212    34    33    1
   213    33    32    1
   214    30    27    1
   215    27    26    1
   216    27    28    1
   217    28    29    2
