@<TRIPOS>MOLECULE
tmp/5wp4A01.pdb
 161 157 0 0 0
SMALL
GASTEIGER

@<TRIPOS>ATOM
      1  N         28.8740   13.6180    4.2050 N.3   239  GLN239     -0.1231
      2  CA        29.1080   15.0200    4.5380 C.3   239  GLN239      0.1698
      3  C         28.5040   15.4220    5.8770 C.2   239  GLN239      0.2592
      4  O         29.0730   16.2550    6.5970 O.2   239  GLN239     -0.2718
      5  CB        28.5900   15.9310    3.4230 C.3   239  GLN239      0.0381
      6  CG        28.8840   17.4190    3.6460 C.3   239  GLN239      0.0905
      7  CD        28.5780   18.2780    2.4260 C.2   239  GLN239      0.2608
      8  OE1       27.8900   17.8440    1.4970 O.2   239  GLN239     -0.2717
      9  NE2       29.1010   19.5080    2.4140 N.am  239  GLN239     -0.0878
     10  N         27.3520   14.8540    6.2070 N.am  240  TYR240     -0.1976
     11  CA        26.6510   15.2420    7.4230 C.3   240  TYR240      0.1639
     12  C         26.5220   14.1040    8.4230 C.2   240  TYR240      0.2290
     13  O         25.5030   13.9600    9.1010 O.2   240  TYR240     -0.2864
     14  CB        25.2930   15.8730    7.0940 C.3   240  TYR240      0.0560
     15  CG        25.3960   17.0010    6.0850 C.ar  240  TYR240     -0.0198
     16  CD1       25.9600   18.2190    6.4330 C.ar  240  TYR240     -0.0009
     17  CD2       24.9530   16.8390    4.7800 C.ar  240  TYR240     -0.0009
     18  CE1       26.0630   19.2630    5.5150 C.ar  240  TYR240      0.0417
     19  CE2       25.0520   17.8680    3.8510 C.ar  240  TYR240      0.0417
     20  CZ        25.6050   19.0860    4.2230 C.ar  240  TYR240      0.1957
     21  OH        25.7050   20.1070    3.3020 O.3   240  TYR240     -0.2866
     22  N         31.5360   21.2980   11.4870 N.3   248  TYR248     -0.1241
     23  CA        31.0580   22.4140   10.6790 C.3   248  TYR248      0.1605
     24  C         30.4820   23.4930   11.5920 C.2   248  TYR248      0.2264
     25  O         30.7590   24.6770   11.4210 O.2   248  TYR248     -0.2867
     26  CB        29.9550   21.9480    9.7420 C.3   248  TYR248      0.0534
     27  CG        30.3650   21.4650    8.3620 C.ar  248  TYR248     -0.0201
     28  CD1       31.4640   22.0090    7.6730 C.ar  248  TYR248     -0.0009
     29  CD2       29.6060   20.4980    7.7170 C.ar  248  TYR248     -0.0009
     30  CE1       31.7830   21.5770    6.3680 C.ar  248  TYR248      0.0417
     31  CE2       29.9180   20.0650    6.4280 C.ar  248  TYR248      0.0417
     32  CZ        31.0020   20.6000    5.7650 C.ar  248  TYR248      0.1957
     33  OH        31.2810   20.1600    4.4810 O.3   248  TYR248     -0.2866
     34  N         31.3410   27.4660   11.5570 N.3   252  PHE252     -0.1241
     35  CA        30.3410   28.4390   11.1060 C.3   252  PHE252      0.1605
     36  C         29.7160   29.2610   12.2330 C.2   252  PHE252      0.2264
     37  O         29.3580   30.4270   12.0360 O.2   252  PHE252     -0.2867
     38  CB        29.2210   27.7400   10.3340 C.3   252  PHE252      0.0534
     39  CG        29.6250   27.2060    8.9900 C.ar  252  PHE252     -0.0203
     40  CD1       30.0680   28.0500    7.9890 C.ar  252  PHE252     -0.0042
     41  CD2       29.5110   25.8450    8.7150 C.ar  252  PHE252     -0.0042
     42  CE1       30.3950   27.5490    6.7420 C.ar  252  PHE252     -0.0003
     43  CE2       29.8280   25.3440    7.4690 C.ar  252  PHE252     -0.0003
     44  CZ        30.2780   26.1940    6.4820 C.ar  252  PHE252     -0.0000
     45  N         25.2880   25.5860   10.0290 N.3   257  VAL257     -0.1231
     46  CA        26.0980   24.6660    9.2400 C.3   257  VAL257      0.1692
     47  C         26.3560   25.3070    7.8810 C.2   257  VAL257      0.2593
     48  O         26.6140   24.6160    6.8950 O.2   257  VAL257     -0.2718
     49  CB        25.3950   23.2820    9.0480 C.3   257  VAL257      0.0266
     50  CG1       26.4170   22.1860    8.7440 C.3   257  VAL257      0.0020
     51  CG2       24.5830   22.9000   10.2860 C.3   257  VAL257      0.0020
     52  N         26.2980   26.6330    7.8130 N.am  258  SER258     -0.1938
     53  CA        26.6190   27.3070    6.5570 C.3   258  SER258      0.2055
     54  C         27.1410   28.7210    6.7640 C.2   258  SER258      0.2643
     55  O         27.0890   29.2890    7.8770 O.2   258  SER258     -0.2714
     56  CB        25.4090   27.3280    5.6270 C.3   258  SER258      0.2130
     57  OG        24.4670   28.2870    6.0580 O.3   258  SER258     -0.2179
     58  N         27.6300   29.2470    5.6510 N.am  259  THR259     -0.1950
     59  CA        28.2970   30.5250    5.4900 C.3   259  THR259      0.1897
     60  C         27.8930   31.6080    6.4640 C.2   259  THR259      0.2313
     61  O         26.7600   32.0910    6.4350 O.2   259  THR259     -0.2863
     62  CB        28.0290   31.0500    4.0750 C.3   259  THR259      0.1794
     63  OG1       28.3040   30.0060    3.1310 O.3   259  THR259     -0.2208
     64  CG2       28.8980   32.2640    3.7770 C.3   259  THR259      0.0378
     65  N         19.0780   28.1340    2.9760 N.3   349  ARG349     -0.1231
     66  CA        20.4790   28.5380    3.0690 C.3   349  ARG349      0.1694
     67  C         21.4000   27.3820    2.7460 C.2   349  ARG349      0.2592
     68  O         21.4440   26.3840    3.4860 O.2   349  ARG349     -0.2718
     69  CB        20.7740   29.0650    4.4770 C.3   349  ARG349      0.0321
     70  CG        19.9090   30.2620    4.8930 C.3   349  ARG349      0.0489
     71  CD        20.3080   31.5780    4.1800 C.3   349  ARG349      0.2205
     72  NE        21.7300   31.8380    4.3520 N.pl3 349  ARG349     -0.0865
     73  CZ        22.2450   32.3450    5.4590 C.cat 349  ARG349      0.5346
     74  NH1       21.4550   32.7200    6.4580 N.pl3 349  ARG349      0.1354
     75  NH2       23.5500   32.4900    5.5610 N.pl3 349  ARG349      0.1354
     76  N         22.1240   27.5280    1.6380 N.am  350  ASP350     -0.1974
     77  CA        23.1520   26.5920    1.1830 C.3   350  ASP350      0.1709
     78  C         22.7190   25.1370    1.2880 C.2   350  ASP350      0.2293
     79  O         23.4330   24.2850    1.8160 O.2   350  ASP350     -0.2864
     80  CB        24.4980   26.8390    1.8730 C.3   350  ASP350      0.1436
     81  CG        24.9930   28.2780    1.7250 C.2   350  ASP350      0.3671
     82  OD1       24.4260   29.0640    0.9150 O.co2 350  ASP350     -0.2456
     83  OD2       25.9880   28.6050    2.4060 O.co2 350  ASP350     -0.2456
     84  N         22.0610   23.3840   -3.4970 N.3   353  LEU353     -0.1245
     85  CA        23.1710   22.7330   -4.1970 C.3   353  LEU353      0.1561
     86  C         23.0910   21.2040   -4.1430 C.2   353  LEU353      0.2260
     87  O         23.6940   20.5240   -4.9690 O.2   353  LEU353     -0.2867
     88  CB        24.5300   23.1990   -3.6510 C.3   353  LEU353      0.0270
     89  CG        24.9870   22.7150   -2.2630 C.3   353  LEU353      0.0019
     90  CD1       26.3530   23.2880   -1.9360 C.3   353  LEU353      0.0001
     91  CD2       24.0230   23.0720   -1.1400 C.3   353  LEU353      0.0001
     92  N         25.4240   27.8500   -3.0220 N.3   380  TYR380     -0.1241
     93  CA        26.6830   27.7500   -3.7480 C.3   380  TYR380      0.1605
     94  C         26.3910   27.7560   -5.2480 C.2   380  TYR380      0.2264
     95  O         25.4160   27.1430   -5.6910 O.2   380  TYR380     -0.2867
     96  CB        27.3890   26.4400   -3.4090 C.3   380  TYR380      0.0534
     97  CG        28.1030   26.3720   -2.0680 C.ar  380  TYR380     -0.0201
     98  CD1       27.7960   27.2260   -1.0020 C.ar  380  TYR380     -0.0009
     99  CD2       29.1080   25.4420   -1.8870 C.ar  380  TYR380     -0.0009
    100  CE1       28.4880   27.1160    0.2110 C.ar  380  TYR380      0.0417
    101  CE2       29.7940   25.3310   -0.6890 C.ar  380  TYR380      0.0417
    102  CZ        29.4900   26.1750    0.3460 C.ar  380  TYR380      0.1957
    103  OH        30.1660   26.0900    1.5440 O.3   380  TYR380     -0.2866
    104  N         35.7730   18.2690   -6.6750 N.3   394  TYR394     -0.1241
    105  CA        35.0680   18.7270   -5.4810 C.3   394  TYR394      0.1605
    106  C         33.5650   18.5960   -5.6760 C.2   394  TYR394      0.2264
    107  O         32.8680   18.0370   -4.8260 O.2   394  TYR394     -0.2867
    108  CB        35.4690   20.1750   -5.1940 C.3   394  TYR394      0.0534
    109  CG        34.6080   20.9500   -4.2170 C.ar  394  TYR394     -0.0201
    110  CD1       34.6820   20.7250   -2.8420 C.ar  394  TYR394     -0.0009
    111  CD2       33.7630   21.9510   -4.6660 C.ar  394  TYR394     -0.0009
    112  CE1       33.9070   21.4660   -1.9560 C.ar  394  TYR394      0.0417
    113  CE2       33.0000   22.6920   -3.7960 C.ar  394  TYR394      0.0417
    114  CZ        33.0680   22.4460   -2.4440 C.ar  394  TYR394      0.1957
    115  OH        32.3120   23.2060   -1.5900 O.3   394  TYR394     -0.2866
    116  N         31.1500   15.8960   -3.5880 N.3   398  ARG398     -0.1245
    117  CA        30.0780   16.4440   -2.7700 C.3   398  ARG398      0.1563
    118  C         28.7030   16.0690   -3.3260 C.2   398  ARG398      0.2260
    119  O         27.7140   16.0780   -2.5930 O.2   398  ARG398     -0.2867
    120  CB        30.1960   17.9680   -2.6870 C.3   398  ARG398      0.0307
    121  CG        31.3730   18.4780   -1.8620 C.3   398  ARG398      0.0489
    122  CD        31.1660   18.2410   -0.3750 C.3   398  ARG398      0.2205
    123  NE        32.0160   19.1120    0.4370 N.pl3 398  ARG398     -0.0865
    124  CZ        33.2070   18.7760    0.9230 C.cat 398  ARG398      0.5346
    125  NH1       33.7170   17.5700    0.6880 N.pl3 398  ARG398      0.1354
    126  NH2       33.8900   19.6520    1.6560 N.pl3 398  ARG398      0.1354
    127  N         27.2680   17.9290   -5.6820 N.3   400  TYR400     -0.1241
    128  CA        26.5970   19.2080   -5.9020 C.3   400  TYR400      0.1605
    129  C         26.1190   19.4050   -7.3440 C.2   400  TYR400      0.2264
    130  O         26.7420   18.9380   -8.2950 O.2   400  TYR400     -0.2867
    131  CB        27.5490   20.3580   -5.5690 C.3   400  TYR400      0.0534
    132  CG        27.9390   20.5190   -4.1070 C.ar  400  TYR400     -0.0201
    133  CD1       27.1660   19.9910   -3.0720 C.ar  400  TYR400     -0.0009
    134  CD2       29.0880   21.2370   -3.7710 C.ar  400  TYR400     -0.0009
    135  CE1       27.5370   20.1830   -1.7320 C.ar  400  TYR400      0.0417
    136  CE2       29.4660   21.4310   -2.4460 C.ar  400  TYR400      0.0417
    137  CZ        28.6820   20.9070   -1.4390 C.ar  400  TYR400      0.1957
    138  OH        29.0270   21.1040   -0.1170 O.3   400  TYR400     -0.2866
    139  N         38.6890   24.9150    3.6930 N.3   463  TRP463     -0.1241
    140  CA        38.5140   26.3640    3.6220 C.3   463  TRP463      0.1605
    141  C         39.5630   27.0140    2.7190 C.2   463  TRP463      0.2264
    142  O         39.2460   27.9350    1.9520 O.2   463  TRP463     -0.2867
    143  CB        38.5100   26.9740    5.0320 C.3   463  TRP463      0.0550
    144  CG        37.1140   27.2370    5.5610 C.ar  463  TRP463      0.0003
    145  CD1       36.5890   28.4480    5.8770 C.ar  463  TRP463      0.0946
    146  CD2       36.0700   26.2690    5.8050 C.ar  463  TRP463      0.0152
    147  NE1       35.2880   28.3090    6.3000 N.ar  463  TRP463     -0.2442
    148  CE2       34.9470   26.9840    6.2680 C.ar  463  TRP463      0.0810
    149  CE3       35.9820   24.8740    5.6830 C.ar  463  TRP463      0.0012
    150  CZ2       33.7440   26.3600    6.5970 C.ar  463  TRP463      0.0191
    151  CZ3       34.7780   24.2480    6.0240 C.ar  463  TRP463      0.0001
    152  CH2       33.6800   24.9970    6.4840 C.ar  463  TRP463      0.0015
    153  N         38.4720   26.3700   -0.8390 N.3   466  LYS466     -0.1245
    154  CA        37.4130   27.2900   -1.2370 C.3   466  LYS466      0.1561
    155  C         37.9480   28.6860   -1.5320 C.2   466  LYS466      0.2260
    156  O         37.5370   29.3170   -2.5110 O.2   466  LYS466     -0.2867
    157  CB        36.2840   27.3340   -0.2010 C.3   466  LYS466      0.0271
    158  CG        35.3360   26.1370   -0.3060 C.3   466  LYS466      0.0035
    159  CD        34.2460   26.1450    0.7810 C.3   466  LYS466      0.0206
    160  CE        34.8050   25.8960    2.1860 C.3   466  LYS466      0.1093
    161  NZ        33.7020   25.6650    3.1870 N.3   466  LYS466     -0.1314
@<TRIPOS>BOND
     1   130   129    2
     2   129   128    1
     3   104   105    1
     4   128   127    1
     5   128   131    1
     6    95    94    2
     7   106   105    1
     8   106   107    2
     9   131   132    1
    10   105   108    1
    11    94    93    1
    12   108   109    1
    13    87    86    2
    14   111   109   ar
    15   111   113   ar
    16   109   110   ar
    17    85    86    1
    18    85    88    1
    19    85    84    1
    20   132   134   ar
    21   132   133   ar
    22   113   114   ar
    23   134   136   ar
    24    93    96    1
    25    93    92    1
    26    88    89    1
    27   116   117    1
    28    96    97    1
    29   118   117    1
    30   118   119    2
    31   133   135   ar
    32   110   112   ar
    33   117   120    1
    34   120   121    1
    35   156   155    2
    36   136   137   ar
    37   114   112   ar
    38   114   115    1
    39    89    90    1
    40    89    91    1
    41    97    99   ar
    42    97    98   ar
    43    99   101   ar
    44   121   122    1
    45   135   137   ar
    46   155   154    1
    47   137   138    1
    48   154   153    1
    49   154   157    1
    50    98   100   ar
    51   101   102   ar
    52   122   123    1
    53   158   157    1
    54   158   159    1
    55   100   102   ar
    56   102   103    1
    57   123   124    2
    58   125   124    1
    59   159   160    1
    60    82    81   ar
    61   124   126    1
    62    77    78    1
    63    77    76    1
    64    77    80    1
    65    78    79    2
    66     8     7    2
    67    76    67   am
    68    81    80    1
    69    81    83   ar
    70   142   141    2
    71   160   161    1
    72     9     7   am
    73     7     6    1
    74   141   140    1
    75    67    66    1
    76    67    68    2
    77    65    66    1
    78    66    69    1
    79    63    62    1
    80    21    20    1
    81     5     6    1
    82     5     2    1
    83   140   139    1
    84   140   143    1
    85    64    62    1
    86    19    20   ar
    87    19    17   ar
    88    62    59    1
    89    71    72    1
    90    71    70    1
    91     1     2    1
    92    20    18   ar
    93    72    73    2
    94    69    70    1
    95    33    32    1
    96     2     3    1
    97    17    15   ar
    98   143   144    1
    99    73    75    1
   100    73    74    1
   101    59    58    1
   102    59    60    1
   103    18    16   ar
   104   144   146   ar
   105   144   145   ar
   106    56    57    1
   107    56    53    1
   108    58    54   am
   109   149   146   ar
   110   149   151   ar
   111    32    30   ar
   112    32    31   ar
   113   146   148   ar
   114     3    10   am
   115     3     4    2
   116   145   147   ar
   117   151   152   ar
   118    15    16   ar
   119    15    14    1
   120    10    11    1
   121   148   147   ar
   122   148   150   ar
   123    30    28   ar
   124    31    29   ar
   125    61    60    2
   126    44    42   ar
   127    44    43   ar
   128   152   150   ar
   129    53    54    1
   130    53    52    1
   131    42    40   ar
   132    54    55    2
   133    48    47    2
   134    14    11    1
   135    11    12    1
   136    43    41   ar
   137    28    27   ar
   138    29    27   ar
   139    52    47   am
   140    47    46    1
   141    40    39   ar
   142    27    26    1
   143    12    13    2
   144    41    39   ar
   145    50    49    1
   146    39    38    1
   147    49    46    1
   148    49    51    1
   149    46    45    1
   150    26    23    1
   151    38    35    1
   152    23    22    1
   153    23    24    1
   154    35    34    1
   155    35    36    1
   156    25    24    2
   157    37    36    2
