@<TRIPOS>MOLECULE
tmp/5wp4A03.pdb
 151 149 0 0 0
SMALL
GASTEIGER

@<TRIPOS>ATOM
      1  N         19.5520   -4.5910   38.9090 N.3     9  TYR9       -0.1227
      2  CA        19.1260   -3.2810   39.3640 C.3     9  TYR9        0.1736
      3  C         17.6320   -3.2950   39.6380 C.2     9  TYR9        0.2595
      4  O         17.1860   -2.8210   40.6750 O.2     9  TYR9       -0.2718
      5  CB        19.4560   -2.2730   38.2810 C.3     9  TYR9        0.0548
      6  CG        19.1770   -0.8220   38.5680 C.ar    9  TYR9       -0.0200
      7  CD1       19.9870   -0.0850   39.4270 C.ar    9  TYR9       -0.0009
      8  CD2       18.1430   -0.1680   37.9200 C.ar    9  TYR9       -0.0009
      9  CE1       19.7580    1.2670   39.6360 C.ar    9  TYR9        0.0417
     10  CE2       17.8950    1.1770   38.1320 C.ar    9  TYR9        0.0417
     11  CZ        18.7080    1.8890   38.9840 C.ar    9  TYR9        0.1957
     12  OH        18.4700    3.2260   39.1640 O.3     9  TYR9       -0.2866
     13  N         16.8630   -3.8730   38.7190 N.am   10  TRP10      -0.1976
     14  CA        15.4170   -3.9290   38.9010 C.3    10  TRP10       0.1640
     15  C         14.9480   -4.9600   39.9280 C.2    10  TRP10       0.2290
     16  O         13.9150   -4.7700   40.5650 O.2    10  TRP10      -0.2864
     17  CB        14.6830   -4.0150   37.5550 C.3    10  TRP10       0.0576
     18  CG        14.6230   -2.6400   36.9900 C.ar   10  TRP10       0.0006
     19  CD1       15.2890   -2.1460   35.8980 C.ar   10  TRP10       0.0946
     20  CD2       13.9210   -1.5370   37.5650 C.ar   10  TRP10       0.0152
     21  NE1       15.0050   -0.8080   35.7460 N.ar   10  TRP10      -0.2442
     22  CE2       14.1760   -0.4100   36.7630 C.ar   10  TRP10       0.0810
     23  CE3       13.0860   -1.4000   38.6790 C.ar   10  TRP10       0.0012
     24  CZ2       13.6180    0.8390   37.0430 C.ar   10  TRP10       0.0191
     25  CZ3       12.5460   -0.1660   38.9580 C.ar   10  TRP10       0.0001
     26  CH2       12.8060    0.9380   38.1420 C.ar   10  TRP10       0.0015
     27  N          9.7930    2.1960   42.9240 N.3    22  MET22      -0.1230
     28  CA        10.0390    2.3370   41.4940 C.3    22  MET22       0.1702
     29  C         10.5550    3.7290   41.1320 C.2    22  MET22       0.2592
     30  O         11.3790    3.8880   40.2240 O.2    22  MET22      -0.2718
     31  CB         8.7520    2.0230   40.7200 C.3    22  MET22       0.0401
     32  CG         8.8380    2.2210   39.2160 C.3    22  MET22       0.0596
     33  SD         8.4870    3.9050   38.6770 S.3    22  MET22      -0.1393
     34  CE         6.7440    4.0390   39.0730 C.3    22  MET22       0.0692
     35  N         10.0640    4.7390   41.8380 N.am   23  MET23      -0.1965
     36  CA        10.3370    6.1220   41.4660 C.3    23  MET23       0.1736
     37  C         11.7530    6.5970   41.7770 C.2    23  MET23       0.2616
     38  O         12.2410    7.5400   41.1460 O.2    23  MET23      -0.2715
     39  CB         9.3100    7.0540   42.1020 C.3    23  MET23       0.0427
     40  CG         7.9220    6.9420   41.4810 C.3    23  MET23       0.0599
     41  SD         7.8580    7.5460   39.7870 S.3    23  MET23      -0.1393
     42  CE         7.6170    9.2970   40.0720 C.3    23  MET23       0.0692
     43  N         12.3950    5.9600   42.7550 N.am   24  LEU24      -0.1977
     44  CA        13.7590    6.3130   43.1380 C.3    24  LEU24       0.1596
     45  C         13.9000    7.8110   43.4100 C.2    24  LEU24       0.2287
     46  O         14.8650    8.4470   42.9840 O.2    24  LEU24      -0.2864
     47  CB        14.7530    5.8440   42.0690 C.3    24  LEU24       0.0297
     48  CG        14.7110    4.3450   41.7460 C.3    24  LEU24       0.0022
     49  CD1       15.7250    3.9690   40.6800 C.3    24  LEU24       0.0001
     50  CD2       14.9590    3.5460   43.0030 C.3    24  LEU24       0.0001
     51  N          9.8200    4.9910   30.7980 N.3   121  TRP121     -0.1241
     52  CA        11.1110    4.5410   31.3370 C.3   121  TRP121      0.1605
     53  C         11.3550    3.0780   30.9800 C.2   121  TRP121      0.2264
     54  O         10.7640    2.1650   31.5660 O.2   121  TRP121     -0.2867
     55  CB        11.2440    4.7670   32.8460 C.3   121  TRP121      0.0550
     56  CG        11.1130    6.1990   33.3060 C.ar  121  TRP121      0.0003
     57  CD1       11.8800    7.2710   32.9330 C.ar  121  TRP121      0.0946
     58  CD2       10.1840    6.6930   34.2800 C.ar  121  TRP121      0.0152
     59  NE1       11.4730    8.3990   33.6070 N.ar  121  TRP121     -0.2442
     60  CE2       10.4390    8.0720   34.4430 C.ar  121  TRP121      0.0810
     61  CE3        9.1670    6.0990   35.0350 C.ar  121  TRP121      0.0012
     62  CZ2        9.7030    8.8690   35.3260 C.ar  121  TRP121      0.0191
     63  CZ3        8.4410    6.8890   35.9080 C.ar  121  TRP121      0.0001
     64  CH2        8.7140    8.2570   36.0520 C.ar  121  TRP121      0.0015
     65  N         16.2790    3.3710   28.5800 N.3   124  MET124     -0.1230
     66  CA        17.4280    3.7210   29.4100 C.3   124  MET124      0.1702
     67  C         18.0010    2.4940   30.1530 C.2   124  MET124      0.2592
     68  O         19.1020    2.5590   30.7040 O.2   124  MET124     -0.2718
     69  CB        17.0290    4.8170   30.4050 C.3   124  MET124      0.0401
     70  CG        15.9120    4.3760   31.3620 C.3   124  MET124      0.0596
     71  SD        14.9940    5.7450   32.1150 S.3   124  MET124     -0.1393
     72  CE        16.0830    6.2350   33.4480 C.3   124  MET124      0.0692
     73  N         17.2730    1.3770   30.1390 N.am  125  TYR125     -0.1976
     74  CA        17.7300    0.1290   30.7730 C.3   125  TYR125      0.1639
     75  C         18.1720   -0.9150   29.7480 C.2   125  TYR125      0.2290
     76  O         18.3420   -2.0930   30.0800 O.2   125  TYR125     -0.2864
     77  CB        16.6580   -0.4280   31.7230 C.3   125  TYR125      0.0560
     78  CG        16.2570    0.5960   32.7440 C.ar  125  TYR125     -0.0198
     79  CD1       17.1810    1.0800   33.6630 C.ar  125  TYR125     -0.0009
     80  CD2       14.9680    1.1100   32.7730 C.ar  125  TYR125     -0.0009
     81  CE1       16.8320    2.0350   34.5970 C.ar  125  TYR125      0.0417
     82  CE2       14.6070    2.0670   33.7000 C.ar  125  TYR125      0.0417
     83  CZ        15.5450    2.5340   34.6040 C.ar  125  TYR125      0.1957
     84  OH        15.1920    3.4960   35.5260 O.3   125  TYR125     -0.2866
     85  N         14.7060    9.1840   30.9560 N.3   153  SER153     -0.1217
     86  CA        15.6110   10.1760   31.5330 C.3   153  SER153      0.1889
     87  C         16.7680   10.3770   30.5670 C.2   153  SER153      0.2288
     88  O         17.4990    9.4310   30.2620 O.2   153  SER153     -0.2866
     89  CB        16.1850    9.7050   32.8720 C.3   153  SER153      0.2089
     90  OG        15.1920    9.6070   33.8800 O.3   153  SER153     -0.2183
     91  N         20.7950   11.3600   35.6560 N.3   157  GLN157     -0.1231
     92  CA        19.8490   10.8280   36.6330 C.3   157  GLN157      0.1698
     93  C         18.8940   11.8910   37.1650 C.2   157  GLN157      0.2593
     94  O         19.3150   12.9890   37.5290 O.2   157  GLN157     -0.2718
     95  CB        20.6420   10.2110   37.7820 C.3   157  GLN157      0.0381
     96  CG        19.8440    9.7760   38.9940 C.3   157  GLN157      0.0905
     97  CD        20.7300    9.1490   40.0330 C.2   157  GLN157      0.2608
     98  OE1       21.7510    8.5410   39.7080 O.2   157  GLN157     -0.2717
     99  NE2       20.3620    9.3060   41.2920 N.am  157  GLN157     -0.0878
    100  N         17.6090   11.5540   37.2080 N.am  158  SER158     -0.1938
    101  CA        16.5860   12.4690   37.7030 C.3   158  SER158      0.2055
    102  C         16.3770   12.3650   39.2190 C.2   158  SER158      0.2643
    103  O         16.3610   13.3760   39.9210 O.2   158  SER158     -0.2714
    104  CB        15.2610   12.1900   37.0000 C.3   158  SER158      0.2130
    105  OG        14.2530   13.0550   37.4840 O.3   158  SER158     -0.2179
    106  N         16.2120   11.1410   39.7170 N.am  159  GLY159     -0.1954
    107  CA        15.8650   10.9230   41.1100 C.3   159  GLY159      0.1869
    108  C         16.9870   11.2050   42.0820 C.2   159  GLY159      0.2309
    109  O         18.1650   11.2090   41.7190 O.2   159  GLY159     -0.2863
    110  N         21.8850    5.1070   45.5900 N.3   163  ARG163     -0.1245
    111  CA        22.0090    3.8750   44.8190 C.3   163  ARG163      0.1563
    112  C         23.4420    3.3640   44.8090 C.2   163  ARG163      0.2260
    113  O         24.3520    4.0500   44.3350 O.2   163  ARG163     -0.2867
    114  CB        21.5280    4.1080   43.3910 C.3   163  ARG163      0.0307
    115  CG        20.1550    4.7340   43.3390 C.3   163  ARG163      0.0489
    116  CD        19.8070    5.1870   41.9620 C.3   163  ARG163      0.2205
    117  NE        18.7490    6.1910   41.9830 N.pl3 163  ARG163     -0.0865
    118  CZ        18.2280    6.7280   40.8880 C.cat 163  ARG163      0.5346
    119  NH1       18.6640    6.3390   39.7000 N.pl3 163  ARG163      0.1354
    120  NH2       17.2770    7.6460   40.9770 N.pl3 163  ARG163      0.1354
    121  N         22.0420    2.4420   34.5550 N.3   168  THR168     -0.1218
    122  CA        21.1740    3.2060   33.6660 C.3   168  THR168      0.1862
    123  C         21.9750    3.9720   32.6140 C.2   168  THR168      0.2287
    124  O         23.0420    4.5290   32.9090 O.2   168  THR168     -0.2866
    125  CB        20.3350    4.2130   34.4610 C.3   168  THR168      0.1770
    126  OG1       19.6630    3.5370   35.5290 O.3   168  THR168     -0.2211
    127  CG2       19.3070    4.8670   33.5820 C.3   168  THR168      0.0375
    128  N         21.9630    7.2180   30.5280 N.3   170  TYR170     -0.1241
    129  CA        21.4000    8.5550   30.3850 C.3   170  TYR170      0.1605
    130  C         21.9130    9.1800   29.0990 C.2   170  TYR170      0.2264
    131  O         22.9930    9.7650   29.0580 O.2   170  TYR170     -0.2867
    132  CB        21.7620    9.4200   31.5960 C.3   170  TYR170      0.0534
    133  CG        21.3250    8.8030   32.9060 C.ar  170  TYR170     -0.0201
    134  CD1       19.9870    8.7900   33.2750 C.ar  170  TYR170     -0.0009
    135  CD2       22.2490    8.2160   33.7660 C.ar  170  TYR170     -0.0009
    136  CE1       19.5760    8.2200   34.4670 C.ar  170  TYR170      0.0417
    137  CE2       21.8470    7.6420   34.9750 C.ar  170  TYR170      0.0417
    138  CZ        20.5080    7.6480   35.3160 C.ar  170  TYR170      0.1957
    139  OH        20.1050    7.0800   36.5120 O.3   170  TYR170     -0.2866
    140  N          7.9440   17.4130   35.6940 N.3   206  TYR206     -0.1241
    141  CA         9.3420   17.3880   36.1230 C.3   206  TYR206      0.1605
    142  C         10.0530   18.7340   35.9590 C.2   206  TYR206      0.2264
    143  O         10.9550   19.0650   36.7320 O.2   206  TYR206     -0.2867
    144  CB        10.1030   16.2670   35.4120 C.3   206  TYR206      0.0534
    145  CG         9.8870   14.9260   36.0650 C.ar  206  TYR206     -0.0201
    146  CD1       10.8460   14.3860   36.9130 C.ar  206  TYR206     -0.0009
    147  CD2        8.7120   14.2130   35.8620 C.ar  206  TYR206     -0.0009
    148  CE1       10.6510   13.1690   37.5200 C.ar  206  TYR206      0.0417
    149  CE2        8.5080   12.9910   36.4700 C.ar  206  TYR206      0.0417
    150  CZ         9.4810   12.4740   37.2970 C.ar  206  TYR206      0.1957
    151  OH         9.2790   11.2610   37.9120 O.3   206  TYR206     -0.2866
@<TRIPOS>BOND
     1    65    66    1
     2   131   130    2
     3   130   129    1
     4    66    67    1
     5    66    69    1
     6    75    76    2
     7    75    74    1
     8    73    67   am
     9    73    74    1
    10    67    68    2
    11    88    87    2
    12   129   128    1
    13   129   132    1
    14    69    70    1
    15    87    86    1
    16    74    77    1
    17    51    52    1
    18    85    86    1
    19    53    52    1
    20    53    54    2
    21    52    55    1
    22    70    71    1
    23    86    89    1
    24   132   133    1
    25    77    78    1
    26    71    72    1
    27   123   124    2
    28   123   122    1
    29    78    80   ar
    30    78    79   ar
    31    80    82   ar
    32    55    56    1
    33    89    90    1
    34   133   134   ar
    35   133   135   ar
    36    57    56   ar
    37    57    59   ar
    38   134   136   ar
    39    56    58   ar
    40   127   125    1
    41    59    60   ar
    42    79    81   ar
    43   122   125    1
    44   122   121    1
    45    82    83   ar
    46   135   137   ar
    47    58    60   ar
    48    58    61   ar
    49    60    62   ar
    50   125   126    1
    51   136   138   ar
    52    81    83   ar
    53    83    84    1
    54   137   138   ar
    55    61    63   ar
    56   138   139    1
    57    62    64   ar
    58   144   145    1
    59   144   141    1
    60    91    92    1
    61   140   141    1
    62    21    19   ar
    63    21    22   ar
    64   147   145   ar
    65   147   149   ar
    66    19    18   ar
    67    63    64   ar
    68   142   141    1
    69   142   143    2
    70   145   146   ar
    71   149   150   ar
    72    92    93    1
    73    92    95    1
    74    22    24   ar
    75    22    20   ar
    76   146   148   ar
    77    18    17    1
    78    18    20   ar
    79   104   105    1
    80   104   101    1
    81    24    26   ar
    82    93   100   am
    83    93    94    2
    84   100   101    1
    85   150   148   ar
    86   150   151    1
    87    17    14    1
    88    20    23   ar
    89   101   102    1
    90    95    96    1
    91     8    10   ar
    92     8     6   ar
    93    10    11   ar
    94    26    25   ar
    95     5     6    1
    96     5     2    1
    97     6     7   ar
    98    33    34    1
    99    33    32    1
   100    23    25   ar
   101    13    14    1
   102    13     3   am
   103    14    15    1
   104     1     2    1
   105    11    12    1
   106    11     9   ar
   107    96    97    1
   108    32    31    1
   109   102   106   am
   110   102   103    2
   111     2     3    1
   112     7     9   ar
   113     3     4    2
   114   119   118    1
   115    98    97    2
   116   106   107    1
   117    41    42    1
   118    41    40    1
   119    15    16    2
   120    97    99   am
   121    30    29    2
   122    49    48    1
   123    31    28    1
   124   118   120    1
   125   118   117    2
   126   107   108    1
   127    29    28    1
   128    29    35   am
   129    38    37    2
   130    36    37    1
   131    36    35    1
   132    36    39    1
   133    40    39    1
   134    28    27    1
   135   109   108    2
   136    48    47    1
   137    48    50    1
   138    37    43   am
   139   116   117    1
   140   116   115    1
   141    47    44    1
   142    43    44    1
   143    46    45    2
   144    44    45    1
   145   115   114    1
   146   114   111    1
   147   113   112    2
   148   112   111    1
   149   111   110    1
