@<TRIPOS>MOLECULE
tmp/5wp9A00.pdb
 202 194 0 0 0
SMALL
GASTEIGER

@<TRIPOS>ATOM
      1  N        155.9470  209.3220  294.0030 N.3    34  GLN34      -0.1231
      2  CA       156.2220  210.7460  293.8450 C.3    34  GLN34       0.1698
      3  C        157.2770  211.2290  294.8180 C.2    34  GLN34       0.2593
      4  O        157.2170  210.9530  296.0120 O.2    34  GLN34      -0.2718
      5  CB       154.9340  211.5470  294.0400 C.3    34  GLN34       0.0381
      6  CG       153.8910  211.2940  292.9700 C.3    34  GLN34       0.0905
      7  CD       152.5430  211.8840  293.3090 C.2    34  GLN34       0.2608
      8  OE1      152.2490  212.1840  294.4700 O.2    34  GLN34      -0.2717
      9  NE2      151.7020  212.0460  292.2950 N.am   34  GLN34      -0.0878
     10  N        158.2420  211.9780  294.2800 N.am   35  SER35      -0.1938
     11  CA       159.3290  212.5750  295.0620 C.3    35  SER35       0.2055
     12  C        160.2590  211.5500  295.6950 C.2    35  SER35       0.2644
     13  O        160.9320  211.8470  296.6840 O.2    35  SER35      -0.2714
     14  CB       158.7670  213.4800  296.1550 C.3    35  SER35       0.2130
     15  OG       158.2100  214.6510  295.6220 O.3    35  SER35      -0.2179
     16  N        160.3600  210.3590  295.0980 N.am   36  SER36      -0.1935
     17  CA       161.3270  209.3730  295.5680 C.3    36  SER36       0.2055
     18  C        162.7530  209.6960  295.1000 C.2    36  SER36       0.2644
     19  O        163.7130  209.2510  295.7260 O.2    36  SER36      -0.2714
     20  CB       160.9480  207.9820  295.1080 C.3    36  SER36       0.2130
     21  OG       161.1300  207.8320  293.7290 O.3    36  SER36      -0.2179
     22  N        162.8890  210.4800  294.0330 N.am   37  GLY37      -0.1939
     23  CA       164.2170  210.8720  293.5470 C.3    37  GLY37       0.2014
     24  C        164.4850  210.4050  292.1130 C.2    37  GLY37       0.2639
     25  O        165.6350  210.3240  291.6850 O.2    37  GLY37      -0.2714
     26  N        163.4190  210.0580  291.3910 N.am   38  LYS38      -0.1963
     27  CA       163.5190  209.4490  290.0630 C.3    38  LYS38       0.1728
     28  C        164.3110  210.3060  289.0680 C.2    38  LYS38       0.2617
     29  O        165.2750  209.8180  288.4730 O.2    38  LYS38      -0.2715
     30  CB       162.1250  209.1870  289.4980 C.3    38  LYS38       0.0311
     31  CG       161.3230  208.1540  290.2750 C.3    38  LYS38       0.0038
     32  CD       160.0140  207.8340  289.5770 C.3    38  LYS38       0.0206
     33  CE       159.1000  209.0340  289.5650 C.3    38  LYS38       0.1093
     34  NZ       158.8250  209.5200  290.9390 N.3    38  LYS38      -0.1314
     35  N        163.8710  211.5340  288.8680 N.am   39  SER39      -0.1936
     36  CA       164.4950  212.4110  287.8740 C.3    39  SER39       0.2055
     37  C        165.9560  212.6430  288.2260 C.2    39  SER39       0.2643
     38  O        166.8240  212.5780  287.3620 O.2    39  SER39      -0.2714
     39  CB       163.7470  213.7380  287.7940 C.3    39  SER39       0.2130
     40  OG       162.4330  213.5580  287.3360 O.3    39  SER39      -0.2179
     41  N        166.2210  212.8520  289.5140 N.am   40  SER40      -0.1949
     42  CA       167.5980  213.0220  289.9980 C.3    40  SER40       0.1924
     43  C        168.5110  211.8560  289.6300 C.2    40  SER40       0.2314
     44  O        169.6660  212.0680  289.2630 O.2    40  SER40      -0.2863
     45  CB       167.6240  213.1930  291.5030 C.3    40  SER40       0.2116
     46  OG       167.0680  214.4180  291.8800 O.3    40  SER40      -0.2180
     47  N        162.9950  219.0850  288.5380 N.3    53  ARG53      -0.1231
     48  CA       163.2420  218.4460  289.8290 C.3    53  ARG53       0.1694
     49  C        162.5770  219.2230  290.9440 C.2    53  ARG53       0.2593
     50  O        162.4150  220.4400  290.8510 O.2    53  ARG53      -0.2718
     51  CB       164.7230  218.3490  290.1000 C.3    53  ARG53       0.0321
     52  CG       165.3850  219.6760  290.4250 C.3    53  ARG53       0.0489
     53  CD       165.5610  220.5040  289.2110 C.3    53  ARG53       0.2205
     54  NE       166.2700  219.7800  288.1800 N.pl3  53  ARG53      -0.0865
     55  CZ       167.6010  219.6030  288.1510 C.cat  53  ARG53       0.5346
     56  NH1      168.3640  220.1200  289.0850 N.pl3  53  ARG53       0.1354
     57  NH2      168.1530  218.9080  287.1800 N.pl3  53  ARG53       0.1354
     58  N        162.2020  218.5310  292.0150 N.am   54  GLY54      -0.1942
     59  CA       161.5960  219.2190  293.1450 C.3    54  GLY54       0.2014
     60  C        160.7200  218.3210  294.0060 C.2    54  GLY54       0.2640
     61  O        160.5820  217.1230  293.7210 O.2    54  GLY54      -0.2714
     62  N        160.1450  218.8940  295.0510 N.am   55  THR55      -0.1936
     63  CA       159.3340  218.1340  296.0010 C.3    55  THR55       0.2028
     64  C        157.9020  217.9950  295.5200 C.2    55  THR55       0.2643
     65  O        157.4600  218.6900  294.6070 O.2    55  THR55      -0.2714
     66  CB       159.3330  218.8170  297.3850 C.3    55  THR55       0.1808
     67  OG1      158.6780  220.0850  297.2980 O.3    55  THR55      -0.2208
     68  CG2      160.7500  219.0150  297.8790 C.3    55  THR55       0.0379
     69  N        157.1590  217.0970  296.1690 N.am   56  GLY56      -0.1939
     70  CA       155.7650  216.8680  295.8470 C.3    56  GLY56       0.2014
     71  C        155.6120  216.2780  294.4570 C.2    56  GLY56       0.2639
     72  O        156.1350  215.1870  294.1790 O.2    56  GLY56      -0.2714
     73  N        154.9050  216.9920  293.5920 N.am   57  ILE57      -0.1963
     74  CA       154.7100  216.5680  292.2140 C.3    57  ILE57       0.1727
     75  C        155.4540  217.4900  291.2480 C.2    57  ILE57       0.2616
     76  O        155.3000  218.7090  291.2970 O.2    57  ILE57      -0.2715
     77  CB       153.2200  216.5550  291.8490 C.3    57  ILE57       0.0290
     78  CG1      152.4600  215.6260  292.7920 C.3    57  ILE57       0.0022
     79  CG2      153.0450  216.1040  290.4090 C.3    57  ILE57       0.0023
     80  CD1      150.9650  215.7510  292.6640 C.3    57  ILE57       0.0001
     81  N        156.2660  216.9020  290.3770 N.am   58  VAL58      -0.1963
     82  CA       157.0350  217.6490  289.3830 C.3    58  VAL58       0.1727
     83  C        156.8670  217.0690  287.9940 C.2    58  VAL58       0.2616
     84  O        156.3320  217.7200  287.0910 O.2    58  VAL58      -0.2715
     85  CB       158.5270  217.6530  289.7450 C.3    58  VAL58       0.0290
     86  CG1      159.3250  218.3740  288.6700 C.3    58  VAL58       0.0023
     87  CG2      158.7150  218.3300  291.0860 C.3    58  VAL58       0.0023
     88  N        157.3150  215.8250  287.8220 N.am   59  THR59      -0.1951
     89  CA       157.1440  215.1440  286.5470 C.3    59  THR59       0.1897
     90  C        155.6890  214.7610  286.3810 C.2    59  THR59       0.2313
     91  O        155.1410  214.0010  287.1800 O.2    59  THR59      -0.2863
     92  CB       158.0200  213.8770  286.4440 C.3    59  THR59       0.1794
     93  OG1      159.4010  214.2100  286.6810 O.3    59  THR59      -0.2208
     94  CG2      157.8890  213.2620  285.0600 C.3    59  THR59       0.0378
     95  N        159.4330  208.9610  284.2420 N.3   134  LEU134     -0.1245
     96  CA       158.0100  208.8050  284.5230 C.3   134  LEU134      0.1561
     97  C        157.5310  209.6270  285.7210 C.2   134  LEU134      0.2260
     98  O        158.3170  209.9980  286.5930 O.2   134  LEU134     -0.2867
     99  CB       157.7030  207.3310  284.7490 C.3   134  LEU134      0.0270
    100  CG       157.9590  206.4560  283.5300 C.3   134  LEU134      0.0019
    101  CD1      157.7830  205.0010  283.8870 C.3   134  LEU134      0.0001
    102  CD2      156.9920  206.8640  282.4430 C.3   134  LEU134      0.0001
    103  N        155.5270  210.1210  289.2460 N.3   136  GLY136     -0.1225
    104  CA       155.5490  209.2820  290.4270 C.3   136  GLY136      0.1811
    105  C        154.2240  208.5910  290.6590 C.2   136  GLY136      0.2280
    106  O        153.1620  209.1250  290.3360 O.2   136  GLY136     -0.2866
    107  N        167.2310  205.8020  297.3830 N.3   202  THR202     -0.1203
    108  CA       167.7420  207.1720  297.3910 C.3   202  THR202      0.1994
    109  C        167.5290  207.8200  298.7300 C.2   202  THR202      0.2617
    110  O        166.8580  207.2640  299.5880 O.2   202  THR202     -0.2717
    111  CB       167.0670  208.0280  296.3240 C.3   202  THR202      0.1784
    112  OG1      165.6850  208.1720  296.6560 O.3   202  THR202     -0.2211
    113  CG2      167.1920  207.3810  294.9590 C.3   202  THR202      0.0376
    114  N        168.0820  209.0130  298.9060 N.am  203  LYS203     -0.1979
    115  CA       167.9080  209.7500  300.1500 C.3   203  LYS203      0.1596
    116  C        168.3680  208.9540  301.3660 C.2   203  LYS203      0.2287
    117  O        167.7770  209.0720  302.4370 O.2   203  LYS203     -0.2864
    118  CB       166.4370  210.1470  300.3300 C.3   203  LYS203      0.0298
    119  CG       165.8790  211.0250  299.2240 C.3   203  LYS203      0.0038
    120  CD       164.4190  211.3560  299.4560 C.3   203  LYS203      0.0206
    121  CE       163.8900  212.2860  298.3800 C.3   203  LYS203      0.1093
    122  NZ       162.5050  212.7380  298.6710 N.3   203  LYS203     -0.1314
    123  N        170.8490  209.7090  303.0360 N.3   205  ASP205     -0.1225
    124  CA       171.2100  210.7620  303.9690 C.3   205  ASP205      0.1805
    125  C        170.0010  211.2640  304.7660 C.2   205  ASP205      0.2597
    126  O        170.1580  211.8980  305.8090 O.2   205  ASP205     -0.2718
    127  CB       171.8430  211.9360  303.2220 C.3   205  ASP205      0.1424
    128  CG       170.8740  212.6330  302.2670 C.2   205  ASP205      0.3668
    129  OD1      170.3890  212.0040  301.3520 O.co2 205  ASP205     -0.2456
    130  OD2      170.6280  213.7970  302.4710 O.co2 205  ASP205     -0.2456
    131  N        168.7910  210.9620  304.2830 N.am  206  LEU206     -0.1979
    132  CA       167.5680  211.3160  304.9830 C.3   206  LEU206      0.1596
    133  C        166.9410  210.1180  305.6730 C.2   206  LEU206      0.2287
    134  O        165.8440  210.2280  306.2200 O.2   206  LEU206     -0.2864
    135  CB       166.5500  211.9070  304.0110 C.3   206  LEU206      0.0297
    136  CG       166.9920  213.1620  303.2560 C.3   206  LEU206      0.0022
    137  CD1      165.8490  213.6200  302.3610 C.3   206  LEU206      0.0001
    138  CD2      167.3790  214.2390  304.2550 C.3   206  LEU206      0.0001
    139  N        171.5720  205.2930  297.1470 N.3   231  VAL231     -0.1231
    140  CA       171.9570  206.5610  296.5300 C.3   231  VAL231      0.1692
    141  C        171.8950  207.7390  297.5130 C.2   231  VAL231      0.2592
    142  O        170.9360  207.8780  298.2760 O.2   231  VAL231     -0.2718
    143  CB       171.0470  206.8730  295.3190 C.3   231  VAL231      0.0266
    144  CG1      171.3850  208.2420  294.7460 C.3   231  VAL231      0.0020
    145  CG2      171.2070  205.8030  294.2490 C.3   231  VAL231      0.0020
    146  N        172.8930  208.6150  297.4310 N.am  232  VAL232     -0.1966
    147  CA       172.8700  209.9110  298.1190 C.3   232  VAL232      0.1727
    148  C        172.9300  211.0430  297.0950 C.2   232  VAL232      0.2616
    149  O        173.7010  210.9780  296.1390 O.2   232  VAL232     -0.2715
    150  CB       174.0570  210.0360  299.1000 C.3   232  VAL232      0.0290
    151  CG1      174.0630  211.4100  299.7560 C.3   232  VAL232      0.0023
    152  CG2      173.9760  208.9460  300.1550 C.3   232  VAL232      0.0023
    153  N        172.0930  212.0540  297.2790 N.am  233  ASN233     -0.1958
    154  CA       171.9920  213.1280  296.2950 C.3   233  ASN233      0.1819
    155  C        171.5770  214.4480  296.9460 C.2   233  ASN233      0.2621
    156  O        171.3930  214.5260  298.1590 O.2   233  ASN233     -0.2715
    157  CB       171.0190  212.7370  295.1870 C.3   233  ASN233      0.1195
    158  CG       171.3970  213.2810  293.8340 C.2   233  ASN233      0.2630
    159  OD1      171.8980  214.4050  293.7180 O.2   233  ASN233     -0.2716
    160  ND2      171.1610  212.5080  292.8080 N.am  233  ASN233     -0.0877
    161  N        171.4650  215.4880  296.1250 N.am  234  ARG234     -0.1963
    162  CA       171.1870  216.8320  296.5950 C.3   234  ARG234      0.1729
    163  C        169.7410  217.0240  297.0470 C.2   234  ARG234      0.2617
    164  O        168.7990  216.6130  296.3550 O.2   234  ARG234     -0.2715
    165  CB       171.4910  217.8420  295.4950 C.3   234  ARG234      0.0348
    166  CG       172.9580  217.9750  295.1250 C.3   234  ARG234      0.0492
    167  CD       173.1570  218.9890  294.0550 C.3   234  ARG234      0.2205
    168  NE       172.5520  218.5890  292.7940 N.pl3 234  ARG234     -0.0865
    169  CZ       172.4060  219.3980  291.7250 C.cat 234  ARG234      0.5346
    170  NH1      172.8210  220.6420  291.7890 N.pl3 234  ARG234      0.1354
    171  NH2      171.8520  218.9330  290.6140 N.pl3 234  ARG234      0.1354
    172  N        169.5690  217.7160  298.1660 N.am  235  SER235     -0.1936
    173  CA       168.2550  218.1580  298.6040 C.3   235  SER235      0.2055
    174  C        167.8510  219.4170  297.8710 C.2   235  SER235      0.2642
    175  O        168.6000  219.9370  297.0430 O.2   235  SER235     -0.2714
    176  CB       168.2560  218.4510  300.0870 C.3   235  SER235      0.2130
    177  OG       168.9330  219.6440  300.3600 O.3   235  SER235     -0.2179
    178  N        166.6850  219.9530  298.2260 N.am  236  GLN236     -0.1976
    179  CA       166.2420  221.2400  297.7140 C.3   236  GLN236      0.1601
    180  C        167.2780  222.3130  297.9190 C.2   236  GLN236      0.2287
    181  O        167.4360  223.2050  297.0810 O.2   236  GLN236     -0.2864
    182  CB       164.9520  221.6830  298.4130 C.3   236  GLN236      0.0394
    183  CG       163.6950  221.1440  297.7990 C.3   236  GLN236      0.0908
    184  CD       163.3870  221.8560  296.5030 C.2   236  GLN236      0.2608
    185  OE1      163.1640  223.0700  296.4820 O.2   236  GLN236     -0.2717
    186  NE2      163.3920  221.1120  295.4140 N.am  236  GLN236     -0.0878
    187  N        170.5640  221.8400  298.5000 N.3   238  ASP238     -0.1225
    188  CA       171.8450  221.5350  297.8990 C.3   238  ASP238      0.1805
    189  C        171.7960  221.7540  296.3920 C.2   238  ASP238      0.2597
    190  O        172.7840  222.1560  295.7860 O.2   238  ASP238     -0.2718
    191  CB       172.2190  220.0990  298.2030 C.3   238  ASP238      0.1424
    192  CG       172.2950  219.8280  299.6900 C.2   238  ASP238      0.3668
    193  OD1      173.0060  220.5120  300.3890 O.co2 238  ASP238     -0.2456
    194  OD2      171.6160  218.9410  300.1370 O.co2 238  ASP238     -0.2456
    195  N        170.6180  221.5480  295.8030 N.am  239  ILE239     -0.1980
    196  CA       170.4070  221.9190  294.4110 C.3   239  ILE239      0.1595
    197  C        170.4510  223.4250  294.2570 C.2   239  ILE239      0.2287
    198  O        171.1320  223.9500  293.3790 O.2   239  ILE239     -0.2864
    199  CB       169.0650  221.3870  293.8850 C.3   239  ILE239      0.0276
    200  CG1      169.0860  219.8700  293.8170 C.3   239  ILE239      0.0022
    201  CG2      168.7630  221.9760  292.5130 C.3   239  ILE239      0.0022
    202  CD1      167.7450  219.2610  293.5280 C.3   239  ILE239      0.0001
@<TRIPOS>BOND
     1   102   100    1
     2   100   101    1
     3   100    99    1
     4    95    96    1
     5    96    99    1
     6    96    97    1
     7    94    92    1
     8    97    98    2
     9    90    89    1
    10    90    91    2
    11    92    89    1
    12    92    93    1
    13    89    88    1
    14    84    83    2
    15    57    55    1
    16    40    39    1
    17    38    37    2
    18    39    36    1
    19    88    83   am
    20    36    37    1
    21    36    35    1
    22    83    82    1
    23    55    54    2
    24    55    56    1
    25    54    53    1
    26    37    41   am
    27    29    28    2
    28    47    48    1
    29    86    85    1
    30    35    28   am
    31    28    27    1
    32    53    52    1
    33   103   104    1
    34    44    43    2
    35    82    85    1
    36    82    81    1
    37    30    27    1
    38    30    31    1
    39    41    42    1
    40    33    32    1
    41    33    34    1
    42    32    31    1
    43    43    42    1
    44    85    87    1
    45    48    51    1
    46    48    49    1
    47    42    45    1
    48    27    26    1
    49    51    52    1
    50   106   105    2
    51    81    75   am
    52    79    77    1
    53   104   105    1
    54   171   169    1
    55    50    49    2
    56    49    58   am
    57    75    76    2
    58    75    74    1
    59    26    24   am
    60    45    46    1
    61    25    24    2
    62   169   170    1
    63   169   168    2
    64    77    74    1
    65    77    78    1
    66    58    59    1
    67    24    23    1
    68    74    73    1
    69     9     7   am
    70   201   199    1
    71    80    78    1
    72   168   167    1
    73   160   158   am
    74     6     7    1
    75     6     5    1
    76    59    60    1
    77     7     8    2
    78   198   197    2
    79   202   200    1
    80    23    22    1
    81    73    71   am
    82   159   158    2
    83    61    60    2
    84    21    20    1
    85   200   199    1
    86   158   157    1
    87     2     1    1
    88     2     5    1
    89     2     3    1
    90   199   196    1
    91    60    62   am
    92    22    18   am
    93   167   166    1
    94    72    71    2
    95   145   143    1
    96   197   196    1
    97    10     3   am
    98    10    11    1
    99   196   195    1
   100    71    70    1
   101    65    64    2
   102   144   143    1
   103     3     4    2
   104   113   111    1
   105    62    63    1
   106    11    12    1
   107    11    14    1
   108    16    17    1
   109    16    12   am
   110    18    17    1
   111    18    19    2
   112    20    17    1
   113   166   165    1
   114   157   154    1
   115   143   140    1
   116   186   184   am
   117   165   162    1
   118    64    63    1
   119    64    69   am
   120    15    14    1
   121    12    13    2
   122   190   189    2
   123   195   189   am
   124    70    69    1
   125    63    66    1
   126   161   162    1
   127   161   155   am
   128   149   148    2
   129   154   155    1
   130   154   153    1
   131   111   112    1
   132   111   108    1
   133   164   163    2
   134   189   188    1
   135   185   184    2
   136   184   183    1
   137   140   139    1
   138   140   141    1
   139   162   163    1
   140   155   156    2
   141   175   174    2
   142   163   172   am
   143   181   180    2
   144   148   153   am
   145   148   147    1
   146    67    66    1
   147   107   108    1
   148    66    68    1
   149   108   109    1
   150   146   141   am
   151   146   147    1
   152   141   142    2
   153   179   180    1
   154   179   178    1
   155   179   182    1
   156   183   182    1
   157   174   178   am
   158   174   173    1
   159   188   191    1
   160   188   187    1
   161   147   150    1
   162   172   173    1
   163   191   192    1
   164   121   122    1
   165   121   120    1
   166   173   176    1
   167   109   114   am
   168   109   110    2
   169   114   115    1
   170   150   151    1
   171   150   152    1
   172   119   120    1
   173   119   118    1
   174   192   194   ar
   175   192   193   ar
   176   176   177    1
   177   115   118    1
   178   115   116    1
   179   129   128   ar
   180   116   117    2
   181   128   130   ar
   182   128   127    1
   183   137   136    1
   184   123   124    1
   185   127   124    1
   186   136   135    1
   187   136   138    1
   188   124   125    1
   189   135   132    1
   190   131   125   am
   191   131   132    1
   192   125   126    2
   193   132   133    1
   194   133   134    2
