@<TRIPOS>MOLECULE
tmp/5wpbA00.pdb
 139 135 0 0 0
SMALL
GASTEIGER

@<TRIPOS>ATOM
      1  N          7.2670    3.9320   17.3550 N.3    35  GLU35      -0.1245
      2  CA         6.4760    3.4730   16.2140 C.3    35  GLU35       0.1567
      3  C          7.3330    2.9850   15.0530 C.2    35  GLU35       0.2260
      4  O          7.0920    3.3200   13.9030 O.2    35  GLU35      -0.2867
      5  CB         5.4470    4.5360   15.7520 C.3    35  GLU35       0.0388
      6  CG         4.2930    3.9900   14.9010 C.3    35  GLU35       0.1160
      7  CD         3.1970    5.0230   14.5490 C.2    35  GLU35       0.3649
      8  OE1        2.2370    5.0810   15.3650 O.co2  35  GLU35      -0.2457
      9  OE2        3.2580    5.7290   13.4690 O.co2  35  GLU35      -0.2457
     10  N          8.9700    0.2070   12.4170 N.3    37  TRP37      -0.1241
     11  CA         8.5790   -0.9110   11.5500 C.3    37  TRP37       0.1605
     12  C          9.8380   -1.5000   10.9810 C.2    37  TRP37       0.2264
     13  O         10.8430   -0.7880   10.8380 O.2    37  TRP37      -0.2867
     14  CB         7.7170   -0.3890   10.3970 C.3    37  TRP37       0.0550
     15  CG         6.4030    0.1810   10.8010 C.ar   37  TRP37       0.0003
     16  CD1        6.1630    1.4130   11.3910 C.ar   37  TRP37       0.0946
     17  CD2        5.1210   -0.4260   10.6260 C.ar   37  TRP37       0.0152
     18  NE1        4.8300    1.5760   11.6040 N.ar   37  TRP37      -0.2442
     19  CE2        4.1620    0.4770   11.1320 C.ar   37  TRP37       0.0810
     20  CE3        4.6920   -1.6560   10.1330 C.ar   37  TRP37       0.0012
     21  CZ2        2.8080    0.1870   11.1520 C.ar   37  TRP37       0.0191
     22  CZ3        3.3280   -1.9320   10.1000 C.ar   37  TRP37       0.0001
     23  CH2        2.3990   -1.0040   10.6110 C.ar   37  TRP37       0.0015
     24  N          7.1960    5.0680   11.8200 N.3    48  GLY48      -0.1210
     25  CA         5.8460    5.1410   11.2930 C.3    48  GLY48       0.1956
     26  C          5.3860    6.5310   10.9030 C.2    48  GLY48       0.2612
     27  O          6.0020    7.5500   11.2150 O.2    48  GLY48      -0.2717
     28  N          4.2250    6.5280   10.2460 N.am   49  ARG49      -0.1965
     29  CA         3.7120    7.7680    9.6680 C.3    49  ARG49       0.1729
     30  C          3.3100    8.8240   10.6890 C.2    49  ARG49       0.2616
     31  O          3.4210    9.9990   10.3970 O.2    49  ARG49      -0.2715
     32  CB         2.6160    7.4990    8.6330 C.3    49  ARG49       0.0348
     33  CG         1.2130    7.3050    9.1780 C.3    49  ARG49       0.0492
     34  CD         0.1680    7.2290    8.0460 C.3    49  ARG49       0.2205
     35  NE         0.2530    5.9720    7.3010 N.pl3  49  ARG49      -0.0865
     36  CZ         0.8760    5.8200    6.1340 C.cat  49  ARG49       0.5346
     37  NH1        1.4740    6.8530    5.5440 N.pl3  49  ARG49       0.1354
     38  NH2        0.9540    4.6170    5.5780 N.pl3  49  ARG49       0.1354
     39  N          3.0110    8.4250   11.9230 N.am   50  TYR50      -0.1974
     40  CA         2.6770    9.3860   12.9690 C.3    50  TYR50       0.1639
     41  C          3.8960    9.9740   13.6780 C.2    50  TYR50       0.2290
     42  O          3.7680   10.9060   14.4780 O.2    50  TYR50      -0.2864
     43  CB         1.6680    8.7660   13.9760 C.3    50  TYR50       0.0560
     44  CG         0.3130    8.4760   13.3440 C.ar   50  TYR50      -0.0198
     45  CD1       -0.4390    9.5270   12.8130 C.ar   50  TYR50      -0.0009
     46  CD2       -0.1920    7.2010   13.2200 C.ar   50  TYR50      -0.0009
     47  CE1       -1.6790    9.3040   12.2040 C.ar   50  TYR50       0.0417
     48  CE2       -1.4240    6.9580   12.6150 C.ar   50  TYR50       0.0417
     49  CZ        -2.1980    8.0180   12.1280 C.ar   50  TYR50       0.1957
     50  OH        -3.4400    7.7480   11.5190 O.3    50  TYR50      -0.2866
     51  N          9.4870    5.0520    7.2770 N.3    55  MET55      -0.1230
     52  CA         9.2100    3.8040    6.5600 C.3    55  MET55       0.1702
     53  C          8.4130    4.0860    5.2740 C.2    55  MET55       0.2592
     54  O          8.6410    3.4460    4.2600 O.2    55  MET55      -0.2718
     55  CB         8.5530    2.7430    7.4390 C.3    55  MET55       0.0401
     56  CG         8.4320    1.3830    6.7200 C.3    55  MET55       0.0596
     57  SD        10.0400    0.7000    6.2790 S.3    55  MET55      -0.1393
     58  CE        10.4470   -0.1500    7.7960 C.3    55  MET55       0.0692
     59  N          7.4970    5.0460    5.3250 N.am   56  LEU56      -0.1980
     60  CA         6.8020    5.4560    4.1230 C.3    56  LEU56       0.1596
     61  C          7.8070    5.9580    3.0880 C.2    56  LEU56       0.2287
     62  O          7.6800    5.6330    1.9040 O.2    56  LEU56      -0.2864
     63  CB         5.7390    6.5080    4.4460 C.3    56  LEU56       0.0297
     64  CG         4.9710    7.0250    3.2340 C.3    56  LEU56       0.0022
     65  CD1        4.1500    5.9360    2.5850 C.3    56  LEU56       0.0001
     66  CD2        4.0800    8.1600    3.7060 C.3    56  LEU56       0.0001
     67  N          5.6940   -4.2890    5.5220 N.3    67  VAL67      -0.1245
     68  CA         6.4470   -3.8990    6.7150 C.3    67  VAL67       0.1561
     69  C          5.7310   -4.4100    7.9500 C.2    67  VAL67       0.2260
     70  O          4.5200   -4.5170    7.9510 O.2    67  VAL67      -0.2867
     71  CB         6.6770   -2.3570    6.7470 C.3    67  VAL67       0.0252
     72  CG1        7.4950   -1.9380    5.5530 C.3    67  VAL67       0.0019
     73  CG2        5.3690   -1.5860    6.7510 C.3    67  VAL67       0.0019
     74  N          5.1010   -4.1310   12.1210 N.3    69  SER69      -0.1217
     75  CA         5.1070   -3.1770   13.2450 C.3    69  SER69       0.1889
     76  C          5.7490   -3.7830   14.4840 C.2    69  SER69       0.2288
     77  O          5.3770   -4.8740   14.9630 O.2    69  SER69      -0.2866
     78  CB         3.6790   -2.7840   13.6370 C.3    69  SER69       0.2089
     79  OG         3.7470   -1.9880   14.8110 O.3    69  SER69      -0.2183
     80  N          5.2460   -2.3460   17.2600 N.3    71  ILE71      -0.1231
     81  CA         4.2240   -2.0780   18.2750 C.3    71  ILE71       0.1692
     82  C          3.3870   -3.3590   18.4570 C.2    71  ILE71       0.2592
     83  O          3.4040   -4.0000   19.5180 O.2    71  ILE71      -0.2718
     84  CB         3.3310   -0.8800   17.8630 C.3    71  ILE71       0.0266
     85  CG1        4.1650    0.4030   17.6750 C.3    71  ILE71       0.0019
     86  CG2        2.2140   -0.6660   18.8680 C.3    71  ILE71       0.0020
     87  CD1        4.7660    0.9760   18.9470 C.3    71  ILE71       0.0001
     88  N          2.6770   -3.7520   17.4100 N.am   72  ASP72      -0.1974
     89  CA         1.6290   -4.7730   17.5330 C.3    72  ASP72       0.1709
     90  C          1.7990   -5.9860   16.6270 C.2    72  ASP72       0.2293
     91  O          0.9360   -6.8420   16.6230 O.2    72  ASP72      -0.2864
     92  CB         0.2350   -4.1390   17.3420 C.3    72  ASP72       0.1436
     93  CG        -0.0520   -3.7340   15.9330 C.2    72  ASP72       0.3671
     94  OD1        0.8240   -3.7880   15.0930 O.co2  72  ASP72      -0.2456
     95  OD2       -1.2170   -3.3880   15.6410 O.co2  72  ASP72      -0.2456
     96  N          1.5600   -6.2690   13.5230 N.3    74  SER74      -0.1217
     97  CA         0.7620   -6.2830   12.3000 C.3    74  SER74       0.1889
     98  C          1.6740   -6.0230   11.1120 C.2    74  SER74       0.2288
     99  O          2.7260   -5.4160   11.2480 O.2    74  SER74      -0.2866
    100  CB        -0.3230   -5.2380   12.3220 C.3    74  SER74       0.2089
    101  OG         0.2050   -3.9530   12.4590 O.3    74  SER74      -0.2183
    102  N          1.7310   -4.3570    7.2160 N.3    76  TRP76      -0.1241
    103  CA         1.0820   -3.3990    6.3350 C.3    76  TRP76       0.1605
    104  C          1.7170   -3.4830    4.9560 C.2    76  TRP76       0.2264
    105  O          2.9460   -3.5240    4.8310 O.2    76  TRP76      -0.2867
    106  CB         1.2870   -1.9690    6.8750 C.3    76  TRP76       0.0550
    107  CG         0.7130   -0.8700    6.0430 C.ar   76  TRP76       0.0003
    108  CD1        1.3860   -0.0450    5.1860 C.ar   76  TRP76       0.0946
    109  CD2       -0.6610   -0.4740    5.9910 C.ar   76  TRP76       0.0152
    110  NE1        0.5120    0.8380    4.6030 N.ar   76  TRP76      -0.2442
    111  CE2       -0.7470    0.6160    5.0860 C.ar   76  TRP76       0.0810
    112  CE3       -1.8160   -0.9280    6.6310 C.ar   76  TRP76       0.0012
    113  CZ2       -1.9660    1.2650    4.8200 C.ar   76  TRP76       0.0191
    114  CZ3       -3.0150   -0.2930    6.3650 C.ar   76  TRP76       0.0001
    115  CH2       -3.0740    0.7930    5.4490 C.ar   76  TRP76       0.0015
    116  N          2.0570   -1.2940    1.5760 N.3    78  TYR78      -0.1241
    117  CA         1.9270    0.0670    1.0470 C.3    78  TYR78       0.1605
    118  C          1.2800    0.1240   -0.3180 C.2    78  TYR78       0.2264
    119  O          0.7660    1.1910   -0.6780 O.2    78  TYR78      -0.2867
    120  CB         3.2920    0.7320    0.9470 C.3    78  TYR78       0.0534
    121  CG         3.8800    1.1180    2.2980 C.ar   78  TYR78      -0.0201
    122  CD1        3.4180    2.2290    2.9960 C.ar   78  TYR78      -0.0009
    123  CD2        4.9000    0.3930    2.8790 C.ar   78  TYR78      -0.0009
    124  CE1        3.9740    2.5870    4.2320 C.ar   78  TYR78       0.0417
    125  CE2        5.4400    0.7530    4.1110 C.ar   78  TYR78       0.0417
    126  CZ         4.9710    1.8270    4.7820 C.ar   78  TYR78       0.1957
    127  OH         5.5170    2.1850    5.9810 O.3    78  TYR78      -0.2866
    128  N         -3.6270   -3.9470    5.9910 N.3    83  TYR83      -0.1241
    129  CA        -2.9790   -4.9740    6.7580 C.3    83  TYR83       0.1605
    130  C         -3.1980   -6.3260    6.1420 C.2    83  TYR83       0.2264
    131  O         -4.2510   -6.5970    5.5250 O.2    83  TYR83      -0.2867
    132  CB        -3.4580   -4.9850    8.2150 C.3    83  TYR83       0.0534
    133  CG        -3.1350   -3.7020    8.9500 C.ar   83  TYR83      -0.0201
    134  CD1       -1.8650   -3.4760    9.4850 C.ar   83  TYR83      -0.0009
    135  CD2       -4.1030   -2.7250    9.1090 C.ar   83  TYR83      -0.0009
    136  CE1       -1.6000   -2.2990   10.1690 C.ar   83  TYR83       0.0417
    137  CE2       -3.8260   -1.5250    9.7710 C.ar   83  TYR83       0.0417
    138  CZ        -2.5850   -1.3440   10.3050 C.ar   83  TYR83       0.1957
    139  OH        -2.3640   -0.1520   10.9520 O.3    83  TYR83      -0.2866
@<TRIPOS>BOND
     1   119   118    2
     2   118   117    1
     3   120   117    1
     4   120   121    1
     5   117   116    1
     6    62    61    2
     7   121   123   ar
     8   121   122   ar
     9    65    64    1
    10   123   125   ar
    11   122   124   ar
    12    61    60    1
    13    64    66    1
    14    64    63    1
    15   125   126   ar
    16    60    63    1
    17    60    59    1
    18   124   126   ar
    19    54    53    2
    20   110   111   ar
    21   110   108   ar
    22   126   127    1
    23   113   111   ar
    24   113   115   ar
    25   105   104    2
    26   104   103    1
    27   111   109   ar
    28   108   107   ar
    29    53    59   am
    30    53    52    1
    31   115   114   ar
    32    67    68    1
    33   131   130    2
    34    37    36    1
    35    72    71    1
    36    38    36    1
    37   128   129    1
    38   109   107   ar
    39   109   112   ar
    40   107   106    1
    41    36    35    2
    42   130   129    1
    43    57    56    1
    44    57    58    1
    45   103   106    1
    46   103   102    1
    47   114   112   ar
    48    52    51    1
    49    52    55    1
    50    68    71    1
    51    68    69    1
    52    56    55    1
    53    71    73    1
    54   129   132    1
    55    35    34    1
    56    69    70    2
    57    34    33    1
    58   132   133    1
    59    32    33    1
    60    32    29    1
    61   133   135   ar
    62   133   134   ar
    63   135   137   ar
    64   134   136   ar
    65    29    28    1
    66    29    30    1
    67   137   138   ar
    68    22    20   ar
    69    22    23   ar
    70    20    17   ar
    71   136   138   ar
    72    28    26   am
    73   138   139    1
    74    14    15    1
    75    14    11    1
    76    31    30    2
    77    23    21   ar
    78    17    15   ar
    79    17    19   ar
    80    30    39   am
    81    15    16   ar
    82    13    12    2
    83    26    27    2
    84    26    25    1
    85    12    11    1
    86    98    99    2
    87    98    97    1
    88    19    21   ar
    89    19    18   ar
    90    25    24    1
    91    16    18   ar
    92    50    49    1
    93    11    10    1
    94    39    40    1
    95    74    75    1
    96    49    47   ar
    97    49    48   ar
    98    47    45   ar
    99    97   100    1
   100    97    96    1
   101   100   101    1
   102    48    46   ar
   103    45    44   ar
   104    40    41    1
   105    40    43    1
   106    46    44   ar
   107    75    78    1
   108    75    76    1
   109    44    43    1
   110     9     7   ar
   111    78    79    1
   112    41    42    2
   113     4     3    2
   114    76    77    2
   115     7     6    1
   116     7     8   ar
   117     6     5    1
   118     3     2    1
   119    94    93   ar
   120    95    93   ar
   121     5     2    1
   122    93    92    1
   123     2     1    1
   124    91    90    2
   125    90    89    1
   126    80    81    1
   127    92    89    1
   128    88    89    1
   129    88    82   am
   130    85    84    1
   131    85    87    1
   132    84    81    1
   133    84    86    1
   134    81    82    1
   135    82    83    2
