@<TRIPOS>MOLECULE
tmp/5wpjA00.pdb
 173 164 0 0 0
SMALL
GASTEIGER

@<TRIPOS>ATOM
      1  N         -8.7530   67.1370   51.3270 N.3   142  TYR142     -0.1241
      2  CA        -9.6360   68.2430   51.6920 C.3   142  TYR142      0.1605
      3  C        -10.9910   67.9820   51.0540 C.2   142  TYR142      0.2264
      4  O        -11.4150   68.6850   50.1280 O.2   142  TYR142     -0.2867
      5  CB        -9.0450   69.5830   51.2580 C.3   142  TYR142      0.0534
      6  CG        -9.5110   70.7330   52.1120 C.ar  142  TYR142     -0.0201
      7  CD1       -8.7940   71.1250   53.2380 C.ar  142  TYR142     -0.0009
      8  CD2      -10.6730   71.4200   51.8020 C.ar  142  TYR142     -0.0009
      9  CE1       -9.2270   72.1790   54.0320 C.ar  142  TYR142      0.0417
     10  CE2      -11.1110   72.4720   52.5820 C.ar  142  TYR142      0.0417
     11  CZ       -10.3830   72.8530   53.6920 C.ar  142  TYR142      0.1957
     12  OH       -10.8310   73.9080   54.4620 O.3   142  TYR142     -0.2866
     13  N        -14.0890   68.3920   51.8350 N.3   144  SER144     -0.1202
     14  CA       -15.2410   69.2840   51.9230 C.3   144  SER144      0.2020
     15  C        -15.3530   70.1710   50.6880 C.2   144  SER144      0.2618
     16  O        -16.4680   70.4870   50.2540 O.2   144  SER144     -0.2717
     17  CB       -15.1740   70.1220   53.2010 C.3   144  SER144      0.2103
     18  OG       -14.0970   71.0380   53.1760 O.3   144  SER144     -0.2182
     19  N        -14.2200   70.5770   50.1050 N.am  145  ILE145     -0.1979
     20  CA       -14.2660   71.4700   48.9510 C.3   145  ILE145      0.1595
     21  C        -14.8360   70.7620   47.7320 C.2   145  ILE145      0.2287
     22  O        -15.5100   71.3880   46.9040 O.2   145  ILE145     -0.2864
     23  CB       -12.8660   72.0360   48.6490 C.3   145  ILE145      0.0276
     24  CG1      -12.9540   73.1320   47.5800 C.3   145  ILE145      0.0022
     25  CG2      -11.9200   70.9230   48.2070 C.3   145  ILE145      0.0022
     26  CD1      -13.8670   74.2740   47.9660 C.3   145  ILE145      0.0001
     27  N        -18.5290   70.6730   47.4930 N.3   148  ARG148     -0.1245
     28  CA       -19.0780   71.9530   47.0680 C.3   148  ARG148      0.1563
     29  C        -18.8530   72.2320   45.5880 C.2   148  ARG148      0.2260
     30  O        -19.2240   73.3130   45.1190 O.2   148  ARG148     -0.2867
     31  CB       -18.4660   73.0940   47.8830 C.3   148  ARG148      0.0307
     32  CG       -18.6570   72.9580   49.3770 C.3   148  ARG148      0.0489
     33  CD       -17.9830   74.1000   50.1170 C.3   148  ARG148      0.2205
     34  NE       -18.9790   75.0300   50.6400 N.pl3 148  ARG148     -0.0865
     35  CZ       -19.4420   75.0030   51.8860 C.cat 148  ARG148      0.5346
     36  NH1      -18.9920   74.0960   52.7420 N.pl3 148  ARG148      0.1354
     37  NH2      -20.3540   75.8840   52.2760 N.pl3 148  ARG148      0.1354
     38  N        -11.1920   76.7820   44.3840 N.3   175  THR175     -0.1203
     39  CA       -11.4790   76.9730   45.8040 C.3   175  THR175      0.1994
     40  C        -12.8640   77.5660   46.0600 C.2   175  THR175      0.2618
     41  O        -13.2010   77.8620   47.2200 O.2   175  THR175     -0.2717
     42  CB       -10.3960   77.8570   46.4600 C.3   175  THR175      0.1784
     43  OG1      -10.4660   79.1760   45.9130 O.3   175  THR175     -0.2211
     44  CG2       -8.9790   77.2770   46.2510 C.3   175  THR175      0.0376
     45  N        -13.6590   77.7680   45.0120 N.am  176  GLN176     -0.1965
     46  CA       -15.0530   78.2190   45.1440 C.3   176  GLN176      0.1733
     47  C        -15.0660   79.6000   45.7980 C.2   176  GLN176      0.2616
     48  O        -14.4050   80.5190   45.2900 O.2   176  GLN176     -0.2715
     49  CB       -15.8260   77.1270   45.8800 C.3   176  GLN176      0.0408
     50  CG       -16.0080   75.8570   45.0860 C.3   176  GLN176      0.0908
     51  CD       -17.0010   76.0380   43.9540 C.2   176  GLN176      0.2608
     52  OE1      -18.1510   76.4250   44.1850 O.2   176  GLN176     -0.2717
     53  NE2      -16.5650   75.7690   42.7230 N.am  176  GLN176     -0.0878
     54  N        -15.8090   79.8110   46.8830 N.am  177  GLU177     -0.1963
     55  CA       -15.9650   81.1440   47.4540 C.3   177  GLU177      0.1733
     56  C        -14.8670   81.5130   48.4490 C.2   177  GLU177      0.2616
     57  O        -14.8860   82.6260   48.9870 O.2   177  GLU177     -0.2715
     58  CB       -17.3370   81.2710   48.1270 C.3   177  GLU177      0.0429
     59  CG       -18.5240   81.1310   47.1650 C.3   177  GLU177      0.1163
     60  CD       -18.5230   82.1890   46.0620 C.2   177  GLU177      0.3649
     61  OE1      -18.5320   83.3920   46.3820 O.co2 177  GLU177     -0.2457
     62  OE2      -18.5570   81.8230   44.8710 O.co2 177  GLU177     -0.2457
     63  N        -13.9400   80.6120   48.7450 N.am  178  ALA178     -0.1963
     64  CA       -12.8950   80.9040   49.7140 C.3   178  ALA178      0.1728
     65  C        -11.5920   81.2310   49.0050 C.2   178  ALA178      0.2616
     66  O        -11.3860   80.8760   47.8430 O.2   178  ALA178     -0.2715
     67  CB       -12.6910   79.7280   50.6720 C.3   178  ALA178      0.0334
     68  N        -10.6860   81.8840   49.7390 N.am  179  MET179     -0.1963
     69  CA        -9.3500   82.1120   49.2000 C.3   179  MET179      0.1736
     70  C         -8.5760   80.8020   49.1110 C.2   179  MET179      0.2617
     71  O         -7.7840   80.6070   48.1800 O.2   179  MET179     -0.2715
     72  CB        -8.5860   83.1200   50.0550 C.3   179  MET179      0.0427
     73  CG        -7.1610   83.3480   49.5670 C.3   179  MET179      0.0599
     74  SD        -6.0080   83.7250   50.9050 S.3   179  MET179     -0.1393
     75  CE        -4.4480   83.2810   50.1380 C.3   179  MET179      0.0692
     76  N         -8.7910   79.8980   50.0700 N.am  180  GLY180     -0.1940
     77  CA        -8.2980   78.5370   49.9640 C.3   180  GLY180      0.2014
     78  C         -6.8640   78.3050   50.3760 C.2   180  GLY180      0.2639
     79  O         -6.2820   77.2790   50.0030 O.2   180  GLY180     -0.2714
     80  N         -6.2860   79.2040   51.1680 N.am  181  ALA181     -0.1963
     81  CA        -4.9390   78.9770   51.6720 C.3   181  ALA181      0.1728
     82  C         -4.8780   77.6850   52.4740 C.2   181  ALA181      0.2616
     83  O         -3.9770   76.8600   52.2800 O.2   181  ALA181     -0.2715
     84  CB        -4.4850   80.1660   52.5190 C.3   181  ALA181      0.0334
     85  N         -5.8240   77.4910   53.3870 N.am  182  ASN182     -0.1958
     86  CA        -5.8010   76.2700   54.1850 C.3   182  ASN182      0.1819
     87  C         -6.0550   75.0480   53.3130 C.2   182  ASN182      0.2621
     88  O         -5.4180   74.0010   53.4970 O.2   182  ASN182     -0.2715
     89  CB        -6.8150   76.3660   55.3240 C.3   182  ASN182      0.1195
     90  CG        -6.7680   75.1910   56.2690 C.2   182  ASN182      0.2630
     91  OD1       -6.0850   74.1820   56.0410 O.2   182  ASN182     -0.2716
     92  ND2       -7.5920   75.2760   57.2870 N.am  182  ASN182     -0.0877
     93  N         -6.9760   75.1660   52.3540 N.am  183  MET183     -0.1977
     94  CA        -7.2420   74.0810   51.4160 C.3   183  MET183      0.1605
     95  C         -5.9720   73.6900   50.6480 C.2   183  MET183      0.2287
     96  O         -5.5450   72.5290   50.6830 O.2   183  MET183     -0.2864
     97  CB        -8.3700   74.5030   50.4640 C.3   183  MET183      0.0413
     98  CG        -8.8040   73.4550   49.4420 C.3   183  MET183      0.0598
     99  SD        -9.9220   74.1270   48.1710 S.3   183  MET183     -0.1393
    100  CE       -11.0430   75.0680   49.2190 C.3   183  MET183      0.0692
    101  N         -2.7890   74.4900   51.2380 N.3   185  ASN185     -0.1240
    102  CA        -1.6960   74.0410   52.0880 C.3   185  ASN185      0.1653
    103  C         -1.9240   72.6140   52.5670 C.2   185  ASN185      0.2266
    104  O         -0.9740   71.8270   52.6520 O.2   185  ASN185     -0.2867
    105  CB        -1.4870   75.0170   53.2430 C.3   185  ASN185      0.1155
    106  CG        -0.9930   76.3720   52.7450 C.2   185  ASN185      0.2627
    107  OD1       -0.5170   76.4720   51.6110 O.2   185  ASN185     -0.2716
    108  ND2       -1.0870   77.4050   53.5780 N.am  185  ASN185     -0.0877
    109  N          3.3580   75.0860   49.5320 N.3   207  ILE207     -0.1231
    110  CA         2.6950   76.3040   49.9870 C.3   207  ILE207      0.1692
    111  C          1.9510   76.9280   48.8150 C.2   207  ILE207      0.2591
    112  O          2.3780   76.8250   47.6570 O.2   207  ILE207     -0.2718
    113  CB         3.7160   77.2910   50.6220 C.3   207  ILE207      0.0266
    114  CG1        3.0420   78.5850   51.0790 C.3   207  ILE207      0.0019
    115  CG2        4.8640   77.5950   49.6670 C.3   207  ILE207      0.0020
    116  CD1        2.1720   78.4190   52.2960 C.3   207  ILE207      0.0001
    117  N          0.8450   77.5960   49.1210 N.am  208  LEU208     -0.1980
    118  CA         0.1320   78.2880   48.0720 C.3   208  LEU208      0.1596
    119  C          0.9860   79.4270   47.5390 C.2   208  LEU208      0.2287
    120  O          1.9170   79.8970   48.1910 O.2   208  LEU208     -0.2864
    121  CB        -1.2090   78.8210   48.5900 C.3   208  LEU208      0.0297
    122  CG        -1.3000   80.1540   49.3520 C.3   208  LEU208      0.0022
    123  CD1       -0.1780   80.3130   50.3640 C.3   208  LEU208      0.0001
    124  CD2       -1.3470   81.3650   48.3930 C.3   208  LEU208      0.0001
    125  N          0.7820   83.3720   46.0730 N.3   210  ASN210     -0.1240
    126  CA         0.0050   84.6010   45.9170 C.3   210  ASN210      0.1653
    127  C          0.1900   85.2420   44.5500 C.2   210  ASN210      0.2266
    128  O         -0.3510   86.3300   44.3120 O.2   210  ASN210     -0.2867
    129  CB         0.3760   85.6000   47.0150 C.3   210  ASN210      0.1155
    130  CG        -0.0660   85.1340   48.3900 C.2   210  ASN210      0.2627
    131  OD1        0.7550   84.8960   49.2570 O.2   210  ASN210     -0.2716
    132  ND2       -1.3730   85.0240   48.5940 N.am  210  ASN210     -0.0877
    133  N         -7.8120   89.7170   52.1910 N.3   277  ASP277     -0.1239
    134  CA        -6.3860   89.8460   52.5100 C.3   277  ASP277      0.1674
    135  C         -5.7480   90.7820   51.4970 C.2   277  ASP277      0.2266
    136  O         -5.5030   90.3970   50.3540 O.2   277  ASP277     -0.2867
    137  CB        -5.7230   88.4680   52.4840 C.3   277  ASP277      0.1410
    138  CG        -4.2270   88.5110   52.7940 C.2   277  ASP277      0.3668
    139  OD1       -3.5740   89.5610   52.6140 O.co2 277  ASP277     -0.2456
    140  OD2       -3.6930   87.4670   53.2280 O.co2 277  ASP277     -0.2456
    141  N         -2.7050   92.1400   51.6400 N.3   279  ARG279     -0.1231
    142  CA        -1.3070   91.8180   51.3490 C.3   279  ARG279      0.1694
    143  C         -1.2090   90.8590   50.1720 C.2   279  ARG279      0.2591
    144  O         -0.3270   91.0040   49.3210 O.2   279  ARG279     -0.2718
    145  CB        -0.5980   91.2190   52.5740 C.3   279  ARG279      0.0321
    146  CG        -0.2660   92.2120   53.6960 C.3   279  ARG279      0.0489
    147  CD        -1.4750   92.3990   54.6320 C.3   279  ARG279      0.2205
    148  NE        -1.8910   91.1240   55.2080 N.pl3 279  ARG279     -0.0865
    149  CZ        -3.1360   90.8390   55.5720 C.cat 279  ARG279      0.5346
    150  NH1       -4.0900   91.7320   55.4060 N.pl3 279  ARG279      0.1354
    151  NH2       -3.4240   89.6530   56.0890 N.pl3 279  ARG279      0.1354
    152  N         -2.1210   89.8820   50.1060 N.am  280  ALA280     -0.1980
    153  CA        -2.1330   88.8990   49.0230 C.3   280  ALA280      0.1597
    154  C         -2.4030   89.5520   47.6600 C.2   280  ALA280      0.2287
    155  O         -1.7230   89.2560   46.6710 O.2   280  ALA280     -0.2864
    156  CB        -3.1770   87.8200   49.3350 C.3   280  ALA280      0.0319
    157  N        -16.1770   83.9340   51.5710 N.3   323  LYS323     -0.1231
    158  CA       -16.2630   83.0470   52.7220 C.3   323  LYS323      0.1693
    159  C        -14.8750   82.8470   53.3120 C.2   323  LYS323      0.2593
    160  O        -13.8770   82.7860   52.5890 O.2   323  LYS323     -0.2718
    161  CB       -16.8790   81.6870   52.3630 C.3   323  LYS323      0.0285
    162  CG       -18.3400   81.7110   51.9230 C.3   323  LYS323      0.0035
    163  CD       -19.2270   82.1130   53.1030 C.3   323  LYS323      0.0206
    164  CE       -20.7220   81.9730   52.7970 C.3   323  LYS323      0.1093
    165  NZ       -21.1920   82.9220   51.7540 N.3   323  LYS323     -0.1314
    166  N        -14.8370   82.6930   54.6380 N.am  324  GLY324     -0.1942
    167  CA       -13.6220   82.4370   55.3920 C.3   324  GLY324      0.2014
    168  C        -13.0690   83.6870   56.0660 C.2   324  GLY324      0.2639
    169  O        -13.6520   84.7770   56.0300 O.2   324  GLY324     -0.2714
    170  N        -11.9040   83.5060   56.6920 N.am  325  GLY325     -0.1954
    171  CA       -11.2440   84.5870   57.4190 C.3   325  GLY325      0.1869
    172  C        -12.1780   85.3710   58.3220 C.2   325  GLY325      0.2309
    173  O        -13.0750   84.8210   58.9750 O.2   325  GLY325     -0.2863
@<TRIPOS>BOND
     1    53    51   am
     2    51    52    2
     3    51    50    1
     4   128   127    2
     5    38    39    1
     6   127   126    1
     7    62    60   ar
     8    45    46    1
     9    45    40   am
    10    50    49    1
    11    30    29    2
    12    46    47    1
    13    46    49    1
    14    48    47    2
    15    29    28    1
    16    47    54   am
    17    39    40    1
    18    39    42    1
    19    43    42    1
    20   126   125    1
    21   126   129    1
    22    40    41    2
    23    60    61   ar
    24    60    59    1
    25    44    42    1
    26   155   154    2
    27    54    55    1
    28    22    21    2
    29   129   130    1
    30    28    27    1
    31    28    31    1
    32    59    58    1
    33    55    58    1
    34    55    56    1
    35   119   118    1
    36   119   120    2
    37    24    26    1
    38    24    23    1
    39   112   111    2
    40   154   153    1
    41    21    20    1
    42    66    65    2
    43    31    32    1
    44   118   121    1
    45   118   117    1
    46    99   100    1
    47    99    98    1
    48    71    70    2
    49    25    23    1
    50   130   132   am
    51   130   131    2
    52   124   122    1
    53    56    63   am
    54    56    57    2
    55   121   122    1
    56    23    20    1
    57    63    64    1
    58   111   117   am
    59   111   110    1
    60    20    19    1
    61    65    64    1
    62    65    68   am
    63   153   156    1
    64   153   152    1
    65    70    69    1
    66    70    76   am
    67    69    68    1
    68    69    72    1
    69   144   143    2
    70   122   123    1
    71    32    33    1
    72    98    97    1
    73   109   110    1
    74    73    72    1
    75    73    74    1
    76   115   113    1
    77    64    67    1
    78    77    76    1
    79    77    78    1
    80   110   113    1
    81    79    78    2
    82    19    15   am
    83   152   143   am
    84    33    34    1
    85     4     3    2
    86    75    74    1
    87   143   142    1
    88    16    15    2
    89   136   135    2
    90    78    80   am
    91    97    94    1
    92   113   114    1
    93    34    35    2
    94    95    96    2
    95    95    94    1
    96    15    14    1
    97     3     2    1
    98   114   116    1
    99    80    81    1
   100   101   102    1
   101     5     2    1
   102     5     6    1
   103     1     2    1
   104   142   141    1
   105   142   145    1
   106    94    93    1
   107   135   134    1
   108   157   158    1
   109   107   106    2
   110    81    82    1
   111    81    84    1
   112   165   164    1
   113     8     6   ar
   114     8    10   ar
   115    13    14    1
   116    35    37    1
   117    35    36    1
   118   162   161    1
   119   162   163    1
   120    14    17    1
   121   102   103    1
   122   102   105    1
   123     6     7   ar
   124   133   134    1
   125    83    82    2
   126    93    87   am
   127   161   158    1
   128    82    85   am
   129   137   134    1
   130   137   138    1
   131   103   104    2
   132   145   146    1
   133    10    11   ar
   134   160   159    2
   135   139   138   ar
   136   158   159    1
   137   106   105    1
   138   106   108   am
   139   138   140   ar
   140   164   163    1
   141    18    17    1
   142     7     9   ar
   143   159   166   am
   144    87    88    2
   145    87    86    1
   146    85    86    1
   147    11     9   ar
   148    11    12    1
   149   146   147    1
   150    86    89    1
   151   147   148    1
   152   166   167    1
   153   148   149    2
   154    89    90    1
   155   167   168    1
   156   150   149    1
   157   149   151    1
   158   169   168    2
   159    91    90    2
   160   168   170   am
   161    90    92   am
   162   170   171    1
   163   171   172    1
   164   172   173    2
