@<TRIPOS>MOLECULE
tmp/5wpkB03.pdb
 144 140 0 0 0
SMALL
GASTEIGER

@<TRIPOS>ATOM
      1  N        -40.1870   -3.7660   13.0360 N.3     1  ILE1       -0.1231
      2  CA       -39.1560   -2.8710   12.5240 C.3     1  ILE1        0.1692
      3  C        -39.3130   -2.7070   11.0190 C.2     1  ILE1        0.2593
      4  O        -39.5550   -3.6770   10.3010 O.2     1  ILE1       -0.2718
      5  CB       -37.7480   -3.3830   12.8750 C.3     1  ILE1        0.0266
      6  CG1      -37.5710   -3.1320   14.3880 C.3     1  ILE1        0.0019
      7  CG2      -36.5600   -2.7560   12.1670 C.3     1  ILE1        0.0020
      8  CD1      -36.7750   -4.1960   15.1000 C.3     1  ILE1        0.0001
      9  N        -39.1890   -1.4720   10.5480 N.am    2  SER2       -0.1938
     10  CA       -39.3800   -1.1550    9.1420 C.3     2  SER2        0.2055
     11  C        -38.0380   -1.1340    8.4180 C.2     2  SER2        0.2643
     12  O        -36.9660   -1.1110    9.0270 O.2     2  SER2       -0.2714
     13  CB       -40.0930    0.1900    8.9780 C.3     2  SER2        0.2130
     14  OG       -39.3070    1.2520    9.4870 O.3     2  SER2       -0.2179
     15  N        -38.1150   -1.1450    7.0880 N.am    3  TRP3       -0.1973
     16  CA       -36.9450   -1.0450    6.2310 C.3     3  TRP3        0.1640
     17  C        -36.7000    0.3870    5.7810 C.2     3  TRP3        0.2290
     18  O        -35.9870    0.6130    4.8000 O.2     3  TRP3       -0.2864
     19  CB       -37.0940   -1.9620    5.0190 C.3     3  TRP3        0.0576
     20  CG       -37.1110   -3.4080    5.3670 C.ar    3  TRP3        0.0006
     21  CD1      -38.2080   -4.1750    5.6020 C.ar    3  TRP3        0.0946
     22  CD2      -35.9770   -4.2660    5.5340 C.ar    3  TRP3        0.0152
     23  NE1      -37.8330   -5.4620    5.8950 N.ar    3  TRP3       -0.2442
     24  CE2      -36.4670   -5.5440    5.8600 C.ar    3  TRP3        0.0810
     25  CE3      -34.5950   -4.0790    5.4330 C.ar    3  TRP3        0.0012
     26  CZ2      -35.6260   -6.6310    6.0870 C.ar    3  TRP3        0.0191
     27  CZ3      -33.7600   -5.1580    5.6600 C.ar    3  TRP3        0.0001
     28  CH2      -34.2780   -6.4180    5.9850 C.ar    3  TRP3        0.0015
     29  N        -34.8270   -7.9460   12.1280 N.3    21  GLN21      -0.1245
     30  CA       -36.0070   -8.5500   11.5200 C.3    21  GLN21       0.1566
     31  C        -36.2290   -9.9860   11.9690 C.2    21  GLN21       0.2260
     32  O        -37.3480  -10.4920   11.8370 O.2    21  GLN21      -0.2867
     33  CB       -35.9010   -8.4860    9.9980 C.3    21  GLN21       0.0367
     34  CG       -35.8080   -7.0710    9.4680 C.3    21  GLN21       0.0905
     35  CD       -37.1270   -6.3330    9.5600 C.2    21  GLN21       0.2608
     36  OE1      -38.1850   -6.9450    9.6950 O.2    21  GLN21      -0.2717
     37  NE2      -37.0710   -5.0090    9.4890 N.am   21  GLN21      -0.0878
     38  N        -35.2420  -12.8120   10.7010 N.3    23  LEU23      -0.1245
     39  CA       -35.5780  -13.6960    9.5920 C.3    23  LEU23       0.1561
     40  C        -34.6930  -14.9300    9.5360 C.2    23  LEU23       0.2260
     41  O        -35.1220  -15.9680    9.0220 O.2    23  LEU23      -0.2867
     42  CB       -35.4740  -12.9380    8.2690 C.3    23  LEU23       0.0270
     43  CG       -36.4660  -11.7870    8.1240 C.3    23  LEU23       0.0019
     44  CD1      -36.1760  -10.9800    6.8670 C.3    23  LEU23       0.0001
     45  CD2      -37.8880  -12.3250    8.1210 C.3    23  LEU23       0.0001
     46  N        -39.3300   -5.9590    1.3770 N.3    63  GLU63      -0.1245
     47  CA       -40.7390   -5.5760    1.2460 C.3    63  GLU63       0.1567
     48  C        -41.3460   -6.0600   -0.0720 C.2    63  GLU63       0.2260
     49  O        -41.9610   -5.2990   -0.8200 O.2    63  GLU63      -0.2867
     50  CB       -40.8990   -4.0630    1.4090 C.3    63  GLU63       0.0388
     51  CG       -40.6290   -3.5840    2.8240 C.3    63  GLU63       0.1160
     52  CD       -40.8110   -2.0880    2.9850 C.2    63  GLU63       0.3649
     53  OE1      -40.4160   -1.3360    2.0720 O.co2  63  GLU63      -0.2457
     54  OE2      -41.3580   -1.6640    4.0240 O.co2  63  GLU63      -0.2457
     55  N        -48.3390  -12.1140    1.5560 N.3    69  GLN69      -0.1231
     56  CA       -47.1770  -12.5320    2.3270 C.3    69  GLN69       0.1698
     57  C        -45.9730  -11.7030    1.9010 C.2    69  GLN69       0.2592
     58  O        -45.6710  -11.6060    0.7070 O.2    69  GLN69      -0.2718
     59  CB       -46.9020  -14.0250    2.1360 C.3    69  GLN69       0.0381
     60  CG       -45.5920  -14.4970    2.7440 C.3    69  GLN69       0.0905
     61  CD       -45.6320  -14.5800    4.2560 C.2    69  GLN69       0.2608
     62  OE1      -46.3820  -15.3740    4.8260 O.2    69  GLN69      -0.2717
     63  NE2      -44.8180  -13.7600    4.9170 N.am   69  GLN69      -0.0878
     64  N        -45.2950  -11.1010    2.8760 N.am   70  GLU70      -0.1966
     65  CA       -44.1610  -10.2240    2.6210 C.3    70  GLU70       0.1733
     66  C        -42.8550  -11.0000    2.7440 C.2    70  GLU70       0.2616
     67  O        -42.7200  -11.8750    3.6030 O.2    70  GLU70      -0.2715
     68  CB       -44.1660   -9.0340    3.5850 C.3    70  GLU70       0.0429
     69  CG       -43.0470   -8.0410    3.3450 C.3    70  GLU70       0.1163
     70  CD       -43.3110   -6.6930    3.9820 C.2    70  GLU70       0.3649
     71  OE1      -44.4940   -6.3210    4.1140 O.co2  70  GLU70      -0.2457
     72  OE2      -42.3380   -5.9990    4.3410 O.co2  70  GLU70      -0.2457
     73  N        -41.9030  -10.6850    1.8660 N.am   71  TYR71      -0.1960
     74  CA       -40.6330  -11.3910    1.8000 C.3    71  TYR71       0.1771
     75  C        -39.4780  -10.4040    1.7360 C.2    71  TYR71       0.2620
     76  O        -39.6340   -9.2490    1.3310 O.2    71  TYR71      -0.2715
     77  CB       -40.5530  -12.3050    0.5750 C.3    71  TYR71       0.0574
     78  CG       -41.6130  -13.3700    0.4960 C.ar   71  TYR71      -0.0198
     79  CD1      -42.8170  -13.1250   -0.1480 C.ar   71  TYR71      -0.0009
     80  CD2      -41.4040  -14.6270    1.0410 C.ar   71  TYR71      -0.0009
     81  CE1      -43.7860  -14.0970   -0.2410 C.ar   71  TYR71       0.0417
     82  CE2      -42.3710  -15.6070    0.9570 C.ar   71  TYR71       0.0417
     83  CZ       -43.5580  -15.3380    0.3100 C.ar   71  TYR71       0.1957
     84  OH       -44.5270  -16.3100    0.2220 O.3    71  TYR71      -0.2866
     85  N        -38.3070  -10.8850    2.1400 N.am   72  THR72      -0.1951
     86  CA       -37.0350  -10.2090    1.9070 C.3    72  THR72       0.1897
     87  C        -36.2810  -11.0490    0.8810 C.2    72  THR72       0.2313
     88  O        -35.8700  -12.1760    1.1770 O.2    72  THR72      -0.2863
     89  CB       -36.2400  -10.0470    3.2020 C.3    72  THR72       0.1794
     90  OG1      -37.0170   -9.3110    4.1540 O.3    72  THR72      -0.2208
     91  CG2      -34.9360   -9.2970    2.9410 C.3    72  THR72       0.0378
     92  N        -45.9180   -2.6600   -2.9610 N.3    94  LYS94      -0.1245
     93  CA       -46.4310   -3.0630   -1.6550 C.3    94  LYS94       0.1561
     94  C        -47.4960   -2.0910   -1.1620 C.2    94  LYS94       0.2260
     95  O        -48.5300   -2.5080   -0.6300 O.2    94  LYS94      -0.2867
     96  CB       -45.2890   -3.1640   -0.6420 C.3    94  LYS94       0.0271
     97  CG       -45.7550   -3.3780    0.7880 C.3    94  LYS94       0.0035
     98  CD       -44.6060   -3.2830    1.7760 C.3    94  LYS94       0.0206
     99  CE       -45.1230   -3.2920    3.2100 C.3    94  LYS94       0.1093
    100  NZ       -44.0250   -3.3130    4.2160 N.3    94  LYS94      -0.1314
    101  N        -33.9820  -17.4950    4.2750 N.3   339  LEU339     -0.1231
    102  CA       -34.3730  -16.0900    4.3350 C.3   339  LEU339      0.1693
    103  C        -35.8010  -15.8850    3.8410 C.2   339  LEU339      0.2592
    104  O        -36.5610  -15.0990    4.4190 O.2   339  LEU339     -0.2718
    105  CB       -33.3940  -15.2530    3.5130 C.3   339  LEU339      0.0284
    106  CG       -33.6930  -13.7630    3.3500 C.3   339  LEU339      0.0019
    107  CD1      -33.4550  -13.0230    4.6580 C.3   339  LEU339      0.0001
    108  CD2      -32.8540  -13.1640    2.2290 C.3   339  LEU339      0.0001
    109  N        -36.1860  -16.5950    2.7820 N.am  340  LEU340     -0.1966
    110  CA       -37.5140  -16.4900    2.1960 C.3   340  LEU340      0.1728
    111  C        -38.5630  -17.2970    2.9500 C.2   340  LEU340      0.2617
    112  O        -39.7070  -17.3730    2.4910 O.2   340  LEU340     -0.2715
    113  CB       -37.4740  -16.9400    0.7330 C.3   340  LEU340      0.0311
    114  CG       -36.6330  -16.0960   -0.2260 C.3   340  LEU340      0.0022
    115  CD1      -36.5130  -16.7790   -1.5810 C.3   340  LEU340      0.0001
    116  CD2      -37.2380  -14.7110   -0.3730 C.3   340  LEU340      0.0001
    117  N        -38.2070  -17.8940    4.0860 N.am  341  GLY341     -0.1940
    118  CA       -39.1440  -18.7120    4.8300 C.3   341  GLY341      0.2014
    119  C        -39.2730  -20.1320    4.3360 C.2   341  GLY341      0.2639
    120  O        -40.2850  -20.7820    4.6150 O.2   341  GLY341     -0.2714
    121  N        -38.2740  -20.6340    3.6190 N.am  342  ASN342     -0.1958
    122  CA       -38.3110  -21.9590    3.0110 C.3   342  ASN342      0.1804
    123  C        -39.5820  -22.1830    2.1870 C.2   342  ASN342      0.2463
    124  O        -40.3200  -23.1440    2.4260 O.2   342  ASN342     -0.2730
    125  CB       -38.1600  -23.0440    4.0690 C.3   342  ASN342      0.1195
    126  CG       -36.8600  -22.9310    4.8340 C.2   342  ASN342      0.2630
    127  OD1      -36.7930  -22.2790    5.8770 O.2   342  ASN342     -0.2716
    128  ND2      -35.8150  -23.5610    4.3140 N.am  342  ASN342     -0.0877
    129  N        -39.8610  -21.3200    1.2090 N.am  343  PRO343     -0.2727
    130  CA       -41.0860  -21.4820    0.4220 C.3   343  PRO343      0.1402
    131  C        -41.0590  -22.7740   -0.3750 C.2   343  PRO343      0.2269
    132  O        -40.0050  -23.3550   -0.6390 O.2   343  PRO343     -0.2865
    133  CB       -41.0790  -20.2610   -0.5020 C.3   343  PRO343      0.0296
    134  CG       -39.6400  -19.9340   -0.6610 C.3   343  PRO343      0.0237
    135  CD       -39.0040  -20.2500    0.6660 C.3   343  PRO343      0.0939
    136  N        -44.4080  -21.6760   -4.3610 N.3   347  GLU347     -0.1245
    137  CA       -44.3330  -20.3670   -3.7170 C.3   347  GLU347      0.1567
    138  C        -43.1060  -19.5920   -4.1820 C.2   347  GLU347      0.2260
    139  O        -43.1780  -18.3750   -4.3910 O.2   347  GLU347     -0.2867
    140  CB       -44.3160  -20.5220   -2.1970 C.3   347  GLU347      0.0388
    141  CG       -45.5760  -21.1280   -1.6040 C.3   347  GLU347      0.1160
    142  CD       -45.3660  -21.6260   -0.1840 C.2   347  GLU347      0.3649
    143  OE1      -44.4910  -21.0740    0.5210 O.co2 347  GLU347     -0.2457
    144  OE2      -46.0700  -22.5760    0.2240 O.co2 347  GLU347     -0.2457
@<TRIPOS>BOND
     1   139   138    2
     2   136   137    1
     3   138   137    1
     4   137   140    1
     5    92    93    1
     6   140   141    1
     7    93    94    1
     8    93    96    1
     9   141   142    1
    10   115   114    1
    11    94    95    2
    12    49    48    2
    13   134   133    1
    14   134   135    1
    15    96    97    1
    16   132   131    2
    17   133   130    1
    18   131   130    1
    19   116   114    1
    20    81    79   ar
    21    81    83   ar
    22   114   113    1
    23   142   144   ar
    24   142   143   ar
    25    79    78   ar
    26    48    47    1
    27    84    83    1
    28    83    82   ar
    29   130   129    1
    30    78    77    1
    31    78    80   ar
    32    77    74    1
    33   135   129    1
    34    58    57    2
    35   113   110    1
    36    97    98    1
    37    87    88    2
    38    87    86    1
    39    82    80   ar
    40   129   123   am
    41    47    46    1
    42    47    50    1
    43    76    75    2
    44    50    51    1
    45    55    56    1
    46    75    74    1
    47    75    85   am
    48    98    99    1
    49    74    73    1
    50    73    66   am
    51    57    56    1
    52    57    64   am
    53    86    85    1
    54    86    89    1
    55    53    52   ar
    56    59    56    1
    57    59    60    1
    58   123   124    2
    59   123   122    1
    60   110   109    1
    61   110   111    1
    62   108   106    1
    63   112   111    2
    64    65    66    1
    65    65    64    1
    66    65    68    1
    67    60    61    1
    68    66    67    2
    69   109   103   am
    70    51    52    1
    71    91    89    1
    72   111   117   am
    73    52    54   ar
    74   122   121    1
    75   122   125    1
    76    89    90    1
    77    99   100    1
    78    69    68    1
    79    69    70    1
    80   106   105    1
    81   106   107    1
    82   105   102    1
    83   121   119   am
    84   103   102    1
    85   103   104    2
    86    70    71   ar
    87    70    72   ar
    88   125   126    1
    89   117   118    1
    90    61    62    2
    91    61    63   am
    92   101   102    1
    93   128   126   am
    94   119   120    2
    95   119   118    1
    96    18    17    2
    97   126   127    2
    98    19    20    1
    99    19    16    1
   100    20    22   ar
   101    20    21   ar
   102    25    22   ar
   103    25    27   ar
   104    22    24   ar
   105    21    23   ar
   106    27    28   ar
   107    17    16    1
   108    24    23   ar
   109    24    26   ar
   110    28    26   ar
   111    16    15    1
   112    44    43    1
   113    15    11   am
   114    45    43    1
   115    43    42    1
   116    42    39    1
   117    11    12    2
   118    11    10    1
   119    13    10    1
   120    13    14    1
   121    41    40    2
   122    10     9    1
   123    34    35    1
   124    34    33    1
   125    37    35   am
   126    40    39    1
   127    35    36    2
   128    39    38    1
   129    33    30    1
   130     4     3    2
   131     9     3   am
   132     3     2    1
   133    30    31    1
   134    30    29    1
   135    32    31    2
   136     7     5    1
   137     2     5    1
   138     2     1    1
   139     5     6    1
   140     6     8    1
