@<TRIPOS>MOLECULE
tmp/5wppA00.pdb
 133 128 0 0 0
SMALL
GASTEIGER

@<TRIPOS>ATOM
      1  N         29.4850   46.9610  113.4040 N.3    21  ASP21      -0.1239
      2  CA        30.7440   46.5350  112.7910 C.3    21  ASP21       0.1674
      3  C         31.1090   45.0910  113.1140 C.2    21  ASP21       0.2266
      4  O         32.2500   44.6780  112.8670 O.2    21  ASP21      -0.2867
      5  CB        31.9170   47.4500  113.1600 C.3    21  ASP21       0.1410
      6  CG        31.8080   48.8250  112.5300 C.2    21  ASP21       0.3668
      7  OD1       31.0550   48.9830  111.5390 O.co2  21  ASP21      -0.2456
      8  OD2       32.4770   49.7570  113.0300 O.co2  21  ASP21      -0.2456
      9  N         30.9100   41.3320  111.9260 N.3    23  TYR23      -0.1241
     10  CA        30.8030   40.6820  110.6240 C.3    23  TYR23       0.1605
     11  C         30.9040   39.1720  110.7850 C.2    23  TYR23       0.2264
     12  O         31.6140   38.6800  111.6640 O.2    23  TYR23      -0.2867
     13  CB        31.9220   41.1460  109.6680 C.3    23  TYR23       0.0534
     14  CG        31.7680   42.5500  109.1300 C.ar   23  TYR23      -0.0201
     15  CD1       32.0260   43.6580  109.9270 C.ar   23  TYR23      -0.0009
     16  CD2       31.3900   42.7700  107.8060 C.ar   23  TYR23      -0.0009
     17  CE1       31.8840   44.9420  109.4410 C.ar   23  TYR23       0.0417
     18  CE2       31.2470   44.0510  107.3140 C.ar   23  TYR23       0.0417
     19  CZ        31.4930   45.1280  108.1200 C.ar   23  TYR23       0.1957
     20  OH        31.3490   46.3970  107.6180 O.3    23  TYR23      -0.2866
     21  N         32.0080   35.3910  109.0460 N.3    25  VAL25      -0.1245
     22  CA        33.1100   34.8940  108.2260 C.3    25  VAL25       0.1561
     23  C         32.6890   33.5960  107.5510 C.2    25  VAL25       0.2260
     24  O         33.4770   32.6500  107.4370 O.2    25  VAL25      -0.2867
     25  CB        34.3870   34.7020  109.0630 C.3    25  VAL25       0.0252
     26  CG1       34.9860   36.0530  109.4260 C.3    25  VAL25       0.0019
     27  CG2       34.0790   33.8920  110.3240 C.3    25  VAL25       0.0019
     28  N         41.6970   34.2360  110.3680 N.3    46  THR46      -0.1203
     29  CA        41.4730   35.6700  110.5090 C.3    46  THR46       0.1994
     30  C         42.2200   36.4780  109.4510 C.2    46  THR46       0.2618
     31  O         41.9530   37.6760  109.3140 O.2    46  THR46      -0.2717
     32  CB        41.8620   36.1580  111.9150 C.3    46  THR46       0.1784
     33  OG1       43.2160   35.7960  112.2180 O.3    46  THR46      -0.2211
     34  CG2       40.9300   35.5680  112.9810 C.3    46  THR46       0.0376
     35  N         43.1040   35.8450  108.6760 N.am   47  MET47      -0.1965
     36  CA        43.9330   36.5390  107.6990 C.3    47  MET47       0.1736
     37  C         43.6890   36.1240  106.2560 C.2    47  MET47       0.2617
     38  O         44.2640   36.7450  105.3520 O.2    47  MET47      -0.2715
     39  CB        45.4170   36.3280  108.0220 C.3    47  MET47       0.0427
     40  CG        45.7950   36.8160  109.4020 C.3    47  MET47       0.0599
     41  SD        46.0980   38.5920  109.4100 S.3    47  MET47      -0.1393
     42  CE        47.7420   38.6130  108.6980 C.3    47  MET47       0.0692
     43  N         42.8880   35.0940  106.0080 N.am   48  THR48      -0.1951
     44  CA        42.6290   34.6680  104.6440 C.3    48  THR48       0.1897
     45  C         41.6130   35.5860  103.9740 C.2    48  THR48       0.2313
     46  O         40.9840   36.4530  104.6010 O.2    48  THR48      -0.2863
     47  CB        42.0970   33.2350  104.6080 C.3    48  THR48       0.1794
     48  OG1       40.8810   33.1550  105.3790 O.3    48  THR48      -0.2208
     49  CG2       43.1270   32.2560  105.1780 C.3    48  THR48       0.0378
     50  N         37.9690   36.2310  102.7090 N.3    50  ASN50      -0.1240
     51  CA        36.7890   35.9940  103.5250 C.3    50  ASN50       0.1653
     52  C         35.5800   36.6380  102.8750 C.2    50  ASN50       0.2266
     53  O         35.7120   37.5310  102.0380 O.2    50  ASN50      -0.2867
     54  CB        36.9730   36.5490  104.9380 C.3    50  ASN50       0.1155
     55  CG        37.0740   35.4650  105.9530 C.2    50  ASN50       0.2627
     56  OD1       36.1530   34.6610  106.0850 O.2    50  ASN50      -0.2716
     57  ND2       38.1800   35.4240  106.6820 N.am   50  ASN50      -0.0877
     58  N         33.6840   52.3470  109.3540 N.3    62  PHE62      -0.1241
     59  CA        34.1030   52.0580  107.9900 C.3    62  PHE62       0.1605
     60  C         33.3100   52.7690  106.9060 C.2    62  PHE62       0.2264
     61  O         33.6930   52.6650  105.7330 O.2    62  PHE62      -0.2867
     62  CB        34.0310   50.5430  107.7230 C.3    62  PHE62       0.0534
     63  CG        34.7540   49.7100  108.7460 C.ar   62  PHE62      -0.0203
     64  CD1       36.0540   50.0100  109.1110 C.ar   62  PHE62      -0.0042
     65  CD2       34.1260   48.6290  109.3460 C.ar   62  PHE62      -0.0042
     66  CE1       36.7190   49.2420  110.0540 C.ar   62  PHE62      -0.0003
     67  CE2       34.7840   47.8620  110.2930 C.ar   62  PHE62      -0.0003
     68  CZ        36.0780   48.1670  110.6440 C.ar   62  PHE62      -0.0000
     69  N         29.8790   41.3500  102.2540 N.3    75  TYR75      -0.1241
     70  CA        31.2380   41.7970  101.9770 C.3    75  TYR75       0.1605
     71  C         32.0810   40.6690  101.4100 C.2    75  TYR75       0.2264
     72  O         31.8490   39.4900  101.6900 O.2    75  TYR75      -0.2867
     73  CB        31.9380   42.3580  103.2250 C.3    75  TYR75       0.0534
     74  CG        32.5020   41.2800  104.1260 C.ar   75  TYR75      -0.0201
     75  CD1       31.6960   40.6570  105.0720 C.ar   75  TYR75      -0.0009
     76  CD2       33.8300   40.8730  104.0180 C.ar   75  TYR75      -0.0009
     77  CE1       32.2000   39.6600  105.8950 C.ar   75  TYR75       0.0417
     78  CE2       34.3380   39.8740  104.8240 C.ar   75  TYR75       0.0417
     79  CZ        33.5150   39.2750  105.7660 C.ar   75  TYR75       0.1957
     80  OH        34.0130   38.2840  106.5690 O.3    75  TYR75      -0.2866
     81  N         36.3270   40.0760  101.0220 N.3    77  TYR77      -0.1241
     82  CA        37.7030   40.4930  101.2350 C.3    77  TYR77       0.1605
     83  C         38.6190   39.4610  100.5930 C.2    77  TYR77       0.2264
     84  O         38.4510   38.2580  100.8140 O.2    77  TYR77      -0.2867
     85  CB        38.0420   40.6210  102.7250 C.3    77  TYR77       0.0534
     86  CG        39.5360   40.7030  102.9300 C.ar   77  TYR77      -0.0201
     87  CD1       40.2320   41.8620  102.6080 C.ar   77  TYR77      -0.0009
     88  CD2       40.2590   39.6090  103.4020 C.ar   77  TYR77      -0.0009
     89  CE1       41.6010   41.9400  102.7680 C.ar   77  TYR77       0.0417
     90  CE2       41.6310   39.6810  103.5670 C.ar   77  TYR77       0.0417
     91  CZ        42.2940   40.8460  103.2530 C.ar   77  TYR77       0.1957
     92  OH        43.6630   40.9160  103.4080 O.3    77  TYR77      -0.2866
     93  N         34.8230   49.8980  101.4000 N.3   112  PHE112     -0.1241
     94  CA        35.2340   49.9800  102.8050 C.3   112  PHE112      0.1605
     95  C         36.1010   51.2070  103.0240 C.2   112  PHE112      0.2264
     96  O         37.0920   51.4080  102.3210 O.2   112  PHE112     -0.2867
     97  CB        36.0360   48.7420  103.2220 C.3   112  PHE112      0.0534
     98  CG        35.2160   47.6100  103.7640 C.ar  112  PHE112     -0.0203
     99  CD1       34.6620   46.6740  102.9070 C.ar  112  PHE112     -0.0042
    100  CD2       35.0570   47.4410  105.1310 C.ar  112  PHE112     -0.0042
    101  CE1       33.9360   45.6090  103.3950 C.ar  112  PHE112     -0.0003
    102  CE2       34.3230   46.3760  105.6350 C.ar  112  PHE112     -0.0003
    103  CZ        33.7590   45.4590  104.7620 C.ar  112  PHE112     -0.0000
    104  N         41.2460   50.0850  110.2890 N.3   116  PHE116     -0.1241
    105  CA        41.0170   48.9300  111.1530 C.3   116  PHE116      0.1605
    106  C         42.3300   48.6060  111.8480 C.2   116  PHE116      0.2264
    107  O         43.2950   48.1990  111.1920 O.2   116  PHE116     -0.2867
    108  CB        40.5130   47.7300  110.3540 C.3   116  PHE116      0.0534
    109  CG        40.3530   46.4780  111.1710 C.ar  116  PHE116     -0.0203
    110  CD1       39.2080   46.2710  111.9270 C.ar  116  PHE116     -0.0042
    111  CD2       41.3390   45.5040  111.1730 C.ar  116  PHE116     -0.0042
    112  CE1       39.0500   45.1160  112.6760 C.ar  116  PHE116     -0.0003
    113  CE2       41.1910   44.3490  111.9190 C.ar  116  PHE116     -0.0003
    114  CZ        40.0450   44.1540  112.6730 C.ar  116  PHE116     -0.0000
    115  N         42.0010   51.4520  105.1550 N.3   121  LEU121     -0.1245
    116  CA        41.2560   50.6720  104.1750 C.3   121  LEU121      0.1561
    117  C         41.0340   51.4370  102.8770 C.2   121  LEU121      0.2260
    118  O         40.1610   51.0590  102.0870 O.2   121  LEU121     -0.2867
    119  CB        39.9130   50.2320  104.7550 C.3   121  LEU121      0.0270
    120  CG        40.0180   49.5030  106.0950 C.3   121  LEU121      0.0019
    121  CD1       38.6570   48.9670  106.5210 C.3   121  LEU121      0.0001
    122  CD2       41.0530   48.3860  106.0240 C.3   121  LEU121      0.0001
    123  N         42.9990   48.7390   99.2100 N.3   184  PHE184     -0.1241
    124  CA        42.4860   47.6290  100.0200 C.3   184  PHE184      0.1605
    125  C         41.3350   46.9340   99.3090 C.2   184  PHE184      0.2264
    126  O         40.5030   47.5920   98.6950 O.2   184  PHE184     -0.2867
    127  CB        42.0380   48.1650  101.3820 C.3   184  PHE184      0.0534
    128  CG        41.4300   47.1250  102.2900 C.ar  184  PHE184     -0.0203
    129  CD1       42.2270   46.1670  102.8940 C.ar  184  PHE184     -0.0042
    130  CD2       40.0740   47.1180  102.5510 C.ar  184  PHE184     -0.0042
    131  CE1       41.6790   45.2090  103.7310 C.ar  184  PHE184     -0.0003
    132  CE2       39.5150   46.1640  103.3960 C.ar  184  PHE184     -0.0003
    133  CZ        40.3170   45.2060  103.9750 C.ar  184  PHE184     -0.0000
@<TRIPOS>BOND
     1   126   125    2
     2   123   124    1
     3   125   124    1
     4   124   127    1
     5    83    84    2
     6    83    82    1
     7    81    82    1
     8    82    85    1
     9   127   128    1
    10    93    94    1
    11    71    72    2
    12    71    70    1
    13    70    69    1
    14    70    73    1
    15    53    52    2
    16   118   117    2
    17   128   130   ar
    18   128   129   ar
    19    96    95    2
    20   130   132   ar
    21    87    89   ar
    22    87    86   ar
    23    50    51    1
    24    85    86    1
    25    89    91   ar
    26    94    95    1
    27    94    97    1
    28    52    51    1
    29   117   116    1
    30   129   131   ar
    31    99   101   ar
    32    99    98   ar
    33    86    88   ar
    34    97    98    1
    35    73    74    1
    36    91    92    1
    37    91    90   ar
    38   101   103   ar
    39   132   133   ar
    40    88    90   ar
    41    51    54    1
    42   131   133   ar
    43    98   100   ar
    44    45    46    2
    45    45    44    1
    46    76    74   ar
    47    76    78   ar
    48    74    75   ar
    49   116   119    1
    50   116   115    1
    51    47    44    1
    52    47    49    1
    53    47    48    1
    54    44    43    1
    55   119   120    1
    56   103   102   ar
    57    78    79   ar
    58    54    55    1
    59    75    77   ar
    60   100   102   ar
    61    38    37    2
    62    61    60    2
    63    79    77   ar
    64    79    80    1
    65    55    56    2
    66    55    57   am
    67    43    37   am
    68   122   120    1
    69   120   121    1
    70    37    36    1
    71    60    59    1
    72    18    16   ar
    73    18    19   ar
    74    24    23    2
    75    23    22    1
    76    20    19    1
    77    36    39    1
    78    36    35    1
    79    62    59    1
    80    62    63    1
    81    16    14   ar
    82    59    58    1
    83    39    40    1
    84    19    17   ar
    85    22    21    1
    86    22    25    1
    87    35    30   am
    88    42    41    1
    89    63    64   ar
    90    63    65   ar
    91    25    26    1
    92    25    27    1
    93    64    66   ar
    94    14    13    1
    95    14    15   ar
    96    31    30    2
    97    65    67   ar
    98    40    41    1
    99    17    15   ar
   100    30    29    1
   101    13    10    1
   102    66    68   ar
   103   104   105    1
   104    67    68   ar
   105   108   105    1
   106   108   109    1
   107    28    29    1
   108    29    32    1
   109    10    11    1
   110    10     9    1
   111    11    12    2
   112   105   106    1
   113   109   111   ar
   114   109   110   ar
   115   111   113   ar
   116   107   106    2
   117     7     6   ar
   118    32    33    1
   119    32    34    1
   120   113   114   ar
   121   110   112   ar
   122     6     8   ar
   123     6     5    1
   124   114   112   ar
   125     2     3    1
   126     2     5    1
   127     2     1    1
   128     4     3    2
