@<TRIPOS>MOLECULE
tmp/5wppB00.pdb
 110 106 0 0 0
SMALL
GASTEIGER

@<TRIPOS>ATOM
      1  N         31.5190   45.6500   51.6500 N.3    22  TYR22      -0.1241
      2  CA        32.2570   45.4120   52.8850 C.3    22  TYR22       0.1605
      3  C         33.6260   44.8380   52.5650 C.2    22  TYR22       0.2264
      4  O         33.7660   44.0320   51.6390 O.2    22  TYR22      -0.2867
      5  CB        31.5040   44.4470   53.8010 C.3    22  TYR22       0.0534
      6  CG        30.3060   45.0760   54.4530 C.ar   22  TYR22      -0.0201
      7  CD1       29.1610   45.3550   53.7210 C.ar   22  TYR22      -0.0009
      8  CD2       30.3290   45.4210   55.8000 C.ar   22  TYR22      -0.0009
      9  CE1       28.0650   45.9500   54.3110 C.ar   22  TYR22       0.0417
     10  CE2       29.2390   46.0180   56.3940 C.ar   22  TYR22       0.0417
     11  CZ        28.1150   46.2800   55.6520 C.ar   22  TYR22       0.1957
     12  OH        27.0330   46.8780   56.2410 O.3    22  TYR22      -0.2866
     13  N         36.8520   42.4610   54.0530 N.3    24  VAL24      -0.1245
     14  CA        36.9570   41.2760   54.8960 C.3    24  VAL24       0.1561
     15  C         38.3600   41.2270   55.4830 C.2    24  VAL24       0.2260
     16  O         38.8390   40.1650   55.8940 O.2    24  VAL24      -0.2867
     17  CB        36.6240   39.9900   54.1170 C.3    24  VAL24       0.0252
     18  CG1       35.1240   39.8250   53.9880 C.3    24  VAL24       0.0019
     19  CG2       37.2540   40.0230   52.7220 C.3    24  VAL24       0.0019
     20  N         35.3850   34.0590   52.1890 N.3    45  THR45      -0.1218
     21  CA        34.1610   34.8400   52.3430 C.3    45  THR45       0.1862
     22  C         33.1250   34.1250   53.1960 C.2    45  THR45       0.2287
     23  O         32.1670   34.7670   53.6410 O.2    45  THR45      -0.2866
     24  CB        33.5480   35.1780   50.9750 C.3    45  THR45       0.1770
     25  OG1       33.2800   33.9700   50.2580 O.3    45  THR45      -0.2211
     26  CG2       34.4820   36.0480   50.1680 C.3    45  THR45       0.0375
     27  N         34.8880   36.6920   59.9020 N.3    49  ASN49      -0.1240
     28  CA        35.5970   37.7930   59.2750 C.3    49  ASN49       0.1653
     29  C         35.2980   39.0660   60.0400 C.2    49  ASN49       0.2266
     30  O         34.2880   39.1660   60.7440 O.2    49  ASN49      -0.2867
     31  CB        35.1580   37.9860   57.8170 C.3    49  ASN49       0.1155
     32  CG        35.9710   37.1740   56.8480 C.2    49  ASN49       0.2627
     33  OD1       37.1960   37.2700   56.8150 O.2    49  ASN49      -0.2716
     34  ND2       35.2910   36.3700   56.0390 N.am   49  ASN49      -0.0877
     35  N         20.6460   46.9660   54.8950 N.3    61  PHE61      -0.1241
     36  CA        20.9250   46.3420   56.1820 C.3    61  PHE61       0.1605
     37  C         20.6260   47.2110   57.3960 C.2    61  PHE61       0.2264
     38  O         20.6860   46.6980   58.5180 O.2    61  PHE61      -0.2867
     39  CB        22.3990   45.9130   56.2480 C.3    61  PHE61       0.0534
     40  CG        22.8260   45.0180   55.1130 C.ar   61  PHE61      -0.0203
     41  CD1       22.0240   43.9660   54.7030 C.ar   61  PHE61      -0.0042
     42  CD2       24.0310   45.2300   54.4610 C.ar   61  PHE61      -0.0042
     43  CE1       22.4180   43.1380   53.6650 C.ar   61  PHE61      -0.0003
     44  CE2       24.4300   44.4030   53.4180 C.ar   61  PHE61      -0.0003
     45  CZ        23.6230   43.3570   53.0260 C.ar   61  PHE61      -0.0000
     46  N         32.6740   46.0130   61.2890 N.3    74  TYR74      -0.1241
     47  CA        31.8140   44.8830   61.6160 C.3    74  TYR74       0.1605
     48  C         32.6380   43.6530   61.9800 C.2    74  TYR74       0.2264
     49  O         33.7960   43.5030   61.5760 O.2    74  TYR74      -0.2867
     50  CB        30.8650   44.5300   60.4650 C.3    74  TYR74       0.0534
     51  CG        31.5740   43.7080   59.4210 C.ar   74  TYR74      -0.0201
     52  CD1       32.3460   44.3270   58.4440 C.ar   74  TYR74      -0.0009
     53  CD2       31.5170   42.3190   59.4410 C.ar   74  TYR74      -0.0009
     54  CE1       33.0310   43.5800   57.4890 C.ar   74  TYR74       0.0417
     55  CE2       32.2050   41.5610   58.5030 C.ar   74  TYR74       0.0417
     56  CZ        32.9570   42.1990   57.5310 C.ar   74  TYR74       0.1957
     57  OH        33.6400   41.4530   56.5990 O.3    74  TYR74      -0.2866
     58  N         31.7990   39.4030   61.9410 N.3    76  TYR76      -0.1241
     59  CA        30.9100   38.2840   61.6500 C.3    76  TYR76       0.1605
     60  C         31.5710   36.9980   62.1190 C.2    76  TYR76       0.2264
     61  O         32.7320   36.7430   61.7910 O.2    76  TYR76      -0.2867
     62  CB        30.5930   38.1660   60.1530 C.3    76  TYR76       0.0534
     63  CG        29.9850   36.8200   59.8220 C.ar   76  TYR76      -0.0201
     64  CD1       28.6690   36.5280   60.1720 C.ar   76  TYR76      -0.0009
     65  CD2       30.7410   35.8230   59.2080 C.ar   76  TYR76      -0.0009
     66  CE1       28.1150   35.2910   59.9050 C.ar   76  TYR76       0.0417
     67  CE2       30.1920   34.5820   58.9290 C.ar   76  TYR76       0.0417
     68  CZ        28.8800   34.3230   59.2730 C.ar   76  TYR76       0.1957
     69  OH        28.3310   33.0890   59.0080 O.3    76  TYR76      -0.2866
     70  N         23.0790   44.4080   62.4400 N.3   111  PHE111     -0.1241
     71  CA        22.7320   44.1370   61.0380 C.3   111  PHE111      0.1605
     72  C         21.2690   43.7570   60.9170 C.2   111  PHE111      0.2264
     73  O         20.7960   42.8700   61.6270 O.2   111  PHE111     -0.2867
     74  CB        23.5670   42.9740   60.4860 C.3   111  PHE111      0.0534
     75  CG        24.8970   43.3610   59.9200 C.ar  111  PHE111     -0.0203
     76  CD1       26.0370   43.3260   60.7140 C.ar  111  PHE111     -0.0042
     77  CD2       25.0260   43.6880   58.5820 C.ar  111  PHE111     -0.0042
     78  CE1       27.2750   43.6470   60.1880 C.ar  111  PHE111     -0.0003
     79  CE2       26.2630   44.0100   58.0410 C.ar  111  PHE111     -0.0003
     80  CZ        27.3910   43.9960   58.8500 C.ar  111  PHE111     -0.0000
     81  N         19.9130   39.3150   53.2290 N.3   115  PHE115     -0.1241
     82  CA        20.8480   39.1750   52.1160 C.3   115  PHE115      0.1605
     83  C         20.4810   37.8900   51.3760 C.2   115  PHE115      0.2264
     84  O         20.7980   36.7910   51.8420 O.2   115  PHE115     -0.2867
     85  CB        22.3010   39.1570   52.5900 C.3   115  PHE115      0.0534
     86  CG        23.2920   39.0030   51.4720 C.ar  115  PHE115     -0.0203
     87  CD1       23.4840   40.0290   50.5570 C.ar  115  PHE115     -0.0042
     88  CD2       24.0120   37.8280   51.3190 C.ar  115  PHE115     -0.0042
     89  CE1       24.3830   39.8920   49.5140 C.ar  115  PHE115     -0.0003
     90  CE2       24.9150   37.6800   50.2770 C.ar  115  PHE115     -0.0003
     91  CZ        25.1010   38.7150   49.3720 C.ar  115  PHE115     -0.0000
     92  N         18.8860   38.3800   58.3980 N.3   120  LEU120     -0.1245
     93  CA        19.8990   38.8190   59.3490 C.3   120  LEU120      0.1561
     94  C         19.3040   39.1830   60.6960 C.2   120  LEU120      0.2260
     95  O         19.9710   39.8490   61.4950 O.2   120  LEU120     -0.2867
     96  CB        20.6740   40.0070   58.7840 C.3   120  LEU120      0.0270
     97  CG        21.1720   39.7860   57.3560 C.3   120  LEU120      0.0019
     98  CD1       21.9840   40.9800   56.9000 C.3   120  LEU120      0.0001
     99  CD2       21.9930   38.5020   57.2740 C.3   120  LEU120      0.0001
    100  N         21.3450   36.0880   63.9410 N.3   183  PHE183     -0.1241
    101  CA        22.5350   36.2510   63.0920 C.3   183  PHE183      0.1605
    102  C         23.6490   36.9860   63.8370 C.2   183  PHE183      0.2264
    103  O         23.3770   37.9280   64.5710 O.2   183  PHE183     -0.2867
    104  CB        22.1260   37.0150   61.8290 C.3   183  PHE183      0.0534
    105  CG        23.2600   37.3400   60.9030 C.ar  183  PHE183     -0.0203
    106  CD1       23.8790   36.3440   60.1620 C.ar  183  PHE183     -0.0042
    107  CD2       23.6800   38.6500   60.7390 C.ar  183  PHE183     -0.0042
    108  CE1       24.9130   36.6430   59.2850 C.ar  183  PHE183     -0.0003
    109  CE2       24.7140   38.9610   59.8560 C.ar  183  PHE183     -0.0003
    110  CZ        25.3330   37.9540   59.1320 C.ar  183  PHE183     -0.0000
@<TRIPOS>BOND
     1    91    89   ar
     2    91    90   ar
     3    89    87   ar
     4    26    24    1
     5    25    24    1
     6    90    88   ar
     7    87    86   ar
     8    24    21    1
     9    88    86   ar
    10    83    84    2
    11    83    82    1
    12    86    85    1
    13     4     3    2
    14     1     2    1
    15    82    85    1
    16    82    81    1
    17    20    21    1
    18    21    22    1
    19     3     2    1
    20    19    17    1
    21     2     5    1
    22    45    44   ar
    23    45    43   ar
    24    22    23    2
    25    44    42   ar
    26    43    41   ar
    27     7     9   ar
    28     7     6   ar
    29     5     6    1
    30    18    17    1
    31    13    14    1
    32    17    14    1
    33     9    11   ar
    34     6     8   ar
    35    42    40   ar
    36    41    40   ar
    37    35    36    1
    38    14    15    1
    39    40    39    1
    40    15    16    2
    41    11    12    1
    42    11    10   ar
    43     8    10   ar
    44    34    32   am
    45    36    39    1
    46    36    37    1
    47    57    56    1
    48    33    32    2
    49    32    31    1
    50    98    97    1
    51    99    97    1
    52    97    96    1
    53    37    38    2
    54    54    56   ar
    55    54    52   ar
    56    56    55   ar
    57    31    28    1
    58    79    77   ar
    59    79    80   ar
    60    92    93    1
    61    52    51   ar
    62    55    53   ar
    63    77    75   ar
    64    96    93    1
    65    80    78   ar
    66    67    65   ar
    67    67    68   ar
    68    69    68    1
    69   110   108   ar
    70   110   109   ar
    71    65    63   ar
    72    68    66   ar
    73    28    27    1
    74    28    29    1
    75   108   106   ar
    76    93    94    1
    77    51    53   ar
    78    51    50    1
    79    63    62    1
    80    63    64   ar
    81   109   107   ar
    82    66    64   ar
    83    75    74    1
    84    75    76   ar
    85    29    30    2
    86    62    59    1
    87   106   105   ar
    88    78    76   ar
    89    50    47    1
    90    74    71    1
    91    94    95    2
    92   107   105   ar
    93   105   104    1
    94    72    71    1
    95    72    73    2
    96    71    70    1
    97    46    47    1
    98    49    48    2
    99    47    48    1
   100    59    58    1
   101    59    60    1
   102    61    60    2
   103   104   101    1
   104   101   102    1
   105   101   100    1
   106   102   103    2
