@<TRIPOS>MOLECULE
tmp/5wpsA00.pdb
 142 139 0 0 0
SMALL
GASTEIGER

@<TRIPOS>ATOM
      1  N        -31.1330  -27.2990    5.5980 N.3    21  ASP21      -0.1225
      2  CA       -30.4900  -26.3290    4.7150 C.3    21  ASP21       0.1805
      3  C        -30.5400  -24.8970    5.2360 C.2    21  ASP21       0.2598
      4  O        -30.2380  -23.9610    4.4790 O.2    21  ASP21      -0.2718
      5  CB       -30.9810  -26.4200    3.2620 C.3    21  ASP21       0.1424
      6  CG       -30.4600  -27.6640    2.5480 C.2    21  ASP21       0.3668
      7  OD1      -29.5700  -28.3430    3.1180 O.co2  21  ASP21      -0.2456
      8  OD2      -30.9160  -27.9540    1.4180 O.co2  21  ASP21      -0.2456
      9  N        -30.9030  -24.6930    6.5010 N.am   22  ASP22      -0.1960
     10  CA       -30.8570  -23.3650    7.0920 C.3    22  ASP22       0.1840
     11  C        -29.4250  -23.0290    7.5130 C.2    22  ASP22       0.2622
     12  O        -28.5470  -23.8940    7.5920 O.2    22  ASP22      -0.2715
     13  CB       -31.8090  -23.2880    8.2860 C.3    22  ASP22       0.1450
     14  CG       -32.2530  -21.8620    8.6160 C.2    22  ASP22       0.3671
     15  OD1      -31.9720  -20.9180    7.8380 O.co2  22  ASP22      -0.2456
     16  OD2      -32.9050  -21.6910    9.6660 O.co2  22  ASP22      -0.2456
     17  N        -29.1940  -21.7490    7.7870 N.am   23  TYR23      -0.1974
     18  CA       -27.8480  -21.2450    8.0270 C.3    23  TYR23       0.1639
     19  C        -27.9270  -19.9320    8.7950 C.2    23  TYR23       0.2290
     20  O        -28.9600  -19.2530    8.8050 O.2    23  TYR23      -0.2864
     21  CB       -27.1040  -21.0240    6.7000 C.3    23  TYR23       0.0560
     22  CG       -27.8290  -20.0580    5.7900 C.ar   23  TYR23      -0.0198
     23  CD1      -28.8670  -20.4890    4.9670 C.ar   23  TYR23      -0.0009
     24  CD2      -27.5110  -18.7040    5.7860 C.ar   23  TYR23      -0.0009
     25  CE1      -29.5530  -19.6020    4.1560 C.ar   23  TYR23       0.0417
     26  CE2      -28.1930  -17.8120    4.9820 C.ar   23  TYR23       0.0417
     27  CZ       -29.2080  -18.2620    4.1680 C.ar   23  TYR23       0.1957
     28  OH       -29.8830  -17.3630    3.3770 O.3    23  TYR23      -0.2866
     29  N        -24.0120  -23.8040    8.8920 N.3    54  GLY54      -0.1210
     30  CA       -25.1290  -24.3550    8.1440 C.3    54  GLY54       0.1956
     31  C        -25.3700  -25.8090    8.4780 C.2    54  GLY54       0.2612
     32  O        -24.4150  -26.5750    8.6420 O.2    54  GLY54      -0.2717
     33  N        -26.6410  -26.2030    8.5870 N.am   55  TYR55      -0.1962
     34  CA       -27.0070  -27.5910    8.8540 C.3    55  TYR55       0.1771
     35  C        -26.9860  -28.3850    7.5500 C.2    55  TYR55       0.2619
     36  O        -27.5700  -27.9620    6.5490 O.2    55  TYR55      -0.2715
     37  CB       -28.4090  -27.6310    9.4760 C.3    55  TYR55       0.0574
     38  CG       -29.0200  -29.0080    9.6230 C.ar   55  TYR55      -0.0198
     39  CD1      -28.2810  -30.0750   10.1140 C.ar   55  TYR55      -0.0009
     40  CD2      -30.3520  -29.2310    9.2910 C.ar   55  TYR55      -0.0009
     41  CE1      -28.8460  -31.3320   10.2530 C.ar   55  TYR55       0.0417
     42  CE2      -30.9270  -30.4860    9.4320 C.ar   55  TYR55       0.0417
     43  CZ       -30.1660  -31.5360    9.9040 C.ar   55  TYR55       0.1957
     44  OH       -30.7260  -32.7870   10.0440 O.3    55  TYR55      -0.2866
     45  N        -26.3170  -29.5390    7.5580 N.am   56  VAL56      -0.1977
     46  CA       -26.2870  -30.4520    6.4120 C.3    56  VAL56       0.1596
     47  C        -26.7950  -31.8030    6.9010 C.2    56  VAL56       0.2287
     48  O        -26.0390  -32.5930    7.4820 O.2    56  VAL56      -0.2864
     49  CB       -24.8920  -30.5740    5.7800 C.3    56  VAL56       0.0276
     50  CG1      -24.9360  -31.5140    4.5780 C.3    56  VAL56       0.0022
     51  CG2      -24.3540  -29.2010    5.3660 C.3    56  VAL56       0.0022
     52  N        -27.3750  -29.8540   -0.9680 N.3    62  PHE62      -0.1241
     53  CA       -26.0210  -29.3490   -1.1620 C.3    62  PHE62       0.1605
     54  C        -24.9780  -30.4340   -1.4080 C.2    62  PHE62       0.2264
     55  O        -23.9480  -30.1490   -2.0380 O.2    62  PHE62      -0.2867
     56  CB       -25.6000  -28.5220    0.0530 C.3    62  PHE62       0.0534
     57  CG       -26.4280  -27.2750    0.2600 C.ar   62  PHE62      -0.0203
     58  CD1      -26.6340  -26.3820   -0.7820 C.ar   62  PHE62      -0.0042
     59  CD2      -26.9930  -26.9970    1.4980 C.ar   62  PHE62      -0.0042
     60  CE1      -27.3990  -25.2390   -0.5970 C.ar   62  PHE62      -0.0003
     61  CE2      -27.7530  -25.8520    1.6890 C.ar   62  PHE62      -0.0003
     62  CZ       -27.9570  -24.9780    0.6450 C.ar   62  PHE62      -0.0000
     63  N        -21.8340  -27.5100    9.1920 N.3    73  ILE73      -0.1245
     64  CA       -20.5770  -27.0520    8.6170 C.3    73  ILE73       0.1561
     65  C        -20.4520  -25.5490    8.8760 C.2    73  ILE73       0.2260
     66  O        -21.3940  -24.8910    9.3150 O.2    73  ILE73      -0.2867
     67  CB       -20.4600  -27.3910    7.1150 C.3    73  ILE73       0.0252
     68  CG1      -21.6250  -26.8010    6.2890 C.3    73  ILE73       0.0019
     69  CG2      -20.4920  -28.8990    6.9410 C.3    73  ILE73       0.0019
     70  CD1      -21.5660  -25.2800    5.9940 C.3    73  ILE73       0.0001
     71  N        -19.2810  -22.0060    6.7280 N.3    75  PHE75      -0.1241
     72  CA       -19.1910  -21.5910    5.3330 C.3    75  PHE75       0.1605
     73  C        -18.7370  -20.1440    5.2220 C.2    75  PHE75       0.2264
     74  O        -18.9080  -19.3380    6.1480 O.2    75  PHE75      -0.2867
     75  CB       -20.5350  -21.7400    4.5970 C.3    75  PHE75       0.0534
     76  CG       -21.5630  -20.7000    4.9870 C.ar   75  PHE75      -0.0203
     77  CD1      -22.4020  -20.9010    6.0750 C.ar   75  PHE75      -0.0042
     78  CD2      -21.6960  -19.5260    4.2590 C.ar   75  PHE75      -0.0042
     79  CE1      -23.3390  -19.9360    6.4320 C.ar   75  PHE75      -0.0003
     80  CE2      -22.6280  -18.5660    4.6080 C.ar   75  PHE75      -0.0003
     81  CZ       -23.4450  -18.7680    5.6940 C.ar   75  PHE75      -0.0000
     82  N        -19.1030  -17.1290    2.0980 N.3    77  TYR77      -0.1241
     83  CA       -19.5950  -16.7080    0.7930 C.3    77  TYR77       0.1605
     84  C        -19.0510  -15.3170    0.4830 C.2    77  TYR77       0.2264
     85  O        -19.1650  -14.4070    1.3100 O.2    77  TYR77      -0.2867
     86  CB       -21.1370  -16.6750    0.7610 C.3    77  TYR77       0.0534
     87  CG       -21.6840  -15.8740   -0.4000 C.ar   77  TYR77      -0.0201
     88  CD1      -21.5690  -16.3350   -1.7110 C.ar   77  TYR77      -0.0009
     89  CD2      -22.2790  -14.6390   -0.1890 C.ar   77  TYR77      -0.0009
     90  CE1      -22.0460  -15.5930   -2.7800 C.ar   77  TYR77       0.0417
     91  CE2      -22.7540  -13.8870   -1.2510 C.ar   77  TYR77       0.0417
     92  CZ       -22.6350  -14.3640   -2.5390 C.ar   77  TYR77       0.1957
     93  OH       -23.1190  -13.6090   -3.5790 O.3    77  TYR77      -0.2866
     94  N        -20.2420  -27.3780   -2.0620 N.3   112  PHE112     -0.1241
     95  CA       -21.6680  -27.6610   -2.1710 C.3   112  PHE112      0.1605
     96  C        -22.1680  -27.3710   -3.5810 C.2   112  PHE112      0.2264
     97  O        -21.6710  -26.4770   -4.2750 O.2   112  PHE112     -0.2867
     98  CB       -22.4710  -26.8530   -1.1440 C.3   112  PHE112      0.0534
     99  CG       -22.2450  -25.3660   -1.2210 C.ar  112  PHE112     -0.0203
    100  CD1      -23.0340  -24.5700   -2.0440 C.ar  112  PHE112     -0.0042
    101  CD2      -21.2590  -24.7620   -0.4510 C.ar  112  PHE112     -0.0042
    102  CE1      -22.8290  -23.2000   -2.1150 C.ar  112  PHE112     -0.0003
    103  CE2      -21.0540  -23.3920   -0.5140 C.ar  112  PHE112     -0.0003
    104  CZ       -21.8370  -22.6130   -1.3510 C.ar  112  PHE112     -0.0000
    105  N        -29.7310  -21.8300   -5.4340 N.3   116  PHE116     -0.1241
    106  CA       -30.2590  -20.9980   -4.3640 C.3   116  PHE116      0.1605
    107  C        -30.9060  -19.7800   -4.9970 C.2   116  PHE116      0.2264
    108  O        -30.2190  -18.9770   -5.6370 O.2   116  PHE116     -0.2867
    109  CB       -29.1440  -20.5720   -3.4050 C.3   116  PHE116      0.0534
    110  CG       -29.6290  -19.7240   -2.2660 C.ar  116  PHE116     -0.0203
    111  CD1      -30.3680  -20.2880   -1.2370 C.ar  116  PHE116     -0.0042
    112  CD2      -29.3620  -18.3660   -2.2270 C.ar  116  PHE116     -0.0042
    113  CE1      -30.8240  -19.5100   -0.1800 C.ar  116  PHE116     -0.0003
    114  CE2      -29.8100  -17.5860   -1.1720 C.ar  116  PHE116     -0.0003
    115  CZ       -30.5480  -18.1570   -0.1500 C.ar  116  PHE116     -0.0000
    116  N        -25.2840  -23.0620   -7.8380 N.3   121  LEU121     -0.1245
    117  CA       -24.1990  -23.2280   -6.8790 C.3   121  LEU121      0.1561
    118  C        -23.0790  -24.0940   -7.4400 C.2   121  LEU121      0.2260
    119  O        -22.1270  -24.4090   -6.7180 O.2   121  LEU121     -0.2867
    120  CB       -24.7250  -23.7880   -5.5570 C.3   121  LEU121      0.0270
    121  CG       -25.9330  -23.0280   -4.9970 C.3   121  LEU121      0.0019
    122  CD1      -26.3450  -23.6190   -3.6680 C.3   121  LEU121      0.0001
    123  CD2      -25.6260  -21.5310   -4.8750 C.3   121  LEU121      0.0001
    124  N        -19.5630  -20.7580   -8.4330 N.3   184  PHE184     -0.1241
    125  CA       -20.1500  -20.0060   -7.3090 C.3   184  PHE184      0.1605
    126  C        -19.1660  -19.8500   -6.1330 C.2   184  PHE184      0.2264
    127  O        -18.5740  -20.8240   -5.6720 O.2   184  PHE184     -0.2867
    128  CB       -21.4510  -20.7030   -6.8580 C.3   184  PHE184      0.0534
    129  CG       -22.1990  -19.9580   -5.7880 C.ar  184  PHE184     -0.0203
    130  CD1      -23.0810  -18.9390   -6.1220 C.ar  184  PHE184     -0.0042
    131  CD2      -22.0060  -20.2620   -4.4490 C.ar  184  PHE184     -0.0042
    132  CE1      -23.7560  -18.2290   -5.1500 C.ar  184  PHE184     -0.0003
    133  CE2      -22.6770  -19.5530   -3.4630 C.ar  184  PHE184     -0.0003
    134  CZ       -23.5640  -18.5360   -3.8160 C.ar  184  PHE184     -0.0000
    135  N        -17.5190  -24.6130    2.0750 N.3   188  ASP188     -0.1239
    136  CA       -17.7810  -25.0680    3.4330 C.3   188  ASP188      0.1674
    137  C        -16.5480  -25.7520    4.0120 C.2   188  ASP188      0.2266
    138  O        -15.6940  -26.2710    3.2810 O.2   188  ASP188     -0.2867
    139  CB       -18.9440  -26.0770    3.4790 C.3   188  ASP188      0.1410
    140  CG       -20.2640  -25.5110    2.9470 C.2   188  ASP188      0.3668
    141  OD1      -20.4100  -24.2650    2.8150 O.co2 188  ASP188     -0.2456
    142  OD2      -21.1720  -26.3460    2.7040 O.co2 188  ASP188     -0.2456
@<TRIPOS>BOND
     1   124   125    1
     2   116   117    1
     3   118   117    1
     4   118   119    2
     5   125   128    1
     6   125   126    1
     7   117   120    1
     8   128   129    1
     9   126   127    2
    10   130   129   ar
    11   130   132   ar
    12   129   131   ar
    13   108   107    2
    14   120   121    1
    15   105   106    1
    16   132   134   ar
    17   121   123    1
    18   121   122    1
    19   107   106    1
    20   131   133   ar
    21   106   109    1
    22    97    96    2
    23   134   133   ar
    24    96    95    1
    25    93    92    1
    26   109   110    1
    27    90    92   ar
    28    90    88   ar
    29    92    91   ar
    30   110   112   ar
    31   110   111   ar
    32   112   114   ar
    33    95    94    1
    34    95    98    1
    35   102   100   ar
    36   102   104   ar
    37   100    99   ar
    38    55    54    2
    39    88    87   ar
    40    54    53    1
    41   104   103   ar
    42    91    89   ar
    43   111   113   ar
    44    99    98    1
    45    99   101   ar
    46   114   115   ar
    47    53    52    1
    48    53    56    1
    49    58    60   ar
    50    58    57   ar
    51    60    62   ar
    52   103   101   ar
    53    87    89   ar
    54    87    86    1
    55   113   115   ar
    56    56    57    1
    57    57    59   ar
    58    84    83    1
    59    84    85    2
    60    62    61   ar
    61    86    83    1
    62    83    82    1
    63     8     6   ar
    64    59    61   ar
    65   135   136    1
    66     6     7   ar
    67     6     5    1
    68   142   140   ar
    69   141   140   ar
    70   140   139    1
    71     5     2    1
    72   138   137    2
    73    28    27    1
    74   136   139    1
    75   136   137    1
    76    25    27   ar
    77    25    23   ar
    78    27    26   ar
    79    78    80   ar
    80    78    76   ar
    81     4     3    2
    82    50    49    1
    83    75    76    1
    84    75    72    1
    85    80    81   ar
    86     2     3    1
    87     2     1    1
    88    23    22   ar
    89    26    24   ar
    90    76    77   ar
    91    73    72    1
    92    73    74    2
    93     3     9   am
    94    72    71    1
    95    51    49    1
    96    81    79   ar
    97    49    46    1
    98    24    22   ar
    99    22    21    1
   100    70    68    1
   101    77    79   ar
   102    68    67    1
   103    46    47    1
   104    46    45    1
   105     9    10    1
   106    36    35    2
   107    21    18    1
   108    47    48    2
   109    69    67    1
   110    10    11    1
   111    10    13    1
   112    67    64    1
   113    11    12    2
   114    11    17   am
   115    35    45   am
   116    35    34    1
   117    17    18    1
   118    15    14   ar
   119    18    19    1
   120    30    31    1
   121    30    29    1
   122    13    14    1
   123    31    33   am
   124    31    32    2
   125    33    34    1
   126    14    16   ar
   127    64    65    1
   128    64    63    1
   129    19    20    2
   130    34    37    1
   131    65    66    2
   132    40    42   ar
   133    40    38   ar
   134    42    43   ar
   135    37    38    1
   136    38    39   ar
   137    43    44    1
   138    43    41   ar
   139    39    41   ar
