@<TRIPOS>MOLECULE
tmp/5wpxA00.pdb
 206 201 0 0 0
SMALL
GASTEIGER

@<TRIPOS>ATOM
      1  N          4.0940   -0.7560   -4.2610 N.3     7  ILE7       -0.1245
      2  CA         3.0510   -0.4340   -3.2510 C.3     7  ILE7        0.1561
      3  C          2.9140    1.0840   -3.1230 C.2     7  ILE7        0.2260
      4  O          1.8310    1.6290   -3.2020 O.2     7  ILE7       -0.2867
      5  CB         3.4580   -1.0360   -1.9070 C.3     7  ILE7        0.0252
      6  CG1        3.5720   -2.5560   -2.0550 C.3     7  ILE7        0.0019
      7  CG2        2.4010   -0.7010   -0.8520 C.3     7  ILE7        0.0019
      8  CD1        4.1420   -3.1590   -0.7710 C.3     7  ILE7        0.0001
      9  N          1.7220    2.2880   -6.4790 N.3    10  PHE10      -0.1227
     10  CA         0.3210    1.8260   -6.6700 C.3    10  PHE10       0.1736
     11  C         -0.6140    2.6020   -5.7430 C.2    10  PHE10       0.2595
     12  O         -1.6570    3.0770   -6.1470 O.2    10  PHE10      -0.2718
     13  CB         0.2490    0.3330   -6.3400 C.3    10  PHE10       0.0547
     14  CG        -1.1280   -0.1970   -6.6500 C.ar   10  PHE10      -0.0202
     15  CD1       -2.0920   -0.2750   -5.6390 C.ar   10  PHE10      -0.0042
     16  CD2       -1.4390   -0.6180   -7.9480 C.ar   10  PHE10      -0.0042
     17  CE1       -3.3670   -0.7740   -5.9250 C.ar   10  PHE10      -0.0003
     18  CE2       -2.7140   -1.1170   -8.2360 C.ar   10  PHE10      -0.0003
     19  CZ        -3.6780   -1.1950   -7.2230 C.ar   10  PHE10      -0.0000
     20  N         -0.2500    2.7250   -4.4990 N.am   11  VAL11      -0.1980
     21  CA        -1.1150    3.4590   -3.5310 C.3    11  VAL11       0.1595
     22  C         -1.1530    4.9490   -3.8830 C.2    11  VAL11       0.2287
     23  O         -2.2010    5.5620   -3.9210 O.2    11  VAL11      -0.2864
     24  CB        -0.5400    3.2890   -2.1250 C.3    11  VAL11       0.0276
     25  CG1       -1.3280    4.1530   -1.1410 C.3    11  VAL11       0.0022
     26  CG2       -0.6400    1.8190   -1.7100 C.3    11  VAL11       0.0022
     27  N         -4.1590    8.5070    5.8540 N.3    34  GLY34      -0.1225
     28  CA        -5.1380    7.5350    6.4160 C.3    34  GLY34       0.1811
     29  C         -6.3690    7.4750    5.5110 C.2    34  GLY34       0.2280
     30  O         -7.1860    6.5860    5.6140 O.2    34  GLY34      -0.2866
     31  N         -6.6930    6.4170    2.7640 N.3    36  ILE36      -0.1231
     32  CA        -6.7300    5.0710    2.1240 C.3    36  ILE36       0.1692
     33  C         -7.2300    4.0300    3.1290 C.2    36  ILE36       0.2592
     34  O         -7.7130    2.9790    2.7600 O.2    36  ILE36      -0.2718
     35  CB        -5.3190    4.6830    1.6860 C.3    36  ILE36       0.0266
     36  CG1       -5.3950    3.6150    0.5950 C.3    36  ILE36       0.0019
     37  CG2       -4.5610    4.1150    2.8850 C.3    36  ILE36       0.0020
     38  CD1       -4.0380    2.9230    0.4640 C.3    36  ILE36       0.0001
     39  N         -7.0920    4.3060    4.3950 N.am   37  ASP37      -0.1960
     40  CA        -7.5290    3.3240    5.4290 C.3    37  ASP37       0.1840
     41  C         -9.0050    2.9640    5.2410 C.2    37  ASP37       0.2622
     42  O         -9.4110    1.8530    5.5160 O.2    37  ASP37      -0.2715
     43  CB        -7.3340    3.9280    6.8210 C.3    37  ASP37       0.1450
     44  CG        -5.8470    4.1890    7.0630 C.2    37  ASP37       0.3671
     45  OD1       -5.5330    4.8700    8.0250 O.co2  37  ASP37      -0.2456
     46  OD2       -5.0470    3.7060    6.2790 O.co2  37  ASP37      -0.2456
     47  N         -9.8150    3.8940    4.8060 N.am   38  SER38      -0.1950
     48  CA       -11.2680    3.5920    4.6410 C.3    38  SER38       0.1924
     49  C        -11.6690    3.6050    3.1640 C.2    38  SER38       0.2314
     50  O        -12.0810    2.6030    2.6180 O.2    38  SER38      -0.2863
     51  CB       -12.0900    4.6410    5.3910 C.3    38  SER38       0.2116
     52  OG       -12.6350    4.0540    6.5810 O.3    38  SER38      -0.2180
     53  N         -8.9930    1.6190    1.2900 N.3    41  LEU41      -0.1245
     54  CA        -8.9910    0.2270    1.8200 C.3    41  LEU41       0.1561
     55  C        -10.1300   -0.5660    1.1860 C.2    41  LEU41       0.2260
     56  O         -9.9680   -1.7090    0.8100 O.2    41  LEU41      -0.2867
     57  CB        -9.1710    0.2540    3.3400 C.3    41  LEU41       0.0270
     58  CG        -9.2080   -1.1820    3.8740 C.3    41  LEU41       0.0019
     59  CD1       -8.4180   -1.2730    5.1820 C.3    41  LEU41       0.0001
     60  CD2      -10.6610   -1.5920    4.1330 C.3    41  LEU41       0.0001
     61  N         -9.1290   -1.0560   -2.4720 N.3    44  VAL44      -0.1231
     62  CA        -7.9690   -1.9900   -2.5640 C.3    44  VAL44       0.1692
     63  C         -8.4150   -3.4110   -2.2210 C.2    44  VAL44       0.2591
     64  O         -8.0350   -4.3650   -2.8710 O.2    44  VAL44      -0.2718
     65  CB        -6.8810   -1.5460   -1.5860 C.3    44  VAL44       0.0266
     66  CG1       -5.7420   -2.5660   -1.5900 C.3    44  VAL44       0.0020
     67  CG2       -6.3410   -0.1780   -2.0100 C.3    44  VAL44       0.0020
     68  N         -9.2100   -3.5620   -1.2000 N.am   45  ILE45      -0.1980
     69  CA        -9.6740   -4.9210   -0.8110 C.3    45  ILE45       0.1595
     70  C        -10.4390   -5.5540   -1.9750 C.2    45  ILE45       0.2287
     71  O        -10.1680   -6.6700   -2.3720 O.2    45  ILE45      -0.2864
     72  CB       -10.5850   -4.8000    0.4170 C.3    45  ILE45       0.0276
     73  CG1       -9.7850   -5.1150    1.6850 C.3    45  ILE45       0.0022
     74  CG2      -11.7570   -5.7780    0.3030 C.3    45  ILE45       0.0022
     75  CD1       -8.4610   -4.3470    1.6780 C.3    45  ILE45       0.0001
     76  N        -10.3570   -4.6460   -5.0860 N.3    47  TRP47      -0.1227
     77  CA        -9.4270   -4.7430   -6.2440 C.3    47  TRP47       0.1737
     78  C         -8.4460   -5.8930   -6.0250 C.2    47  TRP47       0.2595
     79  O         -8.1270   -6.6330   -6.9330 O.2    47  TRP47      -0.2718
     80  CB        -8.6470   -3.4360   -6.3820 C.3    47  TRP47       0.0564
     81  CG        -7.4750   -3.6510   -7.2830 C.ar   47  TRP47       0.0003
     82  CD1       -7.5420   -3.8210   -8.6230 C.ar   47  TRP47       0.0946
     83  CD2       -6.0630   -3.7260   -6.9310 C.ar   47  TRP47       0.0152
     84  NE1       -6.2610   -3.9960   -9.1160 N.ar   47  TRP47      -0.2442
     85  CE2       -5.3150   -3.9450   -8.1110 C.ar   47  TRP47       0.0810
     86  CE3       -5.3660   -3.6250   -5.7130 C.ar   47  TRP47       0.0012
     87  CZ2       -3.9240   -4.0600   -8.0830 C.ar   47  TRP47       0.0191
     88  CZ3       -3.9680   -3.7410   -5.6820 C.ar   47  TRP47       0.0001
     89  CH2       -3.2480   -3.9580   -6.8650 C.ar   47  TRP47       0.0015
     90  N         -7.9540   -6.0370   -4.8270 N.am   48  LEU48      -0.1980
     91  CA        -6.9820   -7.1270   -4.5530 C.3    48  LEU48       0.1596
     92  C         -7.6030   -8.4740   -4.9220 C.2    48  LEU48       0.2287
     93  O         -6.9970   -9.2840   -5.5970 O.2    48  LEU48      -0.2864
     94  CB        -6.6320   -7.1130   -3.0640 C.3    48  LEU48       0.0297
     95  CG        -5.4920   -8.0840   -2.7900 C.3    48  LEU48       0.0022
     96  CD1       -4.1670   -7.4300   -3.1760 C.3    48  LEU48       0.0001
     97  CD2       -5.4750   -8.4330   -1.3010 C.3    48  LEU48       0.0001
     98  N         -5.7060  -10.1270   -7.8930 N.3    52  PHE52      -0.1241
     99  CA        -4.9110  -11.2640   -7.3410 C.3    52  PHE52       0.1605
    100  C         -5.8040  -12.4530   -6.9670 C.2    52  PHE52       0.2264
    101  O         -5.3490  -13.5790   -6.9210 O.2    52  PHE52      -0.2867
    102  CB        -4.1620  -10.7850   -6.0980 C.3    52  PHE52       0.0534
    103  CG        -3.1060   -9.7830   -6.5020 C.ar   52  PHE52      -0.0203
    104  CD1       -1.8450  -10.2250   -6.9190 C.ar   52  PHE52      -0.0042
    105  CD2       -3.3890   -8.4130   -6.4600 C.ar   52  PHE52      -0.0042
    106  CE1       -0.8660   -9.2970   -7.2920 C.ar   52  PHE52      -0.0003
    107  CE2       -2.4110   -7.4850   -6.8340 C.ar   52  PHE52      -0.0003
    108  CZ        -1.1490   -7.9270   -7.2500 C.ar   52  PHE52      -0.0000
    109  N        -10.5740  -10.8770    0.8980 N.3    56  ALA56      -0.1231
    110  CA       -10.4140   -9.5110    1.4680 C.3    56  ALA56       0.1694
    111  C         -9.7350   -9.6020    2.8370 C.2    56  ALA56       0.2592
    112  O         -8.9780   -8.7340    3.2240 O.2    56  ALA56      -0.2718
    113  CB       -11.7910   -8.8650    1.6290 C.3    56  ALA56       0.0304
    114  N        -10.0010  -10.6460    3.5710 N.am   57  ASP57      -0.1960
    115  CA        -9.3740  -10.7960    4.9160 C.3    57  ASP57       0.1840
    116  C         -9.6520   -9.5460    5.7520 C.2    57  ASP57       0.2622
    117  O         -8.7780   -9.0230    6.4160 O.2    57  ASP57      -0.2715
    118  CB        -7.8650  -10.9820    4.7590 C.3    57  ASP57       0.1450
    119  CG        -7.5840  -12.3000    4.0360 C.2    57  ASP57       0.3671
    120  OD1       -6.4610  -12.4850    3.5980 O.co2  57  ASP57      -0.2456
    121  OD2       -8.4970  -13.1020    3.9330 O.co2  57  ASP57      -0.2456
    122  N        -10.8630   -9.0620    5.7270 N.am   58  ASP58      -0.1971
    123  CA       -11.1990   -7.8450    6.5190 C.3    58  ASP58       0.1709
    124  C        -11.7890   -8.2570    7.8700 C.2    58  ASP58       0.2293
    125  O        -12.3420   -7.4470    8.5880 O.2    58  ASP58      -0.2864
    126  CB       -12.2160   -6.9990    5.7490 C.3    58  ASP58       0.1436
    127  CG       -13.5240   -7.7800    5.5880 C.2    58  ASP58       0.3671
    128  OD1      -13.6720   -8.7950    6.2470 O.co2  58  ASP58      -0.2456
    129  OD2      -14.3550   -7.3470    4.8060 O.co2  58  ASP58      -0.2456
    130  N        -10.3370   -8.9530   10.6210 N.3    60  GLU60      -0.1231
    131  CA        -9.6670   -8.1750   11.7050 C.3    60  GLU60       0.1699
    132  C         -9.0880   -6.8850   11.1250 C.2    60  GLU60       0.2592
    133  O         -8.4680   -6.8880   10.0800 O.2    60  GLU60      -0.2718
    134  CB        -8.5380   -9.0100   12.3110 C.3    60  GLU60       0.0402
    135  CG        -7.9180   -8.2500   13.4770 C.3    60  GLU60       0.1161
    136  CD        -6.7440   -9.0480   14.0460 C.2    60  GLU60       0.3649
    137  OE1       -6.1530   -8.5900   15.0110 O.co2  60  GLU60      -0.2457
    138  OE2       -6.4540  -10.1030   13.5070 O.co2  60  GLU60      -0.2457
    139  N         -9.2840   -5.7810   11.7970 N.am   61  LEU61      -0.1966
    140  CA        -8.7460   -4.4900   11.2870 C.3    61  LEU61       0.1728
    141  C         -7.5690   -4.0500   12.1640 C.2    61  LEU61       0.2617
    142  O         -7.5990   -4.1920   13.3700 O.2    61  LEU61      -0.2715
    143  CB        -9.8450   -3.4270   11.3380 C.3    61  LEU61       0.0311
    144  CG       -11.1260   -3.9830   10.7190 C.3    61  LEU61       0.0022
    145  CD1      -12.1700   -2.8710   10.6170 C.3    61  LEU61       0.0001
    146  CD2      -10.8280   -4.5340    9.3230 C.3    61  LEU61       0.0001
    147  N         -6.5340   -3.5190   11.5670 N.am   62  SER62      -0.1936
    148  CA        -5.3550   -3.0740   12.3630 C.3    62  SER62       0.2040
    149  C         -4.9650   -1.6490   11.9560 C.2    62  SER62       0.2485
    150  O         -4.0910   -1.4510   11.1350 O.2    62  SER62      -0.2729
    151  CB        -4.1830   -4.0150   12.0980 C.3    62  SER62       0.2129
    152  OG        -4.0610   -4.9300   13.1790 O.3    62  SER62      -0.2179
    153  N         -5.6060   -0.6640   12.5270 N.am   63  PRO63      -0.2726
    154  CA        -5.3190    0.7680   12.2170 C.3    63  PRO63       0.1402
    155  C         -3.8350    1.1070   12.3970 C.2    63  PRO63       0.2269
    156  O         -3.3050    1.9870   11.7480 O.2    63  PRO63      -0.2865
    157  CB        -6.1680    1.5470   13.2230 C.3    63  PRO63       0.0296
    158  CG        -7.2370    0.6040   13.6720 C.3    63  PRO63       0.0237
    159  CD        -6.6740   -0.8070   13.5260 C.3    63  PRO63       0.0939
    160  N         -1.5290   -0.5140   11.4000 N.3    65  HIS65      -0.1226
    161  CA        -0.8270   -0.9840   10.1720 C.3    65  HIS65       0.1752
    162  C         -0.5450    0.1990    9.2400 C.2    65  HIS65       0.2596
    163  O          0.3680    0.1610    8.4390 O.2    65  HIS65      -0.2718
    164  CB        -1.7210   -1.9990    9.4540 C.3    65  HIS65       0.0759
    165  CG        -0.9230   -2.7450    8.4210 C.ar   65  HIS65       0.0818
    166  ND1       -1.4510   -3.0800    7.1820 N.ar   65  HIS65      -0.2268
    167  CD2        0.3580   -3.2410    8.4300 C.ar   65  HIS65       0.1154
    168  CE1       -0.5010   -3.7490    6.5030 C.ar   65  HIS65       0.1986
    169  NE2        0.6170   -3.8730    7.2200 N.ar   65  HIS65      -0.2212
    170  N         -1.3200    1.2450    9.3270 N.am   66  PHE66      -0.1976
    171  CA        -1.0900    2.4190    8.4330 C.3    66  PHE66       0.1639
    172  C         -0.0820    3.3750    9.0740 C.2    66  PHE66       0.2290
    173  O          0.1980    4.4340    8.5490 O.2    66  PHE66      -0.2864
    174  CB        -2.4060    3.1670    8.2190 C.3    66  PHE66       0.0560
    175  CG        -3.4600    2.2130    7.7190 C.ar   66  PHE66      -0.0200
    176  CD1       -3.4160    1.7450    6.4010 C.ar   66  PHE66      -0.0042
    177  CD2       -4.4860    1.8030    8.5750 C.ar   66  PHE66      -0.0042
    178  CE1       -4.4010    0.8650    5.9400 C.ar   66  PHE66      -0.0003
    179  CE2       -5.4690    0.9230    8.1150 C.ar   66  PHE66      -0.0003
    180  CZ        -5.4280    0.4540    6.7990 C.ar   66  PHE66      -0.0000
    181  N          3.2060   -1.7390    5.8940 N.3    72  ILE72      -0.1245
    182  CA         2.3320   -2.3110    4.8410 C.3    72  ILE72       0.1561
    183  C          3.1700   -3.1790    3.9000 C.2    72  ILE72       0.2260
    184  O          2.7340   -4.2150    3.4390 O.2    72  ILE72      -0.2867
    185  CB         1.6870   -1.1710    4.0560 C.3    72  ILE72       0.0252
    186  CG1        0.8550   -0.3070    5.0080 C.3    72  ILE72       0.0019
    187  CG2        0.7830   -1.7510    2.9750 C.3    72  ILE72       0.0019
    188  CD1        0.2890    0.8920    4.2450 C.3    72  ILE72       0.0001
    189  N          3.3380   -6.6660    5.0840 N.3    75  PHE75      -0.1227
    190  CA         2.0650   -7.4230    4.9210 C.3    75  PHE75       0.1736
    191  C          1.9750   -7.9830    3.5000 C.2    75  PHE75       0.2595
    192  O          1.6660   -9.1400    3.2960 O.2    75  PHE75      -0.2718
    193  CB         0.8830   -6.4900    5.1760 C.3    75  PHE75       0.0547
    194  CG        -0.4010   -7.2840    5.1430 C.ar   75  PHE75      -0.0202
    195  CD1       -0.8500   -7.9390    6.2950 C.ar   75  PHE75      -0.0042
    196  CD2       -1.1430   -7.3650    3.9580 C.ar   75  PHE75      -0.0042
    197  CE1       -2.0400   -8.6740    6.2650 C.ar   75  PHE75      -0.0003
    198  CE2       -2.3340   -8.1020    3.9270 C.ar   75  PHE75      -0.0003
    199  CZ        -2.7820   -8.7560    5.0800 C.ar   75  PHE75      -0.0000
    200  N          2.2410   -7.1710    2.5130 N.am   76  VAL76      -0.1980
    201  CA         2.1710   -7.6500    1.1100 C.3    76  VAL76       0.1595
    202  C          3.2490   -8.7080    0.8700 C.2    76  VAL76       0.2287
    203  O          3.0210   -9.7040    0.2120 O.2    76  VAL76      -0.2864
    204  CB         2.3930   -6.4670    0.1710 C.3    76  VAL76       0.0276
    205  CG1        2.5540   -6.9790   -1.2550 C.3    76  VAL76       0.0022
    206  CG2        1.1890   -5.5250    0.2430 C.3    76  VAL76       0.0022
@<TRIPOS>BOND
     1    84    82   ar
     2    84    85   ar
     3    82    81   ar
     4    18    16   ar
     5    18    19   ar
     6    85    87   ar
     7    85    83   ar
     8    87    89   ar
     9    16    14   ar
    10    98    99    1
    11    99   100    1
    12    99   102    1
    13   106   108   ar
    14   106   104   ar
    15    81    83   ar
    16    81    80    1
    17   108   107   ar
    18    19    17   ar
    19   100   101    2
    20    79    78    2
    21    83    86   ar
    22   104   103   ar
    23    89    88   ar
    24   107   105   ar
    25    10     9    1
    26    10    13    1
    27    10    11    1
    28    14    13    1
    29    14    15   ar
    30   103   105   ar
    31   103   102    1
    32    80    77    1
    33    77    78    1
    34    77    76    1
    35    12    11    2
    36    78    90   am
    37    17    15   ar
    38    11    20   am
    39    86    88   ar
    40    93    92    2
    41    92    91    1
    42    90    91    1
    43    91    94    1
    44    20    21    1
    45     1     2    1
    46    23    22    2
    47    22    21    1
    48    21    24    1
    49     2     3    1
    50     2     5    1
    51     4     3    2
    52    96    95    1
    53    94    95    1
    54    64    63    2
    55    95    97    1
    56    62    61    1
    57    62    63    1
    58    62    65    1
    59    71    70    2
    60    63    68   am
    61    24    26    1
    62    24    25    1
    63     6     5    1
    64     6     8    1
    65    67    65    1
    66    70    69    1
    67     5     7    1
    68    66    65    1
    69   205   204    1
    70    68    69    1
    71    69    72    1
    72   204   206    1
    73   204   201    1
    74   203   202    2
    75    74    72    1
    76    72    73    1
    77    38    36    1
    78    36    35    1
    79    56    55    2
    80   202   201    1
    81   109   110    1
    82   201   200    1
    83    55    54    1
    84    53    54    1
    85   110   113    1
    86   110   111    1
    87    75    73    1
    88    35    32    1
    89    35    37    1
    90    54    57    1
    91    32    31    1
    92    32    33    1
    93   200   191   am
    94    50    49    2
    95    34    33    2
    96   111   112    2
    97   111   114   am
    98   187   185    1
    99    33    39   am
   100    49    48    1
   101   192   191    2
   102    57    58    1
   103   184   183    2
   104   191   190    1
   105   114   115    1
   106   120   119   ar
   107    58    60    1
   108    58    59    1
   109   183   182    1
   110   198   196   ar
   111   198   199   ar
   112   121   119   ar
   113   196   194   ar
   114   119   118    1
   115   185   182    1
   116   185   186    1
   117   188   186    1
   118    39    40    1
   119    48    47    1
   120    48    51    1
   121   118   115    1
   122    47    41   am
   123   129   127   ar
   124   182   181    1
   125   115   116    1
   126   190   189    1
   127   190   193    1
   128   199   197   ar
   129   194   193    1
   130   194   195   ar
   131    41    40    1
   132    41    42    2
   133    51    52    1
   134    40    43    1
   135    29    30    2
   136    29    28    1
   137   127   126    1
   138   127   128   ar
   139   122   116   am
   140   122   123    1
   141   126   123    1
   142   116   117    2
   143    27    28    1
   144   178   176   ar
   145   178   180   ar
   146   197   195   ar
   147    46    44   ar
   148   176   175   ar
   149   168   166   ar
   150   168   169   ar
   151   123   124    1
   152   180   179   ar
   153    43    44    1
   154    44    45   ar
   155   166   165   ar
   156   169   167   ar
   157   175   174    1
   158   175   177   ar
   159   124   125    2
   160   179   177   ar
   161   174   171    1
   162   165   167   ar
   163   165   164    1
   164   171   172    1
   165   171   170    1
   166   163   162    2
   167   173   172    2
   168   162   170   am
   169   162   161    1
   170   146   144    1
   171   164   161    1
   172   133   132    2
   173   161   160    1
   174   145   144    1
   175   130   131    1
   176   144   143    1
   177   132   131    1
   178   132   139   am
   179   150   149    2
   180   140   143    1
   181   140   139    1
   182   140   141    1
   183   147   141   am
   184   147   148    1
   185   131   134    1
   186   156   155    2
   187   149   148    1
   188   149   153   am
   189   151   148    1
   190   151   152    1
   191   141   142    2
   192   154   155    1
   193   154   153    1
   194   154   157    1
   195   134   135    1
   196   153   159    1
   197   157   158    1
   198   135   136    1
   199   138   136   ar
   200   159   158    1
   201   136   137   ar
