@<TRIPOS>MOLECULE
tmp/5wqaA00.pdb
 169 162 0 0 0
SMALL
GASTEIGER

@<TRIPOS>ATOM
      1  N        -26.2700   -6.8500   22.5300 N.3    81  TYR81      -0.1227
      2  CA       -25.0480   -6.0650   22.7060 C.3    81  TYR81       0.1736
      3  C        -24.1110   -6.6340   23.7690 C.2    81  TYR81       0.2595
      4  O        -22.9480   -6.9190   23.4810 O.2    81  TYR81      -0.2718
      5  CB       -25.3870   -4.6000   23.0230 C.3    81  TYR81       0.0548
      6  CG       -24.1560   -3.7400   23.1600 C.ar   81  TYR81      -0.0200
      7  CD1      -23.4800   -3.6430   24.3810 C.ar   81  TYR81      -0.0009
      8  CD2      -23.6390   -3.0580   22.0610 C.ar   81  TYR81      -0.0009
      9  CE1      -22.3400   -2.8760   24.5040 C.ar   81  TYR81       0.0417
     10  CE2      -22.5090   -2.2810   22.1770 C.ar   81  TYR81       0.0417
     11  CZ       -21.8630   -2.1910   23.4000 C.ar   81  TYR81       0.1957
     12  OH       -20.7390   -1.4220   23.5190 O.3    81  TYR81      -0.2866
     13  N        -24.6100   -6.7900   24.9930 N.am   82  HIS82      -0.1975
     14  CA       -23.7810   -7.2690   26.1050 C.3    82  HIS82       0.1656
     15  C        -23.5220   -8.7640   26.0710 C.2    82  HIS82       0.2291
     16  O        -23.8950   -9.4910   26.9750 O.2    82  HIS82      -0.2864
     17  CB       -24.3860   -6.8530   27.4450 C.3    82  HIS82       0.0771
     18  CG       -24.3260   -5.3820   27.6900 C.ar   82  HIS82       0.0820
     19  ND1      -25.4180   -4.5580   27.5510 N.ar   82  HIS82      -0.2267
     20  CD2      -23.2910   -4.5790   28.0410 C.ar   82  HIS82       0.1154
     21  CE1      -25.0660   -3.3150   27.8280 C.ar   82  HIS82       0.1986
     22  NE2      -23.7770   -3.3000   28.1170 N.ar   82  HIS82      -0.2212
     23  N        -18.4930   -8.0460   31.5800 N.3   123  ASP123     -0.1239
     24  CA       -19.9600   -8.0570   31.4160 C.3   123  ASP123      0.1674
     25  C        -20.5420   -9.4780   31.4350 C.2   123  ASP123      0.2266
     26  O        -21.6320   -9.6990   30.9380 O.2   123  ASP123     -0.2867
     27  CB       -20.3630   -7.3740   30.0860 C.3   123  ASP123      0.1410
     28  CG       -20.5180   -5.8620   30.2060 C.2   123  ASP123      0.3668
     29  OD1      -20.8570   -5.3810   31.3140 O.co2 123  ASP123     -0.2456
     30  OD2      -20.3150   -5.1600   29.1860 O.co2 123  ASP123     -0.2456
     31  N        -24.4380  -10.9480   31.6400 N.3   126  HIS126     -0.1241
     32  CA       -25.2970   -9.7640   31.5450 C.3   126  HIS126      0.1621
     33  C        -26.6400  -10.2400   30.9780 C.2   126  HIS126      0.2264
     34  O        -26.6460  -10.9010   29.9310 O.2   126  HIS126     -0.2867
     35  CB       -24.6700   -8.7230   30.6020 C.3   126  HIS126      0.0745
     36  CG       -25.1390   -7.3210   30.8360 C.ar  126  HIS126      0.0817
     37  ND1      -26.4310   -6.9170   30.5970 N.ar  126  HIS126     -0.2268
     38  CD2      -24.4780   -6.2200   31.2690 C.ar  126  HIS126      0.1154
     39  CE1      -26.5560   -5.6350   30.8850 C.ar  126  HIS126      0.1986
     40  NE2      -25.3850   -5.1880   31.2990 N.ar  126  HIS126     -0.2212
     41  N        -30.5160   -3.0090   32.3960 N.3   130  SER130     -0.1217
     42  CA       -29.6720   -2.1470   33.2240 C.3   130  SER130      0.1889
     43  C        -29.7800   -2.3960   34.7300 C.2   130  SER130      0.2288
     44  O        -30.7170   -3.0490   35.2130 O.2   130  SER130     -0.2866
     45  CB       -30.0390   -0.6890   32.9720 C.3   130  SER130      0.2089
     46  OG       -31.3680   -0.4290   33.4000 O.3   130  SER130     -0.2183
     47  N        -21.4320    2.4220   35.0120 N.3   195  MET195     -0.1245
     48  CA       -21.6780    3.7000   34.3360 C.3   195  MET195      0.1570
     49  C        -22.0600    4.8480   35.2670 C.2   195  MET195      0.2261
     50  O        -21.8120    6.0090   34.9420 O.2   195  MET195     -0.2867
     51  CB       -22.7680    3.5370   33.2750 C.3   195  MET195      0.0387
     52  CG       -22.4240    2.5710   32.1370 C.3   195  MET195      0.0595
     53  SD       -20.8990    2.8850   31.2110 S.3   195  MET195     -0.1393
     54  CE       -20.9280    4.6430   31.0260 C.3   195  MET195      0.0692
     55  N        -18.9040    7.0020   36.0160 N.3   198  HIS198     -0.1241
     56  CA       -18.1950    7.6550   34.9170 C.3   198  HIS198      0.1621
     57  C        -17.7330    9.0730   35.2550 C.2   198  HIS198      0.2264
     58  O        -16.5830    9.4210   35.0210 O.2   198  HIS198     -0.2867
     59  CB       -19.0790    7.6910   33.6670 C.3   198  HIS198      0.0745
     60  CG       -18.6630    8.7250   32.6680 C.ar  198  HIS198      0.0817
     61  ND1      -17.7070    8.4960   31.7020 N.ar  198  HIS198     -0.2268
     62  CD2      -19.0730   10.0000   32.4900 C.ar  198  HIS198      0.1154
     63  CE1      -17.5440    9.5820   30.9730 C.ar  198  HIS198      0.1986
     64  NE2      -18.3580   10.5120   31.4340 N.ar  198  HIS198     -0.2212
     65  N        -14.4220   -0.1130   26.9440 N.3   240  ASP240     -0.1225
     66  CA       -15.8520   -0.4000   27.0730 C.3   240  ASP240      0.1805
     67  C        -16.6510    0.6180   26.2490 C.2   240  ASP240      0.2597
     68  O        -17.5980    0.2580   25.5540 O.2   240  ASP240     -0.2718
     69  CB       -16.2330   -0.3520   28.5570 C.3   240  ASP240      0.1424
     70  CG       -17.5230   -1.1160   28.8940 C.2   240  ASP240      0.3668
     71  OD1      -17.9400   -2.0860   28.1990 O.co2 240  ASP240     -0.2456
     72  OD2      -18.1040   -0.7330   29.9290 O.co2 240  ASP240     -0.2456
     73  N        -16.2200    1.8790   26.2850 N.am  241  LEU241     -0.1979
     74  CA       -16.8510    2.9510   25.5140 C.3   241  LEU241      0.1596
     75  C        -16.0670    3.3010   24.2640 C.2   241  LEU241      0.2287
     76  O        -15.9200    4.4880   23.9340 O.2   241  LEU241     -0.2864
     77  CB       -17.0200    4.1990   26.3910 C.3   241  LEU241      0.0297
     78  CG       -17.9640    4.0100   27.5800 C.3   241  LEU241      0.0022
     79  CD1      -18.0810    5.2780   28.4140 C.3   241  LEU241      0.0001
     80  CD2      -19.3380    3.5810   27.0950 C.3   241  LEU241      0.0001
     81  N        -27.1080   -2.2990   20.3380 N.3   258  ILE258     -0.1245
     82  CA       -27.4510   -1.7210   21.6360 C.3   258  ILE258      0.1561
     83  C        -28.8730   -1.1650   21.6290 C.2   258  ILE258      0.2260
     84  O        -29.5790   -1.2380   22.6350 O.2   258  ILE258     -0.2867
     85  CB       -26.4390   -0.6500   22.1070 C.3   258  ILE258      0.0252
     86  CG1      -26.4270   -0.5850   23.6330 C.3   258  ILE258      0.0019
     87  CG2      -26.7380    0.7330   21.5200 C.3   258  ILE258      0.0019
     88  CD1      -25.2070    0.1080   24.1960 C.3   258  ILE258      0.0001
     89  N        -31.7910   -2.1860   24.1830 N.3   262  PHE262     -0.1241
     90  CA       -32.5240   -1.1270   24.8660 C.3   262  PHE262      0.1605
     91  C        -34.0210   -1.2220   24.6190 C.2   262  PHE262      0.2264
     92  O        -34.8060   -1.2110   25.5690 O.2   262  PHE262     -0.2867
     93  CB       -32.0290    0.2580   24.4370 C.3   262  PHE262      0.0534
     94  CG       -30.6660    0.6270   24.9740 C.ar  262  PHE262     -0.0203
     95  CD1      -30.1040   -0.0300   26.0710 C.ar  262  PHE262     -0.0042
     96  CD2      -29.9620    1.6730   24.4030 C.ar  262  PHE262     -0.0042
     97  CE1      -28.8600    0.3380   26.5560 C.ar  262  PHE262     -0.0003
     98  CE2      -28.7200    2.0460   24.8920 C.ar  262  PHE262     -0.0003
     99  CZ       -28.1690    1.3800   25.9690 C.ar  262  PHE262     -0.0000
    100  N        -35.6540   -3.9410   26.5400 N.3   265  GLN265     -0.1245
    101  CA       -35.8990   -3.5770   27.9450 C.3   265  GLN265      0.1566
    102  C        -37.1490   -2.7050   28.0870 C.2   265  GLN265      0.2260
    103  O        -37.9200   -2.8760   29.0240 O.2   265  GLN265     -0.2867
    104  CB       -34.7000   -2.8460   28.5570 C.3   265  GLN265      0.0367
    105  CG       -34.9620   -2.2820   29.9520 C.3   265  GLN265      0.0905
    106  CD       -33.7330   -1.6500   30.5930 C.2   265  GLN265      0.2608
    107  OE1      -32.6110   -2.1190   30.4180 O.2   265  GLN265     -0.2717
    108  NE2      -33.9460   -0.5810   31.3390 N.am  265  GLN265     -0.0878
    109  N        -37.4570    3.6790   30.4030 N.3   277  SER277     -0.1203
    110  CA       -36.1920    4.3370   30.7090 C.3   277  SER277      0.2005
    111  C        -35.6860    5.0690   29.4850 C.2   277  SER277      0.2461
    112  O        -36.0400    4.7010   28.3680 O.2   277  SER277     -0.2732
    113  CB       -35.1450    3.3130   31.1440 C.3   277  SER277      0.2103
    114  OG       -35.6720    2.4580   32.1330 O.3   277  SER277     -0.2182
    115  N        -34.8480    6.1020   29.6850 N.am  278  PRO278     -0.2717
    116  CA       -34.2020    6.7400   28.5490 C.3   278  PRO278      0.1535
    117  C        -33.6110    5.7050   27.5860 C.2   278  PRO278      0.2598
    118  O        -33.1150    4.6560   28.0260 O.2   278  PRO278     -0.2715
    119  CB       -33.0890    7.5720   29.1990 C.3   278  PRO278      0.0310
    120  CG       -33.6090    7.9000   30.5560 C.3   278  PRO278      0.0237
    121  CD       -34.4750    6.7370   30.9650 C.3   278  PRO278      0.0939
    122  N        -33.7110    6.0010   26.2900 N.am  279  MET279     -0.1964
    123  CA       -33.1780    5.1700   25.2030 C.3   279  MET279      0.1736
    124  C        -33.9500    3.8830   24.9110 C.2   279  MET279      0.2616
    125  O        -33.6370    3.1960   23.9470 O.2   279  MET279     -0.2715
    126  CB       -31.6870    4.8400   25.4360 C.3   279  MET279      0.0427
    127  CG       -30.7670    6.0490   25.4290 C.3   279  MET279      0.0599
    128  SD       -30.8830    6.9940   23.9020 S.3   279  MET279     -0.1393
    129  CE       -30.4170    5.7570   22.6950 C.3   279  MET279      0.0692
    130  N        -34.9700    3.5610   25.6970 N.am  280  CYS280     -0.1968
    131  CA       -35.5900    2.2350   25.6000 C.3   280  CYS280      0.1712
    132  C        -36.9750    2.2240   24.9460 C.2   280  CYS280      0.2296
    133  O        -37.5910    1.1600   24.8290 O.2   280  CYS280     -0.2864
    134  CB       -35.6490    1.5900   26.9850 C.3   280  CYS280      0.0983
    135  SG       -34.0160    1.3800   27.7400 S.3   280  CYS280     -0.0798
    136  N        -29.3610   10.7760   19.5540 N.3   290  SER290     -0.1202
    137  CA       -28.8630   10.1550   20.7570 C.3   290  SER290      0.2020
    138  C        -27.3640    9.8310   20.6630 C.2   290  SER290      0.2618
    139  O        -26.6190   10.1570   21.5800 O.2   290  SER290     -0.2717
    140  CB       -29.6910    8.9160   21.0770 C.3   290  SER290      0.2103
    141  OG       -31.0020    9.3130   21.4190 O.3   290  SER290     -0.2182
    142  N        -26.9180    9.2280   19.5620 N.am  291  GLN291     -0.1979
    143  CA       -25.4850    8.9510   19.3870 C.3   291  GLN291      0.1601
    144  C        -24.6660   10.2340   19.4270 C.2   291  GLN291      0.2287
    145  O        -23.6030   10.2710   20.0610 O.2   291  GLN291     -0.2864
    146  CB       -25.1910    8.1940   18.0910 C.3   291  GLN291      0.0394
    147  CG       -25.5580    6.7260   18.1290 C.3   291  GLN291      0.0908
    148  CD       -24.9380    5.9990   19.3080 C.2   291  GLN291      0.2608
    149  OE1      -23.7210    6.0050   19.4800 O.2   291  GLN291     -0.2717
    150  NE2      -25.7710    5.3730   20.1240 N.am  291  GLN291     -0.0878
    151  N        -24.5760   11.2270   23.0670 N.3   294  PHE294     -0.1241
    152  CA       -23.6810   10.3420   23.8150 C.3   294  PHE294      0.1605
    153  C        -22.2110   10.6750   23.5400 C.2   294  PHE294      0.2264
    154  O        -21.3850   10.7000   24.4620 O.2   294  PHE294     -0.2867
    155  CB       -23.9660    8.8780   23.4530 C.3   294  PHE294      0.0534
    156  CG       -23.3990    7.8800   24.4290 C.ar  294  PHE294     -0.0203
    157  CD1      -23.7900    7.8940   25.7680 C.ar  294  PHE294     -0.0042
    158  CD2      -22.4930    6.9160   24.0090 C.ar  294  PHE294     -0.0042
    159  CE1      -23.2690    6.9740   26.6740 C.ar  294  PHE294     -0.0003
    160  CE2      -21.9770    5.9860   24.9030 C.ar  294  PHE294     -0.0003
    161  CZ       -22.3650    6.0170   26.2390 C.ar  294  PHE294     -0.0000
    162  N        -20.3800   12.4110   26.7980 N.3   298  ILE298     -0.1245
    163  CA       -19.8130   11.2570   27.4930 C.3   298  ILE298      0.1561
    164  C        -18.5310   10.7690   26.8220 C.2   298  ILE298      0.2260
    165  O        -17.4340   10.9160   27.3840 O.2   298  ILE298     -0.2867
    166  CB       -20.8370   10.1070   27.5650 C.3   298  ILE298      0.0252
    167  CG1      -22.1400   10.5610   28.2470 C.3   298  ILE298      0.0019
    168  CG2      -20.2390    8.8810   28.2400 C.3   298  ILE298      0.0019
    169  CD1      -22.0190   10.9970   29.6920 C.3   298  ILE298      0.0001
@<TRIPOS>BOND
     1   146   147    1
     2   146   143    1
     3   147   148    1
     4   148   149    2
     5   148   150   am
     6   143   144    1
     7   143   142    1
     8   144   145    2
     9   136   137    1
    10   142   138   am
    11    81    82    1
    12   138   137    1
    13   138   139    2
    14   137   140    1
    15   140   141    1
    16    87    85    1
    17    83    82    1
    18    83    84    2
    19    82    85    1
    20     8    10   ar
    21     8     6   ar
    22    85    86    1
    23    10    11   ar
    24     1     2    1
    25   129   128    1
    26     2     5    1
    27     2     3    1
    28     5     6    1
    29   151   152    1
    30     6     7   ar
    31    11    12    1
    32    11     9   ar
    33   155   152    1
    34   155   156    1
    35     4     3    2
    36   153   152    1
    37   153   154    2
    38    86    88    1
    39     3    13   am
    40   128   127    1
    41    76    75    2
    42   125   124    2
    43   158   156   ar
    44   158   160   ar
    45    89    90    1
    46    75    74    1
    47     7     9   ar
    48    96    98   ar
    49    96    94   ar
    50   156   157   ar
    51    93    90    1
    52    93    94    1
    53    91    90    1
    54    91    92    2
    55   133   132    2
    56    98    99   ar
    57   160   161   ar
    58   124   123    1
    59   124   130   am
    60   132   131    1
    61    94    95   ar
    62    13    14    1
    63   123   126    1
    64   123   122    1
    65   127   126    1
    66    74    73    1
    67    74    77    1
    68    68    67    2
    69   131   130    1
    70   131   134    1
    71   157   159   ar
    72    99    97   ar
    73    15    14    1
    74    15    16    2
    75    95    97   ar
    76    14    17    1
    77   161   159   ar
    78    67    73   am
    79    67    66    1
    80   122   117   am
    81    77    78    1
    82   100   101    1
    83   162   163    1
    84   164   165    2
    85   164   163    1
    86    65    66    1
    87   134   135    1
    88    66    69    1
    89    80    78    1
    90    17    18    1
    91   163   166    1
    92    19    18   ar
    93    19    21   ar
    94   166   168    1
    95   166   167    1
    96    78    79    1
    97   117   118    2
    98   117   116    1
    99    18    20   ar
   100    21    22   ar
   101   101   102    1
   102   101   104    1
   103    20    22   ar
   104   102   103    2
   105    71    70   ar
   106   167   169    1
   107   112   111    2
   108   116   119    1
   109   116   115    1
   110   104   105    1
   111    69    70    1
   112    70    72   ar
   113    30    28   ar
   114   119   120    1
   115   111   115   am
   116   111   110    1
   117   115   121    1
   118    34    33    2
   119   105   106    1
   120    27    28    1
   121    27    24    1
   122    28    29   ar
   123   109   110    1
   124   107   106    2
   125   120   121    1
   126   106   108   am
   127    37    36   ar
   128    37    39   ar
   129    35    36    1
   130    35    32    1
   131   110   113    1
   132    36    38   ar
   133    39    40   ar
   134    26    25    2
   135    63    64   ar
   136    63    61   ar
   137    33    32    1
   138    54    53    1
   139   113   114    1
   140    53    52    1
   141    38    40   ar
   142    24    25    1
   143    24    23    1
   144    64    62   ar
   145    32    31    1
   146    61    60   ar
   147    52    51    1
   148    41    42    1
   149    62    60   ar
   150    60    59    1
   151    45    42    1
   152    45    46    1
   153    42    43    1
   154    51    48    1
   155    59    56    1
   156    48    47    1
   157    48    49    1
   158    43    44    2
   159    56    57    1
   160    56    55    1
   161    50    49    2
   162    58    57    2
