@<TRIPOS>MOLECULE
tmp/5wqcA05.pdb
 101 97 0 0 0
SMALL
GASTEIGER

@<TRIPOS>ATOM
      1  N         51.1420   54.0850  -44.2940 N.3    28  VAL28      -0.1231
      2  CA        51.9780   54.5910  -43.2020 C.3    28  VAL28       0.1692
      3  C         51.3900   54.2180  -41.8430 C.2    28  VAL28       0.2591
      4  O         52.1120   53.7640  -40.9380 O.2    28  VAL28      -0.2718
      5  CB        52.1580   56.1110  -43.3370 C.3    28  VAL28       0.0266
      6  CG1       52.8080   56.6860  -42.0580 C.3    28  VAL28       0.0020
      7  CG2       53.0310   56.4070  -44.5500 C.3    28  VAL28       0.0020
      8  N         50.0770   54.3990  -41.6760 N.am   29  VAL29      -0.1980
      9  CA        49.4750   54.1620  -40.3680 C.3    29  VAL29       0.1595
     10  C         49.4890   52.6750  -40.0140 C.2    29  VAL29       0.2287
     11  O         49.7640   52.3050  -38.8600 O.2    29  VAL29      -0.2864
     12  CB        48.0500   54.7390  -40.3310 C.3    29  VAL29       0.0276
     13  CG1       47.3200   54.2500  -39.0930 C.3    29  VAL29       0.0022
     14  CG2       48.0900   56.3210  -40.4600 C.3    29  VAL29       0.0022
     15  N         53.3560   51.5590  -39.2850 N.3    32  ILE32      -0.1231
     16  CA        53.8710   52.0240  -38.0020 C.3    32  ILE32       0.1692
     17  C         53.0520   51.4250  -36.8530 C.2    32  ILE32       0.2592
     18  O         53.6000   50.9450  -35.8560 O.2    32  ILE32      -0.2718
     19  CB        53.8490   53.5570  -37.9470 C.3    32  ILE32       0.0266
     20  CG1       54.7610   54.1620  -38.9970 C.3    32  ILE32       0.0019
     21  CG2       54.2290   54.0850  -36.5260 C.3    32  ILE32       0.0020
     22  CD1       54.7030   55.6250  -38.8880 C.3    32  ILE32       0.0001
     23  N         51.7230   51.4800  -36.9760 N.am   33  GLY33      -0.1957
     24  CA        50.8600   51.0160  -35.9150 C.3    33  GLY33       0.1869
     25  C         51.0230   49.5320  -35.6300 C.2    33  GLY33       0.2309
     26  O         51.1700   49.1310  -34.4700 O.2    33  GLY33      -0.2863
     27  N         54.3390   48.8290  -34.0010 N.3    36  LEU36      -0.1245
     28  CA        54.3580   49.2040  -32.6000 C.3    36  LEU36       0.1561
     29  C         53.5480   48.2410  -31.7330 C.2    36  LEU36       0.2260
     30  O         53.8600   48.0900  -30.5480 O.2    36  LEU36      -0.2867
     31  CB        53.8400   50.6100  -32.4090 C.3    36  LEU36       0.0270
     32  CG        54.7560   51.6930  -33.0360 C.3    36  LEU36       0.0019
     33  CD1       54.1700   53.0050  -32.7460 C.3    36  LEU36       0.0001
     34  CD2       56.1930   51.6220  -32.5030 C.3    36  LEU36       0.0001
     35  N         45.4160   48.9750  -34.6430 N.3   477  PRO477     -0.2102
     36  CA        46.2360   49.6600  -33.6200 C.3   477  PRO477      0.1504
     37  C         45.5610   50.8930  -33.0320 C.2   477  PRO477      0.2575
     38  O         45.7510   51.1780  -31.8380 O.2   477  PRO477     -0.2718
     39  CB        47.5380   50.0300  -34.3780 C.3   477  PRO477      0.0282
     40  CG        47.5560   49.0260  -35.6020 C.3   477  PRO477      0.0208
     41  CD        46.1030   48.9300  -35.9560 C.3   477  PRO477      0.0893
     42  N         44.7940   51.6560  -33.8360 N.am  478  ILE478     -0.1980
     43  CA        44.0940   52.8130  -33.2850 C.3   478  ILE478      0.1595
     44  C         43.0490   52.3660  -32.2620 C.2   478  ILE478      0.2287
     45  O         42.8570   53.0140  -31.2120 O.2   478  ILE478     -0.2864
     46  CB        43.4720   53.6610  -34.4170 C.3   478  ILE478      0.0276
     47  CG1       44.6010   54.1600  -35.3430 C.3   478  ILE478      0.0022
     48  CG2       42.6860   54.8220  -33.8120 C.3   478  ILE478      0.0022
     49  CD1       44.1490   54.9460  -36.6130 C.3   478  ILE478      0.0001
     50  N         44.7250   51.5290  -29.1060 N.3   481  ASN481     -0.1225
     51  CA        45.1300   52.7370  -28.4070 C.3   481  ASN481      0.1785
     52  C         43.9620   53.3400  -27.6350 C.2   481  ASN481      0.2597
     53  O         44.1220   53.7760  -26.4910 O.2   481  ASN481     -0.2718
     54  CB        45.7060   53.7500  -29.3940 C.3   481  ASN481      0.1169
     55  CG        46.4760   54.8120  -28.6970 C.2   481  ASN481      0.2627
     56  OD1       47.6860   54.6840  -28.4660 O.2   481  ASN481     -0.2716
     57  ND2       45.7880   55.8600  -28.3240 N.am  481  ASN481     -0.0877
     58  N         42.7620   53.3450  -28.2260 N.am  482  PHE482     -0.1976
     59  CA        41.6530   53.9600  -27.4920 C.3   482  PHE482      0.1639
     60  C         41.0610   53.0480  -26.4070 C.2   482  PHE482      0.2290
     61  O         40.5170   53.5330  -25.4180 O.2   482  PHE482     -0.2864
     62  CB        40.5600   54.3650  -28.4760 C.3   482  PHE482      0.0560
     63  CG        40.8310   55.6670  -29.1610 C.ar  482  PHE482     -0.0200
     64  CD1       40.5790   56.8700  -28.5060 C.ar  482  PHE482     -0.0042
     65  CD2       41.3430   55.6920  -30.4540 C.ar  482  PHE482     -0.0042
     66  CE1       40.8150   58.1020  -29.1290 C.ar  482  PHE482     -0.0003
     67  CE2       41.6020   56.9220  -31.0920 C.ar  482  PHE482     -0.0003
     68  CZ        41.3290   58.1310  -30.4200 C.ar  482  PHE482     -0.0000
     69  N         47.9270   51.8550  -24.9080 N.3   488  ARG488     -0.1245
     70  CA        48.0360   53.3210  -25.0140 C.3   488  ARG488      0.1563
     71  C         49.3420   53.8120  -24.3910 C.2   488  ARG488      0.2260
     72  O         50.0790   54.6050  -24.9940 O.2   488  ARG488     -0.2867
     73  CB        46.8290   53.9800  -24.3540 C.3   488  ARG488      0.0307
     74  CG        46.8540   55.5430  -24.4270 C.3   488  ARG488      0.0489
     75  CD        45.4660   56.1220  -24.1680 C.3   488  ARG488      0.2205
     76  NE        44.9910   55.7130  -22.8580 N.pl3 488  ARG488     -0.0865
     77  CZ        43.9540   54.9160  -22.6240 C.cat 488  ARG488      0.5346
     78  NH1       43.2230   54.4550  -23.6120 N.pl3 488  ARG488      0.1354
     79  NH2       43.6330   54.5970  -21.3760 N.pl3 488  ARG488      0.1354
     80  N         52.3860   52.7790  -26.6730 N.3   491  PHE491     -0.1241
     81  CA        52.4160   53.6480  -27.8460 C.3   491  PHE491      0.1605
     82  C         52.9420   55.0420  -27.4920 C.2   491  PHE491      0.2264
     83  O         53.8000   55.5970  -28.1960 O.2   491  PHE491     -0.2867
     84  CB        51.0230   53.7420  -28.4760 C.3   491  PHE491      0.0534
     85  CG        50.5420   52.4540  -29.0800 C.ar  491  PHE491     -0.0203
     86  CD1       51.4090   51.3680  -29.2340 C.ar  491  PHE491     -0.0042
     87  CD2       49.2080   52.3050  -29.4500 C.ar  491  PHE491     -0.0042
     88  CE1       50.9690   50.1800  -29.7860 C.ar  491  PHE491     -0.0003
     89  CE2       48.7560   51.1120  -29.9880 C.ar  491  PHE491     -0.0003
     90  CZ        49.6530   50.0500  -30.1680 C.ar  491  PHE491     -0.0000
     91  N         56.2610   56.9560  -29.1970 N.3   495  PHE495     -0.1241
     92  CA        56.2810   58.2810  -29.8330 C.3   495  PHE495      0.1605
     93  C         57.1090   59.2920  -29.0580 C.2   495  PHE495      0.2264
     94  O         57.6430   60.2320  -29.6540 O.2   495  PHE495     -0.2867
     95  CB        54.8670   58.8250  -29.9860 C.3   495  PHE495      0.0534
     96  CG        53.9550   57.9460  -30.8150 C.ar  495  PHE495     -0.0203
     97  CD1       54.3930   57.4080  -32.0120 C.ar  495  PHE495     -0.0042
     98  CD2       52.6590   57.6700  -30.3910 C.ar  495  PHE495     -0.0042
     99  CE1       53.5550   56.6280  -32.7880 C.ar  495  PHE495     -0.0003
    100  CE2       51.8160   56.8880  -31.1540 C.ar  495  PHE495     -0.0003
    101  CZ        52.2700   56.3540  -32.3520 C.ar  495  PHE495     -0.0000
@<TRIPOS>BOND
     1     7     5    1
     2     1     2    1
     3     5     2    1
     4     5     6    1
     5     2     3    1
     6     3     8   am
     7     3     4    2
     8     8     9    1
     9    14    12    1
    10     9    12    1
    11     9    10    1
    12    12    13    1
    13    10    11    2
    14    15    16    1
    15    20    22    1
    16    20    19    1
    17    16    19    1
    18    16    17    1
    19    19    21    1
    20    23    17   am
    21    23    24    1
    22    17    18    2
    23    49    47    1
    24    41    40    1
    25    41    35    1
    26    24    25    1
    27    25    26    2
    28    40    39    1
    29    47    46    1
    30    35    36    1
    31    46    48    1
    32    46    43    1
    33    39    36    1
    34    27    28    1
    35    42    43    1
    36    42    37   am
    37    36    37    1
    38    43    44    1
    39    32    33    1
    40    32    34    1
    41    32    31    1
    42    37    38    2
    43    99   101   ar
    44    99    97   ar
    45    28    31    1
    46    28    29    1
    47   101   100   ar
    48    44    45    2
    49    97    96   ar
    50    29    30    2
    51   100    98   ar
    52    67    65   ar
    53    67    68   ar
    54    96    98   ar
    55    96    95    1
    56    65    63   ar
    57    68    66   ar
    58    90    89   ar
    59    90    88   ar
    60    89    87   ar
    61    95    92    1
    62    92    91    1
    63    92    93    1
    64    88    86   ar
    65    94    93    2
    66    87    85   ar
    67    54    55    1
    68    54    51    1
    69    86    85   ar
    70    63    64   ar
    71    63    62    1
    72    66    64   ar
    73    50    51    1
    74    85    84    1
    75    55    56    2
    76    55    57   am
    77    62    59    1
    78    84    81    1
    79    51    52    1
    80    58    52   am
    81    58    59    1
    82    83    82    2
    83    81    82    1
    84    81    80    1
    85    52    53    2
    86    59    60    1
    87    60    61    2
    88    70    69    1
    89    70    71    1
    90    70    73    1
    91    72    71    2
    92    74    73    1
    93    74    75    1
    94    75    76    1
    95    78    77    1
    96    76    77    2
    97    77    79    1
