@<TRIPOS>MOLECULE
tmp/5wqcA04.pdb
 120 118 0 0 0
SMALL
GASTEIGER

@<TRIPOS>ATOM
      1  N         39.0310   59.6350  -62.4570 N.3    14  GLU14      -0.1231
      2  CA        38.8730   60.9870  -61.9370 C.3    14  GLU14       0.1699
      3  C         39.2170   61.0810  -60.4680 C.2    14  GLU14       0.2592
      4  O         39.6450   62.1510  -60.0040 O.2    14  GLU14      -0.2718
      5  CB        37.4510   61.4540  -62.1540 C.3    14  GLU14       0.0402
      6  CG        36.3970   60.5260  -61.6250 C.3    14  GLU14       0.1161
      7  CD        35.0320   60.9670  -62.1040 C.2    14  GLU14       0.3649
      8  OE1       34.9570   61.5420  -63.2270 O.co2  14  GLU14      -0.2457
      9  OE2       34.0450   60.7660  -61.3660 O.co2  14  GLU14      -0.2457
     10  N         39.0430   59.9710  -59.7300 N.am   15  TYR15      -0.1976
     11  CA        39.2600   59.8720  -58.2960 C.3    15  TYR15       0.1639
     12  C         40.6170   59.2740  -57.9470 C.2    15  TYR15       0.2290
     13  O         40.8190   58.8460  -56.8080 O.2    15  TYR15      -0.2864
     14  CB        38.1610   59.0140  -57.6430 C.3    15  TYR15       0.0560
     15  CG        37.9630   57.6290  -58.2940 C.ar   15  TYR15      -0.0198
     16  CD1       37.0610   57.4460  -59.3470 C.ar   15  TYR15      -0.0009
     17  CD2       38.6830   56.5420  -57.8830 C.ar   15  TYR15      -0.0009
     18  CE1       36.8840   56.1880  -59.9640 C.ar   15  TYR15       0.0417
     19  CE2       38.5060   55.2610  -58.4790 C.ar   15  TYR15       0.0417
     20  CZ        37.6080   55.0950  -59.5160 C.ar   15  TYR15       0.1957
     21  OH        37.4510   53.8480  -60.1080 O.3    15  TYR15      -0.2866
     22  N         43.3910   60.7080  -57.4160 N.3    17  TRP17      -0.1227
     23  CA        44.1000   61.4850  -56.3990 C.3    17  TRP17       0.1737
     24  C         43.7300   61.0210  -54.9960 C.2    17  TRP17       0.2595
     25  O         44.6030   60.8310  -54.1410 O.2    17  TRP17      -0.2718
     26  CB        43.8210   62.9830  -56.5650 C.3    17  TRP17       0.0564
     27  CG        42.3890   63.4110  -56.3570 C.ar   17  TRP17       0.0003
     28  CD1       41.3920   63.4280  -57.2890 C.ar   17  TRP17       0.0946
     29  CD2       41.7950   63.8790  -55.1250 C.ar   17  TRP17       0.0152
     30  NE1       40.2190   63.8900  -56.7250 N.ar   17  TRP17      -0.2442
     31  CE2       40.4410   64.1790  -55.4020 C.ar   17  TRP17       0.0810
     32  CE3       42.2880   64.0980  -53.8290 C.ar   17  TRP17       0.0012
     33  CZ2       39.5670   64.6820  -54.4300 C.ar   17  TRP17       0.0191
     34  CZ3       41.4160   64.5940  -52.8550 C.ar   17  TRP17       0.0001
     35  CH2       40.0690   64.8840  -53.1680 C.ar   17  TRP17       0.0015
     36  N         42.4450   60.7800  -54.7580 N.am   18  VAL18      -0.1966
     37  CA        42.0270   60.4640  -53.3960 C.3    18  VAL18       0.1727
     38  C         42.3450   59.0220  -53.0910 C.2    18  VAL18       0.2616
     39  O         42.6700   58.6790  -51.9490 O.2    18  VAL18      -0.2715
     40  CB        40.5270   60.7800  -53.1980 C.3    18  VAL18       0.0290
     41  CG1       39.6510   59.7560  -53.9270 C.3    18  VAL18       0.0023
     42  CG2       40.1510   60.7980  -51.7200 C.3    18  VAL18       0.0023
     43  N         42.3090   58.1590  -54.1060 N.am   19  LEU19      -0.1977
     44  CA        42.7160   56.7740  -53.9190 C.3    19  LEU19       0.1596
     45  C         44.1880   56.6950  -53.5250 C.2    19  LEU19       0.2287
     46  O         44.5710   55.9750  -52.6210 O.2    19  LEU19      -0.2864
     47  CB        42.4770   56.0150  -55.2260 C.3    19  LEU19       0.0297
     48  CG        42.5380   54.5190  -55.1330 C.3    19  LEU19       0.0022
     49  CD1       41.4830   53.9670  -54.1250 C.3    19  LEU19       0.0001
     50  CD2       42.3890   53.9240  -56.5710 C.3    19  LEU19       0.0001
     51  N         46.0540   59.1160  -52.2070 N.3    21  ALA21      -0.1231
     52  CA        46.2040   59.7130  -50.8840 C.3    21  ALA21       0.1694
     53  C         45.7730   58.7290  -49.7950 C.2    21  ALA21       0.2592
     54  O         46.4860   58.5220  -48.8010 O.2    21  ALA21      -0.2718
     55  CB        45.3900   60.9970  -50.8300 C.3    21  ALA21       0.0304
     56  N         44.6040   58.1150  -49.9720 N.am   22  GLY22      -0.1957
     57  CA        44.1090   57.1540  -48.9940 C.3    22  GLY22       0.1869
     58  C         44.9890   55.9210  -48.8320 C.2    22  GLY22       0.2309
     59  O         45.1210   55.3890  -47.7240 O.2    22  GLY22      -0.2863
     60  N         48.1780   57.0580  -46.8510 N.3    25  ILE25      -0.1245
     61  CA        47.8530   57.2480  -45.4380 C.3    25  ILE25       0.1561
     62  C         47.6820   55.9070  -44.7350 C.2    25  ILE25       0.2260
     63  O         48.2550   55.6690  -43.6530 O.2    25  ILE25      -0.2867
     64  CB        46.5900   58.1060  -45.2990 C.3    25  ILE25       0.0252
     65  CG1       46.8820   59.5290  -45.7700 C.3    25  ILE25       0.0019
     66  CG2       46.1100   58.1120  -43.7970 C.3    25  ILE25       0.0019
     67  CD1       45.6600   60.4450  -45.7590 C.3    25  ILE25       0.0001
     68  N         31.7160   51.9130  -64.7700 N.3   456  GLU456     -0.1231
     69  CA        32.4530   52.8970  -63.9860 C.3   456  GLU456      0.1699
     70  C         32.0710   52.8140  -62.5180 C.2   456  GLU456      0.2592
     71  O         32.9410   52.7990  -61.6340 O.2   456  GLU456     -0.2718
     72  CB        32.1820   54.3100  -64.5100 C.3   456  GLU456      0.0402
     73  CG        32.8360   54.6600  -65.8450 C.3   456  GLU456      0.1161
     74  CD        32.5400   56.1210  -66.2990 C.2   456  GLU456      0.3649
     75  OE1       32.4330   56.3870  -67.5260 O.co2 456  GLU456     -0.2457
     76  OE2       32.4110   57.0000  -65.4150 O.co2 456  GLU456     -0.2457
     77  N         30.7600   52.8100  -62.2430 N.am  457  THR457     -0.1953
     78  CA        30.2920   52.7800  -60.8600 C.3   457  THR457      0.1897
     79  C         30.6970   51.4810  -60.1780 C.2   457  THR457      0.2313
     80  O         31.1680   51.4870  -59.0280 O.2   457  THR457     -0.2863
     81  CB        28.7730   52.9720  -60.8280 C.3   457  THR457      0.1794
     82  OG1       28.4710   54.3280  -61.1720 O.3   457  THR457     -0.2208
     83  CG2       28.2010   52.6820  -59.4590 C.3   457  THR457      0.0378
     84  N         34.2600   51.5000  -59.3170 N.3   460  ALA460     -0.1245
     85  CA        34.5130   52.3640  -58.1670 C.3   460  ALA460      0.1562
     86  C         34.2020   51.6400  -56.8700 C.2   460  ALA460      0.2260
     87  O         34.9650   51.7370  -55.9010 O.2   460  ALA460     -0.2867
     88  CB        33.6820   53.6450  -58.2630 C.3   460  ALA460      0.0290
     89  N         37.0400   49.2100  -56.1040 N.3   463  THR463     -0.1203
     90  CA        38.2420   49.9080  -55.6600 C.3   463  THR463      0.1994
     91  C         38.1110   50.3690  -54.2050 C.2   463  THR463      0.2617
     92  O         39.0440   50.2230  -53.3920 O.2   463  THR463     -0.2717
     93  CB        38.4780   51.0710  -56.6120 C.3   463  THR463      0.1784
     94  OG1       38.7390   50.5200  -57.9170 O.3   463  THR463     -0.2211
     95  CG2       39.6260   51.9100  -56.1660 C.3   463  THR463      0.0376
     96  N         36.9500   50.9300  -53.8670 N.am  464  PHE464     -0.1975
     97  CA        36.6700   51.2960  -52.4770 C.3   464  PHE464      0.1639
     98  C         36.7330   50.0760  -51.5480 C.2   464  PHE464      0.2290
     99  O         37.2680   50.1580  -50.4320 O.2   464  PHE464     -0.2864
    100  CB        35.3030   51.9470  -52.3940 C.3   464  PHE464      0.0560
    101  CG        34.8780   52.2110  -50.9770 C.ar  464  PHE464     -0.0200
    102  CD1       35.4920   53.2220  -50.2540 C.ar  464  PHE464     -0.0042
    103  CD2       33.9250   51.4190  -50.3630 C.ar  464  PHE464     -0.0042
    104  CE1       35.1380   53.4550  -48.9340 C.ar  464  PHE464     -0.0003
    105  CE2       33.5640   51.6500  -49.0350 C.ar  464  PHE464     -0.0003
    106  CZ        34.1620   52.6620  -48.3250 C.ar  464  PHE464     -0.0000
    107  N         40.3110   49.2490  -50.8180 N.3   467  TRP467     -0.1241
    108  CA        40.9160   50.2110  -49.8890 C.3   467  TRP467      0.1605
    109  C         40.4360   49.9490  -48.4540 C.2   467  TRP467      0.2264
    110  O         41.2340   49.9690  -47.5050 O.2   467  TRP467     -0.2867
    111  CB        40.6100   51.6580  -50.3180 C.3   467  TRP467      0.0550
    112  CG        41.1240   52.6500  -49.2830 C.ar  467  TRP467      0.0003
    113  CD1       42.4060   53.1350  -49.1490 C.ar  467  TRP467      0.0946
    114  CD2       40.3710   53.1940  -48.2020 C.ar  467  TRP467      0.0152
    115  NE1       42.4740   53.9970  -48.0430 N.ar  467  TRP467     -0.2442
    116  CE2       41.2380   54.0410  -47.4570 C.ar  467  TRP467      0.0810
    117  CE3       39.0360   53.0680  -47.8050 C.ar  467  TRP467      0.0012
    118  CZ2       40.8170   54.7390  -46.2870 C.ar  467  TRP467      0.0191
    119  CZ3       38.6110   53.7650  -46.6070 C.ar  467  TRP467      0.0001
    120  CH2       39.5100   54.6050  -45.9030 C.ar  467  TRP467      0.0015
@<TRIPOS>BOND
     1    75    74   ar
     2    74    73    1
     3    74    76   ar
     4    73    72    1
     5    68    69    1
     6    72    69    1
     7    69    70    1
     8     8     7   ar
     9    70    77   am
    10    70    71    2
    11     1     2    1
    12    77    78    1
    13     5     2    1
    14     5     6    1
    15     7     6    1
    16     7     9   ar
    17     2     3    1
    18    82    81    1
    19    78    81    1
    20    78    79    1
    21    81    83    1
    22     3     4    2
    23     3    10   am
    24    79    80    2
    25    21    20    1
    26    18    20   ar
    27    18    16   ar
    28    10    11    1
    29    20    19   ar
    30    16    15   ar
    31    84    85    1
    32    19    17   ar
    33    11    12    1
    34    11    14    1
    35    15    17   ar
    36    15    14    1
    37    88    85    1
    38    85    86    1
    39    12    13    2
    40    94    93    1
    41    22    23    1
    42    28    30   ar
    43    28    27   ar
    44    86    87    2
    45    30    31   ar
    46    93    95    1
    47    93    90    1
    48    50    48    1
    49    26    23    1
    50    26    27    1
    51    23    24    1
    52    27    29   ar
    53    89    90    1
    54    90    91    1
    55    31    29   ar
    56    31    33   ar
    57    47    48    1
    58    47    44    1
    59    48    49    1
    60    29    32   ar
    61    24    36   am
    62    24    25    2
    63    36    37    1
    64    33    35   ar
    65    91    96   am
    66    91    92    2
    67    43    44    1
    68    43    38   am
    69    41    40    1
    70    44    45    1
    71    96    97    1
    72    32    34   ar
    73    45    46    2
    74    37    40    1
    75    37    38    1
    76    40    42    1
    77    35    34   ar
    78    38    39    2
    79    97   100    1
    80    97    98    1
    81   100   101    1
    82    51    52    1
    83    98    99    2
    84   101   103   ar
    85   101   102   ar
    86    52    55    1
    87    52    53    1
    88   107   108    1
    89   103   105   ar
    90   111   108    1
    91   111   112    1
    92   102   104   ar
    93    56    53   am
    94    56    57    1
    95   108   109    1
    96    53    54    2
    97   112   113   ar
    98   112   114   ar
    99   113   115   ar
   100   105   106   ar
   101    57    58    1
   102   104   106   ar
   103    58    59    2
   104   109   110    2
   105   114   117   ar
   106   114   116   ar
   107   115   116   ar
   108   117   119   ar
   109   116   118   ar
   110    60    61    1
   111   119   120   ar
   112   118   120   ar
   113    65    67    1
   114    65    64    1
   115    61    64    1
   116    61    62    1
   117    64    66    1
   118    62    63    2
