@<TRIPOS>MOLECULE
tmp/5wqhD00.pdb
 201 188 0 0 0
SMALL
GASTEIGER

@<TRIPOS>ATOM
      1  N        101.5570   40.8160   10.4550 N.3    13  PHE13      -0.1241
      2  CA       102.2730   41.4190    9.3330 C.3    13  PHE13       0.1605
      3  C        102.2330   40.5060    8.1130 C.2    13  PHE13       0.2264
      4  O        101.9780   40.9620    6.9960 O.2    13  PHE13      -0.2867
      5  CB       103.7220   41.7350    9.7160 C.3    13  PHE13       0.0534
      6  CG       104.5080   42.3970    8.6030 C.ar   13  PHE13      -0.0203
      7  CD1      105.0530   41.6420    7.5710 C.ar   13  PHE13      -0.0042
      8  CD2      104.6900   43.7730    8.5870 C.ar   13  PHE13      -0.0042
      9  CE1      105.7710   42.2510    6.5300 C.ar   13  PHE13      -0.0003
     10  CE2      105.4020   44.3860    7.5620 C.ar   13  PHE13      -0.0003
     11  CZ       105.9450   43.6190    6.5290 C.ar   13  PHE13      -0.0000
     12  N        100.5000   41.3620    4.6830 N.3    17  TYR17      -0.1241
     13  CA       101.4460   41.3560    3.5880 C.3    17  TYR17       0.1605
     14  C        100.9540   40.4880    2.4390 C.2    17  TYR17       0.2264
     15  O        101.0970   40.8580    1.2680 O.2    17  TYR17      -0.2867
     16  CB       102.7520   40.8540    4.1490 C.3    17  TYR17       0.0534
     17  CG       103.8880   40.7940    3.2030 C.ar   17  TYR17      -0.0201
     18  CD1      104.1320   39.6530    2.4190 C.ar   17  TYR17      -0.0009
     19  CD2      104.7920   41.8310    3.1600 C.ar   17  TYR17      -0.0009
     20  CE1      105.2470   39.6060    1.5650 C.ar   17  TYR17       0.0417
     21  CE2      105.8730   41.7970    2.3310 C.ar   17  TYR17       0.0417
     22  CZ       106.0980   40.7080    1.5560 C.ar   17  TYR17       0.1957
     23  OH       107.1730   40.6720    0.7270 O.3    17  TYR17      -0.2866
     24  N         98.8620   42.0020   -0.2560 N.3    20  PHE20      -0.1241
     25  CA        99.6880   42.4500   -1.3780 C.3    20  PHE20       0.1605
     26  C         99.1500   43.7310   -2.0200 C.2    20  PHE20       0.2264
     27  O         99.0300   43.8350   -3.2400 O.2    20  PHE20      -0.2867
     28  CB        99.8270   41.3400   -2.4260 C.3    20  PHE20       0.0534
     29  CG       100.9540   41.5590   -3.3910 C.ar   20  PHE20      -0.0203
     30  CD1      102.1050   42.2160   -2.9840 C.ar   20  PHE20      -0.0042
     31  CD2      100.8580   41.1200   -4.7060 C.ar   20  PHE20      -0.0042
     32  CE1      103.1490   42.4310   -3.8640 C.ar   20  PHE20      -0.0003
     33  CE2      101.9000   41.3270   -5.6010 C.ar   20  PHE20      -0.0003
     34  CZ       103.0480   41.9850   -5.1840 C.ar   20  PHE20      -0.0000
     35  N        100.7720   46.2610    3.1200 N.3    25  ILE25      -0.1245
     36  CA       102.1360   45.9390    3.5410 C.3    25  ILE25       0.1561
     37  C        102.7100   46.9560    4.5180 C.2    25  ILE25       0.2260
     38  O        103.7770   46.7160    5.1020 O.2    25  ILE25      -0.2867
     39  CB       103.0680   45.7870    2.3180 C.3    25  ILE25       0.0252
     40  CG1      103.0950   47.0690    1.4830 C.3    25  ILE25       0.0019
     41  CG2      102.6360   44.6020    1.4570 C.3    25  ILE25       0.0019
     42  CD1      104.4290   47.7720    1.4780 C.3    25  ILE25       0.0001
     43  N        103.0180   48.5110   10.3580 N.3    29  ARG29      -0.1245
     44  CA       104.3140   49.1440   10.5500 C.3    29  ARG29       0.1563
     45  C        104.1420   50.4840   11.2550 C.2    29  ARG29       0.2260
     46  O        103.1280   51.1670   11.0820 O.2    29  ARG29      -0.2867
     47  CB       105.0420   49.3380    9.2060 C.3    29  ARG29       0.0307
     48  CG       105.7720   48.0950    8.7000 C.3    29  ARG29       0.0489
     49  CD       106.4420   48.3040    7.3190 C.3    29  ARG29       0.2205
     50  NE       107.4060   49.4060    7.2930 N.pl3  29  ARG29      -0.0865
     51  CZ       108.1680   49.7190    6.2450 C.cat  29  ARG29       0.5346
     52  NH1      108.1050   49.0060    5.1190 N.pl3  29  ARG29       0.1354
     53  NH2      109.0020   50.7470    6.3200 N.pl3  29  ARG29       0.1354
     54  N        112.6260   49.3550    6.5120 N.3    35  SER35      -0.1217
     55  CA       112.7920   48.0010    5.9990 C.3    35  SER35       0.1889
     56  C        114.1790   47.9000    5.3620 C.2    35  SER35       0.2288
     57  O        114.4840   48.6290    4.4120 O.2    35  SER35      -0.2866
     58  CB       111.6830   47.6830    4.9890 C.3    35  SER35       0.2089
     59  OG       111.7200   46.3340    4.5530 O.3    35  SER35      -0.2183
     60  N        117.0290   45.6070    3.3860 N.3    37  ARG37      -0.1245
     61  CA       117.2550   44.4200    2.5750 C.3    37  ARG37       0.1563
     62  C        118.6920   43.9670    2.8090 C.2    37  ARG37       0.2260
     63  O        119.6270   44.7440    2.6010 O.2    37  ARG37      -0.2867
     64  CB       116.9720   44.7100    1.0980 C.3    37  ARG37       0.0307
     65  CG       116.9450   43.4770    0.2220 C.3    37  ARG37       0.0489
     66  CD       116.0120   43.6540   -0.9630 C.3    37  ARG37       0.2205
     67  NE       116.5620   44.5300   -1.9860 N.pl3  37  ARG37      -0.0865
     68  CZ       115.8800   44.9510   -3.0460 C.cat  37  ARG37       0.5346
     69  NH1      114.6130   44.5860   -3.2120 N.pl3  37  ARG37       0.1354
     70  NH2      116.4590   45.7420   -3.9360 N.pl3  37  ARG37       0.1354
     71  N        119.5690   47.7510    0.4720 N.3    44  ALA44      -0.1245
     72  CA       118.6820   48.8990    0.3390 C.3    44  ALA44       0.1562
     73  C        118.0030   49.1380    1.6790 C.2    44  ALA44       0.2260
     74  O        118.0710   48.3160    2.5940 O.2    44  ALA44      -0.2867
     75  CB       117.6460   48.6940   -0.7720 C.3    44  ALA44       0.0290
     76  N        114.2560   51.2000    3.0620 N.3    46  ARG46      -0.1245
     77  CA       113.0380   51.8410    2.5880 C.3    46  ARG46       0.1563
     78  C        112.1460   52.2580    3.7480 C.2    46  ARG46       0.2260
     79  O        111.9020   51.4740    4.6730 O.2    46  ARG46      -0.2867
     80  CB       112.2770   50.9120    1.6490 C.3    46  ARG46       0.0307
     81  CG       113.0860   50.5750    0.4170 C.3    46  ARG46       0.0489
     82  CD       112.2890   49.8370   -0.6330 C.3    46  ARG46       0.2205
     83  NE       113.1000   49.6670   -1.8300 N.pl3  46  ARG46      -0.0865
     84  CZ       113.0490   48.6030   -2.6150 C.cat  46  ARG46       0.5346
     85  NH1      112.2280   47.6110   -2.3210 N.pl3  46  ARG46       0.1354
     86  NH2      113.8280   48.5250   -3.6830 N.pl3  46  ARG46       0.1354
     87  N        108.4150   51.8710    0.6190 N.3    51  SER51      -0.1217
     88  CA       107.8130   50.5400    0.5730 C.3    51  SER51       0.1889
     89  C        106.4860   50.5520   -0.1840 C.2    51  SER51       0.2288
     90  O        106.2000   49.6310   -0.9580 O.2    51  SER51      -0.2866
     91  CB       107.6140   50.0050    1.9950 C.3    51  SER51       0.2089
     92  OG       108.8420   49.9720    2.7040 O.3    51  SER51      -0.2183
     93  N        107.4070   50.8210   -3.8190 N.3    54  ALA54      -0.1231
     94  CA       107.9910   49.5700   -4.2960 C.3    54  ALA54       0.1694
     95  C        106.9300   48.4890   -4.4640 C.2    54  ALA54       0.2592
     96  O        106.9500   47.7360   -5.4460 O.2    54  ALA54      -0.2718
     97  CB       109.0890   49.1100   -3.3340 C.3    54  ALA54       0.0304
     98  N        105.9840   48.4080   -3.5220 N.am   55  CYS55      -0.1970
     99  CA       104.8850   47.4550   -3.6500 C.3    55  CYS55       0.1712
    100  C        104.0790   47.6970   -4.9230 C.2    55  CYS55       0.2296
    101  O        103.7570   46.7520   -5.6570 O.2    55  CYS55      -0.2864
    102  CB       103.9760   47.5330   -2.4210 C.3    55  CYS55       0.0983
    103  SG       102.6170   46.3400   -2.4830 S.3    55  CYS55      -0.0798
    104  N        105.9850   46.5240   -7.8930 N.3    58  ALA58      -0.1245
    105  CA       106.0640   45.0690   -7.9530 C.3    58  ALA58       0.1562
    106  C        104.7460   44.4510   -8.3860 C.2    58  ALA58       0.2260
    107  O        104.7370   43.3630   -8.9730 O.2    58  ALA58      -0.2867
    108  CB       106.4940   44.5090   -6.5950 C.3    58  ALA58       0.0290
    109  N        104.0060   41.1340  -10.4220 N.3    62  PHE62      -0.1241
    110  CA       103.4130   40.0500   -9.6400 C.3    62  PHE62       0.1605
    111  C        101.8890   40.1660   -9.6870 C.2    62  PHE62       0.2264
    112  O        101.3110   41.0940   -9.1070 O.2    62  PHE62      -0.2867
    113  CB       103.9190   40.0890   -8.1990 C.3    62  PHE62       0.0534
    114  CG       105.3370   39.6240   -8.0420 C.ar   62  PHE62      -0.0203
    115  CD1      106.4000   40.4650   -8.3670 C.ar   62  PHE62      -0.0042
    116  CD2      105.6160   38.3450   -7.5710 C.ar   62  PHE62      -0.0042
    117  CE1      107.7120   40.0370   -8.2430 C.ar   62  PHE62      -0.0003
    118  CE2      106.9400   37.9080   -7.4410 C.ar   62  PHE62      -0.0003
    119  CZ       107.9830   38.7590   -7.7780 C.ar   62  PHE62      -0.0000
    120  N        100.9750   37.0170   -4.9350 N.3    65  LEU65      -0.1245
    121  CA       102.1350   36.7500   -4.0980 C.3    65  LEU65       0.1561
    122  C        101.6520   36.2000   -2.7680 C.2    65  LEU65       0.2260
    123  O        100.7550   36.7820   -2.1510 O.2    65  LEU65      -0.2867
    124  CB       102.9550   38.0220   -3.8740 C.3    65  LEU65       0.0270
    125  CG       104.1840   37.8470   -2.9920 C.3    65  LEU65       0.0019
    126  CD1      105.2070   37.0120   -3.7440 C.3    65  LEU65       0.0001
    127  CD2      104.7410   39.2030   -2.5840 C.3    65  LEU65       0.0001
    128  N        108.1580   31.7780   -0.5540 N.3    90  SER90      -0.1217
    129  CA       107.5120   32.8180   -1.3420 C.3    90  SER90       0.1889
    130  C        107.0850   32.2230   -2.6700 C.2    90  SER90       0.2288
    131  O        107.8730   31.5390   -3.3310 O.2    90  SER90      -0.2866
    132  CB       108.4350   34.0110   -1.5760 C.3    90  SER90       0.2089
    133  OG       109.5860   33.6140   -2.2970 O.3    90  SER90      -0.2183
    134  N        107.1180   32.5780   -9.7630 N.3    99  TRP99      -0.1241
    135  CA       108.0800   32.9360   -8.7390 C.3    99  TRP99       0.1605
    136  C        108.0270   31.8710   -7.6500 C.2    99  TRP99       0.2264
    137  O        106.9480   31.5490   -7.1400 O.2    99  TRP99      -0.2867
    138  CB       107.7920   34.3220   -8.1490 C.3    99  TRP99       0.0550
    139  CG       108.6630   34.6460   -6.9650 C.ar   99  TRP99       0.0003
    140  CD1      108.4510   34.2810   -5.6610 C.ar   99  TRP99       0.0946
    141  CD2      109.8960   35.3820   -6.9820 C.ar   99  TRP99       0.0152
    142  NE1      109.4680   34.7620   -4.8630 N.ar   99  TRP99      -0.2442
    143  CE2      110.3720   35.4320   -5.6520 C.ar   99  TRP99       0.0810
    144  CE3      110.6360   36.0060   -7.9900 C.ar   99  TRP99       0.0012
    145  CZ2      111.5630   36.0870   -5.3020 C.ar   99  TRP99       0.0191
    146  CZ3      111.8180   36.6500   -7.6470 C.ar   99  TRP99       0.0001
    147  CH2      112.2700   36.6850   -6.3110 C.ar   99  TRP99       0.0015
    148  N        112.8280   36.8180    7.0860 N.3   105  PHE105     -0.1241
    149  CA       112.3540   38.1100    7.5580 C.3   105  PHE105      0.1605
    150  C        112.6520   38.2030    9.0470 C.2   105  PHE105      0.2264
    151  O        112.3390   37.2770    9.8040 O.2   105  PHE105     -0.2867
    152  CB       110.8420   38.2760    7.3340 C.3   105  PHE105      0.0534
    153  CG       110.4460   38.6530    5.9290 C.ar  105  PHE105     -0.0203
    154  CD1      111.3070   38.4700    4.8590 C.ar  105  PHE105     -0.0042
    155  CD2      109.1910   39.1990    5.6840 C.ar  105  PHE105     -0.0042
    156  CE1      110.9270   38.8250    3.5770 C.ar  105  PHE105     -0.0003
    157  CE2      108.8030   39.5540    4.3920 C.ar  105  PHE105     -0.0003
    158  CZ       109.6780   39.3720    3.3420 C.ar  105  PHE105     -0.0000
    159  N        112.3460   46.0490   10.0200 N.3   119  ILE119     -0.1245
    160  CA       112.3720   44.8040    9.2550 C.3   119  ILE119      0.1561
    161  C        113.7330   44.6350    8.5870 C.2   119  ILE119      0.2260
    162  O        114.3030   45.5990    8.0660 O.2   119  ILE119     -0.2867
    163  CB       111.2780   44.7580    8.1670 C.3   119  ILE119      0.0252
    164  CG1      109.9410   45.2460    8.6930 C.3   119  ILE119      0.0019
    165  CG2      111.1260   43.3550    7.6280 C.3   119  ILE119      0.0019
    166  CD1      108.9880   45.6310    7.5960 C.3   119  ILE119      0.0001
    167  N        115.1460   41.8730    5.5930 N.3   121  ALA121     -0.1245
    168  CA       114.7410   40.8000    4.6960 C.3   121  ALA121      0.1562
    169  C        115.9660   40.2940    3.9480 C.2   121  ALA121      0.2260
    170  O        116.6710   41.0760    3.3000 O.2   121  ALA121     -0.2867
    171  CB       113.6490   41.2620    3.7220 C.3   121  ALA121      0.0290
    172  N        116.8740   37.8370    0.9600 N.3   123  PHE123     -0.1241
    173  CA       116.4160   37.0700   -0.1850 C.3   123  PHE123      0.1605
    174  C        117.5520   36.3000   -0.8430 C.2   123  PHE123      0.2264
    175  O        118.7400   36.5630   -0.6270 O.2   123  PHE123     -0.2867
    176  CB       115.7730   37.9870   -1.2280 C.3   123  PHE123      0.0534
    177  CG       114.6010   38.7470   -0.7130 C.ar  123  PHE123     -0.0203
    178  CD1      113.3760   38.1270   -0.5760 C.ar  123  PHE123     -0.0042
    179  CD2      114.7270   40.0800   -0.3560 C.ar  123  PHE123     -0.0042
    180  CE1      112.2720   38.8250   -0.1050 C.ar  123  PHE123     -0.0003
    181  CE2      113.6350   40.7830    0.1260 C.ar  123  PHE123     -0.0003
    182  CZ       112.4030   40.1480    0.2480 C.ar  123  PHE123     -0.0000
    183  N        116.9110   36.3370   -7.5260 N.3   128  MET128     -0.1245
    184  CA       116.4990   37.6730   -7.9510 C.3   128  MET128      0.1570
    185  C        117.1260   38.0460   -9.2890 C.2   128  MET128      0.2261
    186  O        116.4250   38.5120  -10.1910 O.2   128  MET128     -0.2867
    187  CB       116.8470   38.7070   -6.8730 C.3   128  MET128      0.0387
    188  CG       116.0010   38.5750   -5.6030 C.3   128  MET128      0.0595
    189  SD       116.2800   39.8300   -4.3140 S.3   128  MET128     -0.1393
    190  CE       115.5700   41.2420   -5.1760 C.3   128  MET128      0.0692
    191  N        115.4880   36.0810  -12.0040 N.3   131  PHE131     -0.1241
    192  CA       114.1470   36.5710  -12.2980 C.3   131  PHE131      0.1605
    193  C        114.2000   37.8390  -13.1450 C.2   131  PHE131      0.2264
    194  O        113.4430   37.9720  -14.1120 O.2   131  PHE131     -0.2867
    195  CB       113.3680   36.8250  -11.0080 C.3   131  PHE131      0.0534
    196  CG       111.9380   37.2160  -11.2440 C.ar  131  PHE131     -0.0203
    197  CD1      111.0140   36.2780  -11.6580 C.ar  131  PHE131     -0.0042
    198  CD2      111.5250   38.5280  -11.0750 C.ar  131  PHE131     -0.0042
    199  CE1      109.6950   36.6390  -11.8910 C.ar  131  PHE131     -0.0003
    200  CE2      110.2090   38.8950  -11.3040 C.ar  131  PHE131     -0.0003
    201  CZ       109.2930   37.9520  -11.7110 C.ar  131  PHE131     -0.0000
@<TRIPOS>BOND
     1   194   193    2
     2   193   192    1
     3   192   191    1
     4   192   195    1
     5   199   201   ar
     6   199   197   ar
     7   201   200   ar
     8   197   196   ar
     9   200   198   ar
    10   196   198   ar
    11   196   195    1
    12   109   110    1
    13   186   185    2
    14   134   135    1
    15   111   110    1
    16   111   112    2
    17   110   113    1
    18   185   184    1
    19   107   106    2
    20   135   138    1
    21   135   136    1
    22   106   105    1
    23   115   117   ar
    24   115   114   ar
    25   117   119   ar
    26   113   114    1
    27   138   139    1
    28   114   116   ar
    29   144   146   ar
    30   144   141   ar
    31   105   104    1
    32   105   108    1
    33   184   183    1
    34   184   187    1
    35   119   118   ar
    36   136   137    2
    37   146   147   ar
    38   116   118   ar
    39   141   139   ar
    40   141   143   ar
    41   139   140   ar
    42   187   188    1
    43   147   145   ar
    44   140   142   ar
    45   101   100    2
    46   143   145   ar
    47   143   142   ar
    48   188   189    1
    49    33    34   ar
    50    33    31   ar
    51    96    95    2
    52    34    32   ar
    53   190   189    1
    54   120   121    1
    55   100    99    1
    56    31    29   ar
    57    95    94    1
    58    95    98   am
    59    94    93    1
    60    94    97    1
    61   121   124    1
    62   121   122    1
    63    70    68    1
    64   124   125    1
    65    32    30   ar
    66   126   125    1
    67    86    84    1
    68    99    98    1
    69    99   102    1
    70    29    30   ar
    71    29    28    1
    72   131   130    2
    73    27    26    2
    74    69    68    1
    75    68    67    2
    76   125   127    1
    77   122   123    2
    78   130   129    1
    79    84    85    1
    80    84    83    2
    81   103   102    1
    82    28    25    1
    83   133   132    1
    84    26    25    1
    85    67    66    1
    86    83    82    1
    87   132   129    1
    88    25    24    1
    89   129   128    1
    90   176   177    1
    91   176   173    1
    92    66    65    1
    93    90    89    2
    94   174   175    2
    95   174   173    1
    96    75    72    1
    97   177   178   ar
    98   177   179   ar
    99    82    81    1
   100   178   180   ar
   101   179   181   ar
   102   173   172    1
   103    89    88    1
   104   180   182   ar
   105   181   182   ar
   106    65    64    1
   107    72    71    1
   108    72    73    1
   109    81    80    1
   110    88    87    1
   111    88    91    1
   112    23    22    1
   113    64    61    1
   114    15    14    2
   115    41    39    1
   116    42    40    1
   117    40    39    1
   118    22    20   ar
   119    22    21   ar
   120    20    18   ar
   121    80    77    1
   122    73    74    2
   123    91    92    1
   124    39    36    1
   125    21    19   ar
   126    18    17   ar
   127    14    13    1
   128    61    62    1
   129    61    60    1
   130    77    76    1
   131    77    78    1
   132    63    62    2
   133    35    36    1
   134    19    17   ar
   135    17    16    1
   136   170   169    2
   137   158   156   ar
   138   158   157   ar
   139    36    37    1
   140   156   154   ar
   141    13    16    1
   142    13    12    1
   143   171   168    1
   144    78    79    2
   145   169   168    1
   146   157   155   ar
   147    57    56    2
   148    37    38    2
   149    59    58    1
   150   168   167    1
   151   154   153   ar
   152    58    55    1
   153    52    51    1
   154    56    55    1
   155   155   153   ar
   156   153   152    1
   157    55    54    1
   158    51    53    1
   159    51    50    2
   160    11     9   ar
   161    11    10   ar
   162     9     7   ar
   163     4     3    2
   164   148   149    1
   165    50    49    1
   166    49    48    1
   167   152   149    1
   168   149   150    1
   169    10     8   ar
   170     7     6   ar
   171   166   164    1
   172   165   163    1
   173   162   161    2
   174     3     2    1
   175   163   164    1
   176   163   160    1
   177     8     6   ar
   178   161   160    1
   179     6     5    1
   180    48    47    1
   181   150   151    2
   182    47    44    1
   183   160   159    1
   184     2     5    1
   185     2     1    1
   186    43    44    1
   187    44    45    1
   188    46    45    2
