@<TRIPOS>MOLECULE
tmp/5wqhA00.pdb
 203 190 0 0 0
SMALL
GASTEIGER

@<TRIPOS>ATOM
      1  N        130.4900   51.0930   19.9290 N.3    13  PHE13      -0.1241
      2  CA       131.8640   51.5350   19.7420 C.3    13  PHE13       0.1605
      3  C        132.6850   50.4390   19.0900 C.2    13  PHE13       0.2264
      4  O        133.4710   50.7030   18.1730 O.2    13  PHE13      -0.2867
      5  CB       132.5000   51.9410   21.0810 C.3    13  PHE13       0.0534
      6  CG       134.0010   52.1650   20.9940 C.ar   13  PHE13      -0.0203
      7  CD1      134.8820   51.1000   21.0540 C.ar   13  PHE13      -0.0042
      8  CD2      134.5150   53.4390   20.8420 C.ar   13  PHE13      -0.0042
      9  CE1      136.2550   51.3010   20.9840 C.ar   13  PHE13      -0.0003
     10  CE2      135.8940   53.6500   20.7670 C.ar   13  PHE13      -0.0003
     11  CZ       136.7590   52.5780   20.8380 C.ar   13  PHE13      -0.0000
     12  N        134.5870   50.6190   15.6330 N.3    17  TYR17      -0.1241
     13  CA       136.0120   50.3140   15.7320 C.3    17  TYR17       0.1605
     14  C        136.4430   49.3050   14.6780 C.2    17  TYR17       0.2264
     15  O        137.4720   49.4800   14.0170 O.2    17  TYR17      -0.2867
     16  CB       136.2980   49.7720   17.1290 C.3    17  TYR17       0.0534
     17  CG       137.7340   49.7700   17.5800 C.ar   17  TYR17      -0.0201
     18  CD1      138.4830   48.6000   17.5580 C.ar   17  TYR17      -0.0009
     19  CD2      138.3240   50.9200   18.0950 C.ar   17  TYR17      -0.0009
     20  CE1      139.7930   48.5770   18.0180 C.ar   17  TYR17       0.0417
     21  CE2      139.6340   50.9100   18.5590 C.ar   17  TYR17       0.0417
     22  CZ       140.3610   49.7350   18.5130 C.ar   17  TYR17       0.1957
     23  OH       141.6590   49.7150   18.9640 O.3    17  TYR17      -0.2866
     24  N        137.3890   50.3660   11.3230 N.3    20  PHE20      -0.1241
     25  CA       138.7920   50.7720   11.3200 C.3    20  PHE20       0.1605
     26  C        139.1100   51.8610   10.2950 C.2    20  PHE20       0.2264
     27  O        140.0170   51.7270    9.4720 O.2    20  PHE20      -0.2867
     28  CB       139.7010   49.5700   11.1170 C.3    20  PHE20       0.0534
     29  CG       141.0760   49.7900   11.6420 C.ar   20  PHE20      -0.0203
     30  CD1      141.2580   50.2080   12.9580 C.ar   20  PHE20      -0.0042
     31  CD2      142.1800   49.6070   10.8400 C.ar   20  PHE20      -0.0042
     32  CE1      142.5210   50.4240   13.4660 C.ar   20  PHE20      -0.0003
     33  CE2      143.4500   49.8150   11.3450 C.ar   20  PHE20      -0.0003
     34  CZ       143.6170   50.2310   12.6580 C.ar   20  PHE20      -0.0000
     35  N        136.4030   55.2390   14.0640 N.3    25  ILE25      -0.1245
     36  CA       136.9000   55.0780   15.4280 C.3    25  ILE25       0.1561
     37  C        136.5500   56.2610   16.3180 C.2    25  ILE25       0.2260
     38  O        136.6550   56.1510   17.5450 O.2    25  ILE25      -0.2867
     39  CB       138.4210   54.8120   15.4430 C.3    25  ILE25       0.0252
     40  CG1      139.1990   56.0310   14.9510 C.3    25  ILE25       0.0019
     41  CG2      138.7490   53.5880   14.5980 C.3    25  ILE25       0.0019
     42  CD1      139.9060   56.7740   16.0540 C.3    25  ILE25       0.0001
     43  N        132.3720   58.5480   20.0410 N.3    29  ARG29      -0.1245
     44  CA       133.0980   59.2540   21.0890 C.3    29  ARG29       0.1563
     45  C        132.6100   60.6910   21.2100 C.2    29  ARG29       0.2260
     46  O        132.2670   61.3290   20.2130 O.2    29  ARG29      -0.2867
     47  CB       134.6170   59.2190   20.8240 C.3    29  ARG29       0.0307
     48  CG       135.2630   57.8740   21.2400 C.3    29  ARG29       0.0489
     49  CD       136.7970   57.8050   21.0600 C.3    29  ARG29       0.2205
     50  NE       137.5150   58.9150   21.6910 N.pl3  29  ARG29      -0.0865
     51  CZ       138.8370   59.0830   21.6160 C.cat  29  ARG29       0.5346
     52  NH1      139.5860   58.2000   20.9670 N.pl3  29  ARG29       0.1354
     53  NH2      139.4110   60.1370   22.1920 N.pl3  29  ARG29       0.1354
     54  N        141.5240   58.9790   25.2340 N.3    35  SER35      -0.1217
     55  CA       141.7580   57.5480   25.2640 C.3    35  SER35       0.1889
     56  C        143.0880   57.3110   25.9650 C.2    35  SER35       0.2288
     57  O        144.1330   57.7640   25.4830 O.2    35  SER35      -0.2866
     58  CB       141.7760   56.9850   23.8420 C.3    35  SER35       0.2089
     59  OG       142.3430   55.6900   23.7990 O.3    35  SER35      -0.2183
     60  N        146.0310   54.7460   27.4180 N.3    37  ARG37      -0.1245
     61  CA       146.6670   53.4380   27.4500 C.3    37  ARG37       0.1563
     62  C        147.1950   53.1740   28.8550 C.2    37  ARG37       0.2260
     63  O        147.8640   54.0320   29.4350 O.2    37  ARG37      -0.2867
     64  CB       147.8140   53.3700   26.4530 C.3    37  ARG37       0.0307
     65  CG       147.4820   52.7580   25.1370 C.3    37  ARG37       0.0489
     66  CD       148.7880   52.3790   24.5250 C.3    37  ARG37       0.2205
     67  NE       148.7920   52.4440   23.0800 N.pl3  37  ARG37      -0.0865
     68  CZ       149.9010   52.6150   22.3770 C.cat  37  ARG37       0.5346
     69  NH1      151.0690   52.7590   23.0090 N.pl3  37  ARG37       0.1354
     70  NH2      149.8420   52.6550   21.0580 N.pl3  37  ARG37       0.1354
     71  N        145.3790   60.2150   24.2740 N.3    46  ARG46      -0.1245
     72  CA       145.0580   60.6890   22.9320 C.3    46  ARG46       0.1563
     73  C        143.6730   61.3180   22.8950 C.2    46  ARG46       0.2260
     74  O        142.6870   60.6820   23.2830 O.2    46  ARG46      -0.2867
     75  CB       145.1150   59.5470   21.9160 C.3    46  ARG46       0.0307
     76  CG       146.5010   58.9950   21.7060 C.3    46  ARG46       0.0489
     77  CD       146.5270   58.1080   20.4930 C.3    46  ARG46       0.2205
     78  NE       147.8900   57.8070   20.0620 N.pl3  46  ARG46      -0.0865
     79  CZ       148.6180   56.8080   20.5480 C.cat  46  ARG46       0.5346
     80  NH1      148.1190   56.0260   21.4960 N.pl3  46  ARG46       0.1354
     81  NH2      149.8470   56.5940   20.0950 N.pl3  46  ARG46       0.1354
     82  N        143.7150   60.4080   18.0180 N.3    51  SER51      -0.1217
     83  CA       143.2130   59.0610   17.7470 C.3    51  SER51       0.1889
     84  C        143.0530   58.8320   16.2520 C.2    51  SER51       0.2288
     85  O        143.4150   57.7640   15.7400 O.2    51  SER51      -0.2866
     86  CB       141.8800   58.8280   18.4740 C.3    51  SER51       0.2089
     87  OG       142.0330   58.8740   19.8990 O.3    51  SER51      -0.2183
     88  N        146.4170   58.3570   14.8030 N.3    54  ALA54      -0.1231
     89  CA       146.9830   57.0550   15.1470 C.3    54  ALA54       0.1694
     90  C        146.3200   55.9460   14.3490 C.2    54  ALA54       0.2592
     91  O        146.9690   54.9570   13.9870 O.2    54  ALA54      -0.2718
     92  CB       146.8340   56.7890   16.6450 C.3    54  ALA54       0.0304
     93  N        145.0170   56.0790   14.0860 N.am   55  CYS55      -0.1970
     94  CA       144.3520   55.0750   13.2710 C.3    55  CYS55       0.1712
     95  C        144.8900   55.0990   11.8440 C.2    55  CYS55       0.2296
     96  O        145.1370   54.0430   11.2480 O.2    55  CYS55      -0.2864
     97  CB       142.8350   55.2990   13.2950 C.3    55  CYS55       0.0983
     98  SG       141.8730   54.3160   12.0860 S.3    55  CYS55      -0.0798
     99  N        148.1300   53.4820   11.9180 N.3    58  ALA58      -0.1245
    100  CA       147.9820   52.0340   12.0370 C.3    58  ALA58       0.1562
    101  C        147.5950   51.4030   10.7020 C.2    58  ALA58       0.2260
    102  O        148.0510   50.3020   10.3680 O.2    58  ALA58      -0.2867
    103  CB       146.9540   51.6960   13.1160 C.3    58  ALA58       0.0290
    104  N        148.6380   47.8480    9.3000 N.3    62  PHE62      -0.1241
    105  CA       147.6340   46.7980    9.4310 C.3    62  PHE62       0.1605
    106  C        146.8390   46.6920    8.1340 C.2    62  PHE62       0.2264
    107  O        146.1680   47.6490    7.7310 O.2    62  PHE62      -0.2867
    108  CB       146.6890   47.0960   10.6020 C.3    62  PHE62       0.0534
    109  CG       147.2670   46.7590   11.9500 C.ar   62  PHE62      -0.0203
    110  CD1      148.1620   47.6180   12.5660 C.ar   62  PHE62      -0.0042
    111  CD2      146.9280   45.5760   12.5890 C.ar   62  PHE62      -0.0042
    112  CE1      148.7000   47.3120   13.7930 C.ar   62  PHE62      -0.0003
    113  CE2      147.4690   45.2620   13.8220 C.ar   62  PHE62      -0.0003
    114  CZ       148.3590   46.1290   14.4220 C.ar   62  PHE62      -0.0000
    115  N        142.1360   44.4610   10.7950 N.3    65  LEU65      -0.1245
    116  CA       142.1310   44.3670   12.2470 C.3    65  LEU65       0.1561
    117  C        140.6940   44.2590   12.7270 C.2    65  LEU65       0.2260
    118  O        139.8670   45.1050   12.3760 O.2    65  LEU65      -0.2867
    119  CB       142.8020   45.5930   12.8730 C.3    65  LEU65       0.0270
    120  CG       142.6930   45.7070   14.3880 C.3    65  LEU65       0.0019
    121  CD1      143.6470   44.7060   15.0580 C.3    65  LEU65       0.0001
    122  CD2      142.9540   47.1390   14.8260 C.3    65  LEU65       0.0001
    123  N        138.4480   43.3960   16.4800 N.3    67  VAL67      -0.1245
    124  CA       138.4160   43.0630   17.8960 C.3    67  VAL67       0.1561
    125  C        137.0370   42.5090   18.2070 C.2    67  VAL67       0.2260
    126  O        136.0530   42.8500   17.5480 O.2    67  VAL67      -0.2867
    127  CB       138.7380   44.2830   18.7690 C.3    67  VAL67       0.0252
    128  CG1      140.1300   44.8130   18.4250 C.3    67  VAL67       0.0019
    129  CG2      137.6910   45.3380   18.5540 C.3    67  VAL67       0.0019
    130  N        141.8810   40.4000   19.7720 N.3    90  SER90      -0.1217
    131  CA       142.2580   41.2510   18.6530 C.3    90  SER90       0.1889
    132  C        143.0000   40.3950   17.6420 C.2    90  SER90       0.2288
    133  O        143.8120   39.5460   18.0140 O.2    90  SER90      -0.2866
    134  CB       143.1360   42.4440   19.0860 C.3    90  SER90       0.2089
    135  OG       144.3890   41.9950   19.5760 O.3    90  SER90      -0.2183
    136  N        148.8310   39.6490   13.4960 N.3    99  TRP99      -0.1241
    137  CA       148.5500   40.1970   14.8110 C.3    99  TRP99       0.1605
    138  C        147.5280   39.3140   15.5050 C.2    99  TRP99       0.2264
    139  O        146.4670   39.0360   14.9470 O.2    99  TRP99      -0.2867
    140  CB       148.0150   41.6230   14.7200 C.3    99  TRP99       0.0550
    141  CG       147.6680   42.1760   16.0460 C.ar   99  TRP99       0.0003
    142  CD1      146.4710   42.0640   16.6960 C.ar   99  TRP99       0.0946
    143  CD2      148.5300   42.9280   16.9090 C.ar   99  TRP99       0.0152
    144  NE1      146.5400   42.7020   17.9110 N.ar   99  TRP99      -0.2442
    145  CE2      147.7900   43.2420   18.0640 C.ar   99  TRP99       0.0810
    146  CE3      149.8580   43.3660   16.8150 C.ar   99  TRP99       0.0012
    147  CZ2      148.3320   43.9710   19.1250 C.ar   99  TRP99       0.0191
    148  CZ3      150.3880   44.0900   17.8550 C.ar   99  TRP99       0.0001
    149  CH2      149.6260   44.3890   19.0000 C.ar   99  TRP99       0.0015
    150  N        139.3810   46.6570   27.5720 N.3   105  PHE105     -0.1241
    151  CA       138.9140   47.9990   27.2600 C.3   105  PHE105      0.1605
    152  C        137.9520   48.4280   28.3450 C.2   105  PHE105      0.2264
    153  O        137.0170   47.6920   28.6640 O.2   105  PHE105     -0.2867
    154  CB       138.1710   48.0690   25.9210 C.3   105  PHE105      0.0534
    155  CG       139.0500   48.2020   24.7160 C.ar  105  PHE105     -0.0203
    156  CD1      140.4150   48.2030   24.8180 C.ar  105  PHE105     -0.0042
    157  CD2      138.4760   48.3270   23.4530 C.ar  105  PHE105     -0.0042
    158  CE1      141.2060   48.3180   23.6800 C.ar  105  PHE105     -0.0003
    159  CE2      139.2630   48.4350   22.3160 C.ar  105  PHE105     -0.0003
    160  CZ       140.6350   48.4340   22.4390 C.ar  105  PHE105     -0.0000
    161  N        138.1660   56.4980   27.5780 N.3   119  ILE119     -0.1245
    162  CA       138.5470   55.1070   27.3350 C.3   119  ILE119      0.1561
    163  C        139.8640   54.8100   28.0300 C.2   119  ILE119      0.2260
    164  O        140.7900   55.6250   27.9840 O.2   119  ILE119     -0.2867
    165  CB       138.7130   54.7890   25.8310 C.3   119  ILE119      0.0252
    166  CG1      137.4560   55.1330   25.0500 C.3   119  ILE119      0.0019
    167  CG2      139.1000   53.3140   25.6510 C.3   119  ILE119      0.0019
    168  CD1      137.6580   55.1430   23.5480 C.3   119  ILE119      0.0001
    169  N        142.6380   51.5290   27.8570 N.3   121  ALA121     -0.1245
    170  CA       142.9480   50.2890   27.1660 C.3   121  ALA121      0.1562
    171  C        144.1770   49.6430   27.7830 C.2   121  ALA121      0.2260
    172  O        145.2320   50.2780   27.8980 O.2   121  ALA121     -0.2867
    173  CB       143.1680   50.5270   25.6630 C.3   121  ALA121      0.0290
    174  N        146.7470   46.7560   27.0320 N.3   123  PHE123     -0.1241
    175  CA       147.3020   45.8170   26.0730 C.3   123  PHE123      0.1605
    176  C        148.3560   44.9120   26.7080 C.2   123  PHE123      0.2264
    177  O        148.8570   45.1490   27.8120 O.2   123  PHE123     -0.2867
    178  CB       147.9030   46.5770   24.8890 C.3   123  PHE123      0.0534
    179  CG       146.8870   47.3540   24.1120 C.ar  123  PHE123     -0.0203
    180  CD1      145.9920   46.7030   23.2780 C.ar  123  PHE123     -0.0042
    181  CD2      146.8140   48.7310   24.2190 C.ar  123  PHE123     -0.0042
    182  CE1      145.0490   47.4130   22.5530 C.ar  123  PHE123     -0.0003
    183  CE2      145.8690   49.4500   23.4980 C.ar  123  PHE123     -0.0003
    184  CZ       144.9830   48.7860   22.6700 C.ar  123  PHE123     -0.0000
    185  N        153.1870   43.8730   22.2880 N.3   128  MET128     -0.1245
    186  CA       153.4300   45.0880   21.5140 C.3   128  MET128      0.1570
    187  C        154.9200   45.3100   21.2670 C.2   128  MET128      0.2261
    188  O        155.3140   45.7010   20.1620 O.2   128  MET128     -0.2867
    189  CB       152.8510   46.3150   22.2100 C.3   128  MET128      0.0387
    190  CG       151.3680   46.2440   22.5310 C.3   128  MET128      0.0595
    191  SD       150.8020   47.8180   23.2200 S.3   128  MET128     -0.1393
    192  CE       151.1520   48.9480   21.8690 C.3   128  MET128      0.0692
    193  N        156.0210   43.1210   18.5940 N.3   131  PHE131     -0.1241
    194  CA       155.4990   43.6050   17.3210 C.3   131  PHE131      0.1605
    195  C        156.2770   44.8160   16.8330 C.2   131  PHE131      0.2264
    196  O        156.5680   44.9360   15.6380 O.2   131  PHE131     -0.2867
    197  CB       154.0140   43.9560   17.4440 C.3   131  PHE131      0.0534
    198  CG       153.4050   44.4190   16.1480 C.ar  131  PHE131     -0.0203
    199  CD1      153.0540   43.4970   15.1660 C.ar  131  PHE131     -0.0042
    200  CD2      153.2110   45.7710   15.8960 C.ar  131  PHE131     -0.0042
    201  CE1      152.5050   43.9120   13.9590 C.ar  131  PHE131     -0.0003
    202  CE2      152.6600   46.1950   14.6870 C.ar  131  PHE131     -0.0003
    203  CZ       152.3100   45.2590   13.7200 C.ar  131  PHE131     -0.0000
@<TRIPOS>BOND
     1   107   106    2
     2   106   105    1
     3   104   105    1
     4   105   108    1
     5    27    26    2
     6    26    25    1
     7   102   101    2
     8   108   109    1
     9   101   100    1
    10   115   116    1
    11    31    33   ar
    12    31    29   ar
    13    28    25    1
    14    28    29    1
    15    96    95    2
    16    25    24    1
    17    33    34   ar
    18    29    30   ar
    19    95    94    1
    20    99   100    1
    21   109   110   ar
    22   109   111   ar
    23   100   103    1
    24    98    97    1
    25   116   117    1
    26   116   119    1
    27   118   117    2
    28   110   112   ar
    29   111   113   ar
    30    34    32   ar
    31   119   120    1
    32    30    32   ar
    33    94    97    1
    34    94    93    1
    35   136   137    1
    36   203   201   ar
    37   203   202   ar
    38   112   114   ar
    39   113   114   ar
    40   201   199   ar
    41    91    90    2
    42    15    14    2
    43    35    36    1
    44    93    90   am
    45    90    89    1
    46   120   122    1
    47   120   121    1
    48    41    39    1
    49    14    13    1
    50   202   200   ar
    51   140   137    1
    52   140   141    1
    53    88    89    1
    54   137   138    1
    55   139   138    2
    56    40    39    1
    57    40    42    1
    58    89    92    1
    59   199   198   ar
    60    36    39    1
    61    36    37    1
    62    12    13    1
    63   196   195    2
    64    13    16    1
    65    85    84    2
    66   200   198   ar
    67   141   142   ar
    68   141   143   ar
    69   198   197    1
    70    84    83    1
    71    37    38    2
    72   123   124    1
    73   142   144   ar
    74   146   143   ar
    75   146   148   ar
    76   195   194    1
    77   143   145   ar
    78    16    17    1
    79   194   197    1
    80   194   193    1
    81   126   125    2
    82    18    17   ar
    83    18    20   ar
    84    17    19   ar
    85   132   133    2
    86   132   131    1
    87    83    82    1
    88    83    86    1
    89   148   149   ar
    90   124   125    1
    91   124   127    1
    92   144   145   ar
    93    20    22   ar
    94   145   147   ar
    95    19    21   ar
    96     4     3    2
    97   128   127    1
    98    86    87    1
    99    22    21   ar
   100    22    23    1
   101   129   127    1
   102   131   134    1
   103   131   130    1
   104   149   147   ar
   105   134   135    1
   106     3     2    1
   107     2     1    1
   108     2     5    1
   109    43    44    1
   110    78    77    1
   111    78    79    2
   112    81    79    1
   113   188   187    2
   114    46    45    2
   115    77    76    1
   116    79    80    1
   117    10    11   ar
   118    10     8   ar
   119    47    44    1
   120    47    48    1
   121    11     9   ar
   122     8     6   ar
   123    52    51    1
   124     9     7   ar
   125     6     7   ar
   126     6     5    1
   127    70    68    1
   128    49    48    1
   129    49    50    1
   130    44    45    1
   131   187   186    1
   132   186   189    1
   133   186   185    1
   134    51    50    2
   135    51    53    1
   136    76    75    1
   137   192   191    1
   138    75    72    1
   139   189   190    1
   140   159   160   ar
   141   159   157   ar
   142    68    69    1
   143    68    67    2
   144   160   158   ar
   145   190   191    1
   146   182   184   ar
   147   182   180   ar
   148   184   183   ar
   149    73    72    1
   150    73    74    2
   151    72    71    1
   152    67    66    1
   153   180   179   ar
   154   157   155   ar
   155   183   181   ar
   156   168   166    1
   157   158   156   ar
   158    59    58    1
   159    58    55    1
   160   179   181   ar
   161   179   178    1
   162    66    65    1
   163   155   156   ar
   164   155   154    1
   165   178   175    1
   166   166   165    1
   167    65    64    1
   168    54    55    1
   169    55    56    1
   170    57    56    2
   171   167   165    1
   172   173   170    1
   173   165   162    1
   174   154   151    1
   175   175   176    1
   176   175   174    1
   177    64    61    1
   178   176   177    2
   179   170   171    1
   180   170   169    1
   181   151   150    1
   182   151   152    1
   183   162   161    1
   184   162   163    1
   185    60    61    1
   186    61    62    1
   187   171   172    2
   188   164   163    2
   189   152   153    2
   190    62    63    2
