@<TRIPOS>MOLECULE
tmp/5wqiA00.pdb
 219 207 0 0 0
SMALL
GASTEIGER

@<TRIPOS>ATOM
      1  N         31.1450   52.0780   19.9010 N.3    13  PHE13      -0.1241
      2  CA        32.5330   52.4910   19.7680 C.3    13  PHE13       0.1605
      3  C         33.3580   51.4100   19.0820 C.2    13  PHE13       0.2264
      4  O         34.1160   51.6910   18.1450 O.2    13  PHE13      -0.2867
      5  CB        33.1370   52.8250   21.1360 C.3    13  PHE13       0.0534
      6  CG        34.6000   53.1640   21.0600 C.ar   13  PHE13      -0.0203
      7  CD1       35.5640   52.1650   21.0450 C.ar   13  PHE13      -0.0042
      8  CD2       35.0060   54.4820   20.9460 C.ar   13  PHE13      -0.0042
      9  CE1       36.9080   52.4690   20.9460 C.ar   13  PHE13      -0.0003
     10  CE2       36.3660   54.8020   20.8500 C.ar   13  PHE13      -0.0003
     11  CZ        37.3150   53.7900   20.8570 C.ar   13  PHE13      -0.0000
     12  N         35.2830   51.5630   15.6280 N.3    17  TYR17      -0.1241
     13  CA        36.7110   51.2950   15.7150 C.3    17  TYR17       0.1605
     14  C         37.1550   50.2960   14.6560 C.2    17  TYR17       0.2264
     15  O         38.2180   50.4590   14.0390 O.2    17  TYR17      -0.2867
     16  CB        37.0130   50.7680   17.1140 C.3    17  TYR17       0.0534
     17  CG        38.4570   50.7350   17.5310 C.ar   17  TYR17      -0.0201
     18  CD1       39.2330   49.6070   17.3200 C.ar   17  TYR17      -0.0009
     19  CD2       39.0290   51.8130   18.1970 C.ar   17  TYR17      -0.0009
     20  CE1       40.5370   49.5570   17.7460 C.ar   17  TYR17       0.0417
     21  CE2       40.3320   51.7750   18.6220 C.ar   17  TYR17       0.0417
     22  CZ        41.0830   50.6450   18.3910 C.ar   17  TYR17       0.1957
     23  OH        42.3880   50.5970   18.8130 O.3    17  TYR17      -0.2866
     24  N         38.0620   51.3530   11.3100 N.3    20  PHE20      -0.1241
     25  CA        39.4590   51.7660   11.3220 C.3    20  PHE20       0.1605
     26  C         39.7790   52.8420   10.2770 C.2    20  PHE20       0.2264
     27  O         40.6670   52.6930    9.4350 O.2    20  PHE20      -0.2867
     28  CB        40.3690   50.5540   11.1490 C.3    20  PHE20       0.0534
     29  CG        41.7700   50.8020   11.5990 C.ar   20  PHE20      -0.0203
     30  CD1       42.0160   51.3320   12.8560 C.ar   20  PHE20      -0.0042
     31  CD2       42.8380   50.5100   10.7730 C.ar   20  PHE20      -0.0042
     32  CE1       43.3110   51.5680   13.2900 C.ar   20  PHE20      -0.0003
     33  CE2       44.1370   50.7390   11.1960 C.ar   20  PHE20      -0.0003
     34  CZ        44.3720   51.2720   12.4540 C.ar   20  PHE20      -0.0000
     35  N         37.0390   56.2790   14.0540 N.3    25  ILE25      -0.1245
     36  CA        37.5260   56.1200   15.4260 C.3    25  ILE25       0.1561
     37  C         37.2070   57.3230   16.3040 C.2    25  ILE25       0.2260
     38  O         37.3450   57.2350   17.5270 O.2    25  ILE25      -0.2867
     39  CB        39.0380   55.8230   15.4460 C.3    25  ILE25       0.0252
     40  CG1       39.8320   56.9890   14.8660 C.3    25  ILE25       0.0019
     41  CG2       39.3340   54.5090   14.6760 C.3    25  ILE25       0.0019
     42  CD1       40.6010   57.7780   15.8680 C.3    25  ILE25       0.0001
     43  N         33.0170   59.4900   20.1280 N.3    29  ARG29      -0.1245
     44  CA        33.7450   60.1730   21.1830 C.3    29  ARG29       0.1563
     45  C         33.2650   61.6160   21.3020 C.2    29  ARG29       0.2260
     46  O         32.8710   62.2350   20.3120 O.2    29  ARG29      -0.2867
     47  CB        35.2620   60.1230   20.8970 C.3    29  ARG29       0.0307
     48  CG        35.9250   58.7940   21.3390 C.3    29  ARG29       0.0489
     49  CD        37.4180   58.7410   20.9900 C.3    29  ARG29       0.2205
     50  NE        38.1700   59.8270   21.6210 N.pl3  29  ARG29      -0.0865
     51  CZ        39.4890   59.9820   21.5250 C.cat  29  ARG29       0.5346
     52  NH1       40.2030   59.1070   20.8370 N.pl3  29  ARG29       0.1354
     53  NH2       40.0940   61.0130   22.1220 N.pl3  29  ARG29       0.1354
     54  N         42.2420   59.9440   25.1880 N.3    35  SER35      -0.1202
     55  CA        42.4680   58.5090   25.1650 C.3    35  SER35       0.2020
     56  C         43.8010   58.2380   25.8390 C.2    35  SER35       0.2619
     57  O         44.8500   58.6680   25.3390 O.2    35  SER35      -0.2717
     58  CB        42.4610   57.9850   23.7270 C.3    35  SER35       0.2103
     59  OG        43.0200   56.6940   23.6510 O.3    35  SER35      -0.2182
     60  N         43.7520   57.5420   26.9680 N.am   36  HIS36      -0.1961
     61  CA        44.9240   57.2460   27.7820 C.3    36  HIS36       0.1787
     62  C         45.4310   55.8400   27.4880 C.2    36  HIS36       0.2620
     63  O         44.6440   54.9110   27.2940 O.2    36  HIS36      -0.2715
     64  CB        44.6090   57.3520   29.2720 C.3    36  HIS36       0.0785
     65  CG        44.2090   58.7190   29.7180 C.ar   36  HIS36       0.0821
     66  ND1       45.0450   59.8090   29.6100 N.ar   36  HIS36      -0.2267
     67  CD2       43.0660   59.1720   30.2880 C.ar   36  HIS36       0.1154
     68  CE1       44.4310   60.8760   30.0910 C.ar   36  HIS36       0.1986
     69  NE2       43.2300   60.5170   30.5090 N.ar   36  HIS36      -0.2212
     70  N         46.7450   55.6830   27.4690 N.am   37  ARG37      -0.1977
     71  CA        47.3630   54.3710   27.3740 C.3    37  ARG37       0.1597
     72  C         47.9950   54.0620   28.7240 C.2    37  ARG37       0.2287
     73  O         48.8420   54.8270   29.1980 O.2    37  ARG37      -0.2864
     74  CB        48.3950   54.3350   26.2460 C.3    37  ARG37       0.0334
     75  CG        48.2290   53.1560   25.3190 C.3    37  ARG37       0.0492
     76  CD        48.7580   53.4680   23.9390 C.3    37  ARG37       0.2205
     77  NE        50.1940   53.7240   23.9560 N.pl3  37  ARG37      -0.0865
     78  CZ        50.9390   53.8200   22.8600 C.cat  37  ARG37       0.5346
     79  NH1       50.3800   53.6740   21.6620 N.pl3  37  ARG37       0.1354
     80  NH2       52.2400   54.0560   22.9630 N.pl3  37  ARG37       0.1354
     81  N         46.0370   61.1160   24.1440 N.3    46  ARG46      -0.1245
     82  CA        45.7690   61.6240   22.8070 C.3    46  ARG46       0.1563
     83  C         44.3960   62.2660   22.7800 C.2    46  ARG46       0.2260
     84  O         43.4090   61.6470   23.1950 O.2    46  ARG46      -0.2867
     85  CB        45.8330   60.5110   21.7550 C.3    46  ARG46       0.0307
     86  CG        47.2430   60.0070   21.4720 C.3    46  ARG46       0.0489
     87  CD        47.2420   59.0280   20.3190 C.3    46  ARG46       0.2205
     88  NE        48.5910   58.5800   19.9830 N.pl3  46  ARG46      -0.0865
     89  CZ        49.2500   57.6270   20.6360 C.cat  46  ARG46       0.5346
     90  NH1       48.6940   57.0220   21.6770 N.pl3  46  ARG46       0.1354
     91  NH2       50.4720   57.2870   20.2510 N.pl3  46  ARG46       0.1354
     92  N         44.4100   61.4340   17.9580 N.3    51  SER51      -0.1217
     93  CA        43.8690   60.1010   17.6890 C.3    51  SER51       0.1889
     94  C         43.7200   59.8560   16.1950 C.2    51  SER51       0.2288
     95  O         44.0760   58.7810   15.7030 O.2    51  SER51      -0.2866
     96  CB        42.5210   59.9140   18.3890 C.3    51  SER51       0.2089
     97  OG        42.6800   59.7730   19.7930 O.3    51  SER51      -0.2183
     98  N         47.1620   59.3760   14.8440 N.3    54  ALA54      -0.1231
     99  CA        47.6620   58.0440   15.1790 C.3    54  ALA54       0.1694
    100  C         47.0080   56.9770   14.3140 C.2    54  ALA54       0.2592
    101  O         47.6800   56.0490   13.8470 O.2    54  ALA54      -0.2718
    102  CB        47.4390   57.7480   16.6640 C.3    54  ALA54       0.0304
    103  N         45.6970   57.0920   14.0770 N.am   55  CYS55      -0.1970
    104  CA        45.0180   56.1280   13.2180 C.3    55  CYS55       0.1712
    105  C         45.5980   56.1460   11.8080 C.2    55  CYS55       0.2296
    106  O         45.8490   55.0910   11.2140 O.2    55  CYS55      -0.2864
    107  CB        43.5090   56.4080   13.1790 C.3    55  CYS55       0.0983
    108  SG        42.5490   55.3050   12.0790 S.3    55  CYS55      -0.0798
    109  N         48.9360   54.4380   11.9280 N.3    58  ALA58      -0.1245
    110  CA        48.7550   52.9940   12.0470 C.3    58  ALA58       0.1562
    111  C         48.3430   52.3710   10.7160 C.2    58  ALA58       0.2260
    112  O         48.7850   51.2650   10.3780 O.2    58  ALA58      -0.2867
    113  CB        47.7220   52.6810   13.1310 C.3    58  ALA58       0.0290
    114  N         49.3150   48.7950    9.3090 N.3    62  PHE62      -0.1241
    115  CA        48.3000   47.7540    9.4120 C.3    62  PHE62       0.1605
    116  C         47.4960   47.6800    8.1200 C.2    62  PHE62       0.2264
    117  O         46.8280   48.6480    7.7450 O.2    62  PHE62      -0.2867
    118  CB        47.3560   48.0430   10.5820 C.3    62  PHE62       0.0534
    119  CG        47.9300   47.7100   11.9270 C.ar   62  PHE62      -0.0203
    120  CD1       48.8170   48.5670   12.5530 C.ar   62  PHE62      -0.0042
    121  CD2       47.5730   46.5310   12.5660 C.ar   62  PHE62      -0.0042
    122  CE1       49.3520   48.2520   13.8180 C.ar   62  PHE62      -0.0003
    123  CE2       48.0940   46.2090   13.8100 C.ar   62  PHE62      -0.0003
    124  CZ        48.9870   47.0740   14.4400 C.ar   62  PHE62      -0.0000
    125  N         42.7760   45.5780   10.7660 N.3    65  LEU65      -0.1245
    126  CA        42.8010   45.4930   12.2150 C.3    65  LEU65       0.1561
    127  C         41.3740   45.3680   12.7220 C.2    65  LEU65       0.2260
    128  O         40.5140   46.1790   12.3640 O.2    65  LEU65      -0.2867
    129  CB        43.4720   46.7230   12.8250 C.3    65  LEU65       0.0270
    130  CG        43.4470   46.7340   14.3440 C.3    65  LEU65       0.0019
    131  CD1       44.3910   45.6470   14.8650 C.3    65  LEU65       0.0001
    132  CD2       43.8260   48.1140   14.8480 C.3    65  LEU65       0.0001
    133  N         39.1450   44.3830   16.4730 N.3    67  VAL67      -0.1245
    134  CA        39.0980   44.0410   17.8860 C.3    67  VAL67       0.1561
    135  C         37.7400   43.4250   18.1740 C.2    67  VAL67       0.2260
    136  O         36.7410   43.7230   17.5090 O.2    67  VAL67      -0.2867
    137  CB        39.3480   45.2490   18.8170 C.3    67  VAL67       0.0252
    138  CG1       40.7320   45.8520   18.5660 C.3    67  VAL67       0.0019
    139  CG2       38.2640   46.2810   18.6440 C.3    67  VAL67       0.0019
    140  N         42.5980   41.4440   19.7340 N.3    90  SER90      -0.1217
    141  CA        42.9510   42.2820   18.5950 C.3    90  SER90       0.1889
    142  C         43.7140   41.4480   17.5770 C.2    90  SER90       0.2288
    143  O         44.6080   40.6760   17.9410 O.2    90  SER90      -0.2866
    144  CB        43.7830   43.4920   19.0200 C.3    90  SER90       0.2089
    145  OG        44.9640   43.0880   19.6850 O.3    90  SER90      -0.2183
    146  N         49.5500   40.6290   13.4380 N.3    99  TRP99      -0.1241
    147  CA        49.2970   41.1860   14.7590 C.3    99  TRP99       0.1605
    148  C         48.2480   40.3300   15.4550 C.2    99  TRP99       0.2264
    149  O         47.1640   40.1080   14.9090 O.2    99  TRP99      -0.2867
    150  CB        48.8160   42.6410   14.6830 C.3    99  TRP99       0.0550
    151  CG        48.4180   43.1770   16.0360 C.ar   99  TRP99       0.0003
    152  CD1       47.2130   43.0180   16.6510 C.ar   99  TRP99       0.0946
    153  CD2       49.2350   43.9300   16.9350 C.ar   99  TRP99       0.0152
    154  NE1       47.2220   43.6320   17.8770 N.ar   99  TRP99      -0.2442
    155  CE2       48.4550   44.1960   18.0800 C.ar   99  TRP99       0.0810
    156  CE3       50.5570   44.3980   16.8880 C.ar   99  TRP99       0.0012
    157  CZ2       48.9460   44.9120   19.1720 C.ar   99  TRP99       0.0191
    158  CZ3       51.0430   45.1150   17.9650 C.ar   99  TRP99       0.0001
    159  CH2       50.2380   45.3660   19.0980 C.ar   99  TRP99       0.0015
    160  N         43.7700   43.0760   24.8500 N.3   103  CYS103     -0.1235
    161  CA        43.8780   44.3500   25.5420 C.3   103  CYS103      0.1677
    162  C         42.6290   44.5980   26.3800 C.2   103  CYS103      0.2270
    163  O         41.5840   43.9730   26.1890 O.2   103  CYS103     -0.2867
    164  CB        44.1080   45.4930   24.5540 C.3   103  CYS103      0.0956
    165  SG        42.8610   45.5900   23.2550 S.3   103  CYS103     -0.0801
    166  N         40.0830   47.6560   27.5320 N.3   105  PHE105     -0.1241
    167  CA        39.6120   49.0160   27.2880 C.3   105  PHE105      0.1605
    168  C         38.6570   49.3980   28.4010 C.2   105  PHE105      0.2264
    169  O         37.7300   48.6430   28.7030 O.2   105  PHE105     -0.2867
    170  CB        38.8580   49.1650   25.9630 C.3   105  PHE105      0.0534
    171  CG        39.7200   49.1900   24.7360 C.ar  105  PHE105     -0.0203
    172  CD1       41.0860   49.1980   24.8150 C.ar  105  PHE105     -0.0042
    173  CD2       39.1180   49.1840   23.4670 C.ar  105  PHE105     -0.0042
    174  CE1       41.8640   49.2050   23.6600 C.ar  105  PHE105     -0.0003
    175  CE2       39.8900   49.1960   22.3090 C.ar  105  PHE105     -0.0003
    176  CZ        41.2650   49.2100   22.4100 C.ar  105  PHE105     -0.0000
    177  N         38.8620   57.3920   27.4980 N.3   119  ILE119     -0.1245
    178  CA        39.2800   56.0120   27.2660 C.3   119  ILE119      0.1561
    179  C         40.5960   55.7500   27.9800 C.2   119  ILE119      0.2260
    180  O         41.5160   56.5740   27.9190 O.2   119  ILE119     -0.2867
    181  CB        39.4700   55.7040   25.7660 C.3   119  ILE119      0.0252
    182  CG1       38.2320   56.0740   24.9690 C.3   119  ILE119      0.0019
    183  CG2       39.8270   54.2290   25.5750 C.3   119  ILE119      0.0019
    184  CD1       38.4720   56.1210   23.4610 C.3   119  ILE119      0.0001
    185  N         43.4070   52.4470   27.8830 N.3   121  ALA121     -0.1245
    186  CA        43.6870   51.2120   27.1640 C.3   121  ALA121      0.1562
    187  C         44.9260   50.5550   27.7370 C.2   121  ALA121      0.2260
    188  O         45.9850   51.1830   27.8060 O.2   121  ALA121     -0.2867
    189  CB        43.8970   51.4640   25.6670 C.3   121  ALA121      0.0290
    190  N         47.4990   47.6830   27.0180 N.3   123  PHE123     -0.1241
    191  CA        48.0220   46.7420   26.0410 C.3   123  PHE123      0.1605
    192  C         49.0870   45.8460   26.6690 C.2   123  PHE123      0.2264
    193  O         49.6040   46.1130   27.7540 O.2   123  PHE123     -0.2867
    194  CB        48.6090   47.4870   24.8360 C.3   123  PHE123      0.0534
    195  CG        47.5930   48.3100   24.0760 C.ar  123  PHE123     -0.0203
    196  CD1       47.6240   49.6920   24.1320 C.ar  123  PHE123     -0.0042
    197  CD2       46.6150   47.7020   23.3210 C.ar  123  PHE123     -0.0042
    198  CE1       46.7060   50.4620   23.4360 C.ar  123  PHE123     -0.0003
    199  CE2       45.6820   48.4680   22.6260 C.ar  123  PHE123     -0.0003
    200  CZ        45.7300   49.8470   22.6890 C.ar  123  PHE123     -0.0000
    201  N         53.9140   44.8460   22.2500 N.3   128  MET128     -0.1245
    202  CA        54.1290   46.0890   21.5140 C.3   128  MET128      0.1570
    203  C         55.6070   46.3220   21.2440 C.2   128  MET128      0.2261
    204  O         55.9800   46.7490   20.1450 O.2   128  MET128     -0.2867
    205  CB        53.5570   47.2800   22.2800 C.3   128  MET128      0.0387
    206  CG        52.0500   47.2700   22.4410 C.3   128  MET128      0.0595
    207  SD        51.4920   48.7790   23.2410 S.3   128  MET128     -0.1393
    208  CE        51.7500   49.9920   21.9460 C.3   128  MET128      0.0692
    209  N         56.6740   44.0660   18.4540 N.3   131  PHE131     -0.1241
    210  CA        56.1580   44.5760   17.1880 C.3   131  PHE131      0.1605
    211  C         56.9640   45.7720   16.6980 C.2   131  PHE131      0.2264
    212  O         57.2660   45.8810   15.4980 O.2   131  PHE131     -0.2867
    213  CB        54.6880   44.9580   17.3460 C.3   131  PHE131      0.0534
    214  CG        54.0600   45.3990   16.0620 C.ar  131  PHE131     -0.0203
    215  CD1       53.7260   44.4690   15.0990 C.ar  131  PHE131     -0.0042
    216  CD2       53.8410   46.7420   15.8060 C.ar  131  PHE131     -0.0042
    217  CE1       53.1570   44.8660   13.8980 C.ar  131  PHE131     -0.0003
    218  CE2       53.2870   47.1530   14.5990 C.ar  131  PHE131     -0.0003
    219  CZ        52.9410   46.2110   13.6500 C.ar  131  PHE131     -0.0000
@<TRIPOS>BOND
     1   117   116    2
     2   116   115    1
     3   114   115    1
     4   115   118    1
     5    27    26    2
     6    26    25    1
     7   112   111    2
     8   118   119    1
     9   111   110    1
    10   125   126    1
    11    31    33   ar
    12    31    29   ar
    13    28    25    1
    14    28    29    1
    15    33    34   ar
    16   106   105    2
    17    24    25    1
    18    29    30   ar
    19   105   104    1
    20   119   120   ar
    21   119   121   ar
    22   109   110    1
    23   110   113    1
    24   108   107    1
    25   126   127    1
    26   126   129    1
    27   128   127    2
    28    34    32   ar
    29   120   122   ar
    30   121   123   ar
    31   129   130    1
    32    30    32   ar
    33   107   104    1
    34   104   103    1
    35   146   147    1
    36   219   217   ar
    37   219   218   ar
    38   123   124   ar
    39   122   124   ar
    40   101   100    2
    41   217   215   ar
    42    15    14    2
    43    35    36    1
    44   103   100   am
    45   100    99    1
    46   130   132    1
    47   130   131    1
    48   218   216   ar
    49    14    13    1
    50    41    39    1
    51   150   147    1
    52   150   151    1
    53   147   148    1
    54    98    99    1
    55    40    39    1
    56    40    42    1
    57   149   148    2
    58   215   214   ar
    59    99   102    1
    60    36    39    1
    61    36    37    1
    62   212   211    2
    63    12    13    1
    64    95    94    2
    65    13    16    1
    66   216   214   ar
    67   151   152   ar
    68   151   153   ar
    69   214   213    1
    70    94    93    1
    71    37    38    2
    72   133   134    1
    73   152   154   ar
    74   211   210    1
    75   156   153   ar
    76   156   158   ar
    77   153   155   ar
    78    16    17    1
    79   210   213    1
    80   210   209    1
    81    18    17   ar
    82    18    20   ar
    83   136   135    2
    84    17    19   ar
    85   142   143    2
    86   142   141    1
    87    93    92    1
    88    93    96    1
    89    20    22   ar
    90   154   155   ar
    91   134   135    1
    92   134   137    1
    93   158   159   ar
    94   155   157   ar
    95     4     3    2
    96    19    21   ar
    97    96    97    1
    98    22    21   ar
    99    22    23    1
   100   138   137    1
   101   141   144    1
   102   141   140    1
   103   139   137    1
   104   144   145    1
   105     3     2    1
   106   159   157   ar
   107     2     1    1
   108     2     5    1
   109    88    87    1
   110    88    89    2
   111    43    44    1
   112   204   203    2
   113    91    89    1
   114    46    45    2
   115    87    86    1
   116    89    90    1
   117    52    51    1
   118    10    11   ar
   119    10     8   ar
   120    11     9   ar
   121    47    44    1
   122    47    48    1
   123     8     6   ar
   124     9     7   ar
   125    49    48    1
   126    49    50    1
   127     7     6   ar
   128     6     5    1
   129    44    45    1
   130   203   202    1
   131    86    85    1
   132   202   201    1
   133   202   205    1
   134    51    50    2
   135    51    53    1
   136    79    78    1
   137    85    82    1
   138   208   207    1
   139   205   206    1
   140   175   176   ar
   141   175   173   ar
   142   176   174   ar
   143   206   207    1
   144   199   200   ar
   145   199   197   ar
   146   200   198   ar
   147    83    82    1
   148    83    84    2
   149    82    81    1
   150    78    80    1
   151    78    77    2
   152   165   164    1
   153   197   195   ar
   154   198   196   ar
   155   184   182    1
   156   173   171   ar
   157    59    58    1
   158   174   172   ar
   159    58    55    1
   160    76    77    1
   161    76    75    1
   162   195   196   ar
   163   195   194    1
   164   164   161    1
   165   171   172   ar
   166   171   170    1
   167   194   191    1
   168   160   161    1
   169   182   181    1
   170    55    54    1
   171    55    56    1
   172    75    74    1
   173    57    56    2
   174   161   162    1
   175   183   181    1
   176   189   186    1
   177   181   178    1
   178    56    60   am
   179   170   167    1
   180   191   192    1
   181   191   190    1
   182   163   162    2
   183    74    71    1
   184   192   193    2
   185    60    61    1
   186   186   187    1
   187   186   185    1
   188   178   177    1
   189   178   179    1
   190   167   166    1
   191   167   168    1
   192    63    62    2
   193    71    70    1
   194    71    72    1
   195    70    62   am
   196    62    61    1
   197   187   188    2
   198    61    64    1
   199   180   179    2
   200   168   169    2
   201    72    73    2
   202    64    65    1
   203    66    65   ar
   204    66    68   ar
   205    65    67   ar
   206    68    69   ar
   207    67    69   ar
