@<TRIPOS>MOLECULE
tmp/5wqjA00.pdb
 164 159 0 0 0
SMALL
GASTEIGER

@<TRIPOS>ATOM
      1  N          8.1830    0.4070   16.4860 N.3    28  TRP28      -0.1241
      2  CA         9.0270    1.4790   17.0500 C.3    28  TRP28       0.1605
      3  C          9.9280    0.8200   18.0710 C.2    28  TRP28       0.2264
      4  O          9.4730   -0.0280   18.8170 O.2    28  TRP28      -0.2867
      5  CB         8.1930    2.6250   17.6990 C.3    28  TRP28       0.0550
      6  CG         8.9810    3.8510   18.1130 C.ar   28  TRP28       0.0003
      7  CD1        9.1190    4.9690   17.3900 C.ar   28  TRP28       0.0946
      8  CD2        9.7970    4.0150   19.2690 C.ar   28  TRP28       0.0152
      9  NE1        9.9420    5.8580   18.0280 N.ar   28  TRP28      -0.2442
     10  CE2       10.3270    5.3090   19.2100 C.ar   28  TRP28       0.0810
     11  CE3       10.0530    3.2370   20.3920 C.ar   28  TRP28       0.0012
     12  CZ2       11.1790    5.8180   20.1820 C.ar   28  TRP28       0.0191
     13  CZ3       10.8560    3.7870   21.3950 C.ar   28  TRP28       0.0001
     14  CH2       11.4240    5.0520   21.2430 C.ar   28  TRP28       0.0015
     15  N         13.4040    1.2710   20.8390 N.3    30  LEU30      -0.1231
     16  CA        14.3610    2.1350   21.5500 C.3    30  LEU30       0.1678
     17  C         15.7140    2.1270   20.8250 C.2    30  LEU30       0.2434
     18  O         16.1140    1.0980   20.2110 O.2    30  LEU30      -0.2733
     19  CB        14.5520    1.6630   22.9670 C.3    30  LEU30       0.0284
     20  CG        13.3540    1.8620   23.9040 C.3    30  LEU30       0.0019
     21  CD1       13.4940    0.9510   25.0980 C.3    30  LEU30       0.0001
     22  CD2       13.1700    3.3230   24.3130 C.3    30  LEU30       0.0001
     23  N         16.4050    3.2760   20.8100 N.am   31  PRO31      -0.2729
     24  CA        17.6610    3.3480   20.0570 C.3    31  PRO31       0.1401
     25  C         18.6550    2.2190   20.2640 C.2    31  PRO31       0.2269
     26  O         19.2850    1.7740   19.3020 O.2    31  PRO31      -0.2865
     27  CB        18.2470    4.6470   20.5340 C.3    31  PRO31       0.0296
     28  CG        17.1260    5.4840   20.9790 C.3    31  PRO31       0.0237
     29  CD        16.0730    4.5440   21.4720 C.3    31  PRO31       0.0939
     30  N          6.0510    8.4720   16.1190 N.3    55  ASP55      -0.1239
     31  CA         6.5760    9.8500   16.2940 C.3    55  ASP55       0.1674
     32  C          5.7850   10.8570   15.4650 C.2    55  ASP55       0.2266
     33  O          5.9380   12.0680   15.7270 O.2    55  ASP55      -0.2867
     34  CB         8.0660    9.8570   15.9280 C.3    55  ASP55       0.1410
     35  CG         8.9050    9.0950   16.9020 C.2    55  ASP55       0.3668
     36  OD1        8.5710    9.1120   18.1330 O.co2  55  ASP55      -0.2456
     37  OD2        9.9310    8.4820   16.4740 O.co2  55  ASP55      -0.2456
     38  N          7.8750   11.8040   27.0170 N.3    65  ASP65      -0.1225
     39  CA         8.0100   10.9240   25.8850 C.3    65  ASP65       0.1805
     40  C          6.6470   10.3530   25.4980 C.2    65  ASP65       0.2597
     41  O          5.7580   10.0210   26.3100 O.2    65  ASP65      -0.2718
     42  CB         9.0380    9.8080   26.1800 C.3    65  ASP65       0.1424
     43  CG        10.4670   10.2870   26.2600 C.2    65  ASP65       0.3668
     44  OD1       10.7790   11.3310   25.6340 O.co2  65  ASP65      -0.2456
     45  OD2       11.2780    9.6270   26.9470 O.co2  65  ASP65      -0.2456
     46  N          6.5330   10.1220   24.1890 N.am   66  HIS66      -0.1975
     47  CA         5.3630    9.4890   23.5700 C.3    66  HIS66       0.1656
     48  C          4.0300    9.9610   24.1550 C.2    66  HIS66       0.2291
     49  O          3.1970    9.1790   24.5960 O.2    66  HIS66      -0.2864
     50  CB         5.5070    7.9580   23.6070 C.3    66  HIS66       0.0771
     51  CG         6.6300    7.4470   22.7970 C.ar   66  HIS66       0.0820
     52  ND1        6.6700    7.6480   21.4260 N.ar   66  HIS66      -0.2267
     53  CD2        7.8000    6.9120   23.1700 C.ar   66  HIS66       0.1154
     54  CE1        7.8080    7.1370   20.9870 C.ar   66  HIS66       0.1986
     55  NE2        8.5010    6.6590   22.0140 N.ar   66  HIS66      -0.2212
     56  N          4.4910   -5.1590   20.7920 N.3   100  TYR100     -0.1227
     57  CA         5.3660   -4.2830   21.5820 C.3   100  TYR100      0.1736
     58  C          4.8460   -2.8620   21.6140 C.2   100  TYR100      0.2596
     59  O          4.3280   -2.4140   22.6320 O.2   100  TYR100     -0.2718
     60  CB         6.8080   -4.3250   21.0360 C.3   100  TYR100      0.0548
     61  CG         7.8350   -3.5020   21.7850 C.ar  100  TYR100     -0.0200
     62  CD1        8.1180   -3.7670   23.0690 C.ar  100  TYR100     -0.0009
     63  CD2        8.5320   -2.4750   21.1420 C.ar  100  TYR100     -0.0009
     64  CE1        9.1330   -3.0920   23.7410 C.ar  100  TYR100      0.0417
     65  CE2        9.5170   -1.7490   21.7750 C.ar  100  TYR100      0.0417
     66  CZ         9.8420   -2.0900   23.0660 C.ar  100  TYR100      0.1957
     67  OH        10.8680   -1.3850   23.6740 O.3   100  TYR100     -0.2866
     68  N          4.9480   -2.1920   20.4770 N.am  101  SER101     -0.1952
     69  CA         4.3800   -0.8510   20.3040 C.3   101  SER101      0.1924
     70  C          2.9930   -0.8110   19.6550 C.2   101  SER101      0.2314
     71  O          2.3210    0.1940   19.8270 O.2   101  SER101     -0.2863
     72  CB         5.3690   -0.0230   19.4990 C.3   101  SER101      0.2116
     73  OG         5.6650   -0.6850   18.2660 O.3   101  SER101     -0.2180
     74  N          6.6650   -2.1650   32.8250 N.3   176  ARG176     -0.1245
     75  CA         8.1090   -2.2520   32.5720 C.3   176  ARG176      0.1563
     76  C          8.7180   -3.5950   33.0270 C.2   176  ARG176      0.2260
     77  O          8.2060   -4.2560   33.9220 O.2   176  ARG176     -0.2867
     78  CB         8.8780   -1.1090   33.2450 C.3   176  ARG176      0.0307
     79  CG         8.7490    0.2380   32.5550 C.3   176  ARG176      0.0489
     80  CD         9.3800    1.3790   33.3490 C.3   176  ARG176      0.2205
     81  NE         8.7620    1.4780   34.6670 N.pl3 176  ARG176     -0.0865
     82  CZ         9.3870    1.8130   35.7870 C.cat 176  ARG176      0.5346
     83  NH1       10.6940    2.1480   35.8160 N.pl3 176  ARG176      0.1354
     84  NH2        8.7090    1.8190   36.8970 N.pl3 176  ARG176      0.1354
     85  N         13.8170   -2.7580   35.8010 N.3   180  ARG180     -0.1245
     86  CA        13.5330   -1.3200   35.7700 C.3   180  ARG180      0.1563
     87  C         12.5860   -0.9330   36.9070 C.2   180  ARG180      0.2260
     88  O         12.8420    0.0640   37.6090 O.2   180  ARG180     -0.2867
     89  CB        12.9340   -0.9410   34.3820 C.3   180  ARG180      0.0307
     90  CG        13.9920   -0.9580   33.2620 C.3   180  ARG180      0.0489
     91  CD        13.4300   -0.7990   31.8790 C.3   180  ARG180      0.2205
     92  NE        12.8130    0.5020   31.7330 N.pl3 180  ARG180     -0.0865
     93  CZ        12.0920    0.8100   30.6710 C.cat 180  ARG180      0.5346
     94  NH1       11.9370   -0.0510   29.7030 N.pl3 180  ARG180      0.1354
     95  NH2       11.5580    2.0020   30.5830 N.pl3 180  ARG180      0.1354
     96  N         17.0660    2.9050   33.0070 N.3   187  GLU187     -0.1231
     97  CA        16.0890    3.4910   32.1290 C.3   187  GLU187      0.1684
     98  C         16.7590    3.9970   30.8550 C.2   187  GLU187      0.2434
     99  O         17.8480    4.6220   30.8760 O.2   187  GLU187     -0.2733
    100  CB        15.3890    4.6520   32.8440 C.3   187  GLU187      0.0402
    101  CG        14.4340    4.1780   33.8980 C.3   187  GLU187      0.1161
    102  CD        13.2080    3.5020   33.2960 C.2   187  GLU187      0.3649
    103  OE1       12.6960    3.9610   32.2330 O.co2 187  GLU187     -0.2457
    104  OE2       12.7660    2.4500   33.8610 O.co2 187  GLU187     -0.2457
    105  N         16.1010    3.7480   29.7050 N.am  188  PRO188     -0.2718
    106  CA        16.7870    4.0560   28.4580 C.3   188  PRO188      0.1535
    107  C         17.0360    5.5650   28.2610 C.2   188  PRO188      0.2598
    108  O         17.9960    5.9910   27.6010 O.2   188  PRO188     -0.2715
    109  CB        15.8810    3.4430   27.3800 C.3   188  PRO188      0.0310
    110  CG        14.5870    3.1250   28.0430 C.3   188  PRO188      0.0237
    111  CD        14.8440    3.0090   29.5080 C.3   188  PRO188      0.0939
    112  N         16.2050    6.3970   28.8870 N.am  189  ARG189     -0.1978
    113  CA        16.2940    7.8180   28.7500 C.3   189  ARG189      0.1597
    114  C         17.4260    8.3400   29.6610 C.2   189  ARG189      0.2287
    115  O         17.4860    8.0410   30.8320 O.2   189  ARG189     -0.2864
    116  CB        14.9000    8.3430   29.0800 C.3   189  ARG189      0.0334
    117  CG        14.5700    9.7970   28.7940 C.3   189  ARG189      0.0492
    118  CD        15.0330   10.2820   27.4410 C.3   189  ARG189      0.2205
    119  NE        14.0000   10.3760   26.4470 N.pl3 189  ARG189     -0.0865
    120  CZ        14.2470   10.7760   25.2090 C.cat 189  ARG189      0.5346
    121  NH1       13.2690   10.9090   24.3640 N.pl3 189  ARG189      0.1354
    122  NH2       15.4930   11.0370   24.8030 N.pl3 189  ARG189      0.1354
    123  N          5.1550   -6.4020   30.6230 N.3   205  PHE205     -0.1241
    124  CA         4.2210   -6.6240   29.5110 C.3   205  PHE205      0.1605
    125  C          4.3880   -8.0320   28.9170 C.2   205  PHE205      0.2264
    126  O          3.4380   -8.5720   28.3500 O.2   205  PHE205     -0.2867
    127  CB         4.3040   -5.5220   28.4370 C.3   205  PHE205      0.0534
    128  CG         5.5720   -5.5590   27.6000 C.ar  205  PHE205     -0.0203
    129  CD1        6.7630   -4.9640   28.0270 C.ar  205  PHE205     -0.0042
    130  CD2        5.6060   -6.2890   26.3980 C.ar  205  PHE205     -0.0042
    131  CE1        7.8810   -4.9860   27.2450 C.ar  205  PHE205     -0.0003
    132  CE2        6.7710   -6.3670   25.6550 C.ar  205  PHE205     -0.0003
    133  CZ         7.9160   -5.7430   26.1020 C.ar  205  PHE205     -0.0000
    134  N          7.2490    2.9590   30.9280 N.3   240  GLY240     -0.1210
    135  CA         8.2630    3.9950   30.7220 C.3   240  GLY240      0.1956
    136  C          7.7650    5.3030   30.1570 C.2   240  GLY240      0.2612
    137  O          8.0190    6.3510   30.7390 O.2   240  GLY240     -0.2717
    138  N          6.9620    5.1900   29.0910 N.am  241  SER241     -0.1952
    139  CA         6.4380    6.3780   28.4090 C.3   241  SER241      0.1924
    140  C          5.0030    6.2920   27.9310 C.2   241  SER241      0.2314
    141  O          4.5780    7.1120   27.1300 O.2   241  SER241     -0.2863
    142  CB         7.2890    6.8200   27.2350 C.3   241  SER241      0.2116
    143  OG         7.3780    5.8320   26.2720 O.3   241  SER241     -0.2180
    144  N          3.6890    3.5040   26.3630 N.3   243  VAL243     -0.1231
    145  CA         3.5550    2.6010   25.1970 C.3   243  VAL243      0.1692
    146  C          3.2060    1.1610   25.6420 C.2   243  VAL243      0.2592
    147  O          2.1060    0.6920   25.3670 O.2   243  VAL243     -0.2718
    148  CB         4.8400    2.6560   24.3450 C.3   243  VAL243      0.0266
    149  CG1        4.7110    1.7190   23.1960 C.3   243  VAL243      0.0020
    150  CG2        5.0360    4.0570   23.8120 C.3   243  VAL243      0.0020
    151  N          4.1120    0.5000   26.3630 N.am  244  THR244     -0.1953
    152  CA         3.8530   -0.8740   26.7480 C.3   244  THR244      0.1897
    153  C          2.7480   -0.9820   27.8130 C.2   244  THR244      0.2313
    154  O          2.2350   -2.0650   28.0230 O.2   244  THR244     -0.2863
    155  CB         5.1320   -1.6240   27.1760 C.3   244  THR244      0.1794
    156  OG1        5.6790   -1.0270   28.3260 O.3   244  THR244     -0.2208
    157  CG2        6.1220   -1.6870   26.0580 C.3   244  THR244      0.0378
    158  N          8.8480    8.3540   32.8520 N.3   268  VAL268     -0.1245
    159  CA         9.6420    9.5280   32.4760 C.3   268  VAL268      0.1561
    160  C          9.1170   10.8080   33.1190 C.2   268  VAL268      0.2260
    161  O          9.8900   11.4940   33.8110 O.2   268  VAL268     -0.2867
    162  CB         9.7650    9.6760   30.9420 C.3   268  VAL268      0.0252
    163  CG1       10.3710   10.9880   30.5570 C.3   268  VAL268      0.0019
    164  CG2       10.5410    8.5370   30.3280 C.3   268  VAL268      0.0019
@<TRIPOS>BOND
     1    32    33    2
     2    32    31    1
     3    34    31    1
     4    34    35    1
     5    30    31    1
     6    37    35   ar
     7     1     2    1
     8    35    36   ar
     9     2     5    1
    10     2     3    1
    11     7     9   ar
    12     7     6   ar
    13     5     6    1
    14     9    10   ar
    15     3     4    2
    16     6     8   ar
    17    73    72    1
    18    10     8   ar
    19    10    12   ar
    20     8    11   ar
    21    26    25    2
    22    72    69    1
    23    70    71    2
    24    70    69    1
    25    24    25    1
    26    24    27    1
    27    24    23    1
    28    12    14   ar
    29    18    17    2
    30    69    68    1
    31    11    13   ar
    32    68    58   am
    33    27    28    1
    34    56    57    1
    35    23    17   am
    36    23    29    1
    37    17    16    1
    38    15    16    1
    39    28    29    1
    40    54    52   ar
    41    54    55   ar
    42    60    57    1
    43    60    61    1
    44    63    65   ar
    45    63    61   ar
    46    14    13   ar
    47    52    51   ar
    48    16    19    1
    49    57    58    1
    50    58    59    2
    51    65    66   ar
    52    61    62   ar
    53    55    53   ar
    54    51    53   ar
    55    51    50    1
    56    19    20    1
    57    66    67    1
    58    66    64   ar
    59    62    64   ar
    60   149   148    1
    61    47    50    1
    62    47    48    1
    63    47    46    1
    64   150   148    1
    65    20    22    1
    66    20    21    1
    67    48    49    2
    68    46    40   am
    69   148   145    1
    70   121   120    1
    71   122   120    1
    72   145   146    1
    73   145   144    1
    74   120   119    2
    75   147   146    2
    76    40    39    1
    77    40    41    2
    78    44    43   ar
    79   146   151   am
    80   132   133   ar
    81   132   130   ar
    82    39    42    1
    83    39    38    1
    84   157   155    1
    85   133   131   ar
    86    42    43    1
    87    43    45   ar
    88   143   142    1
    89   151   152    1
    90   130   128   ar
    91   119   118    1
    92   152   155    1
    93   152   153    1
    94   141   140    2
    95   155   156    1
    96   142   139    1
    97   131   129   ar
    98   109   110    1
    99   109   106    1
   100   118   117    1
   101   128   129   ar
   102   128   127    1
   103   108   107    2
   104   153   154    2
   105   140   139    1
   106   110   111    1
   107   107   106    1
   108   107   112   am
   109   126   125    2
   110   139   138    1
   111   127   124    1
   112   106   105    1
   113   113   112    1
   114   113   116    1
   115   113   114    1
   116   117   116    1
   117   125   124    1
   118   138   136   am
   119   111   105    1
   120   124   123    1
   121   114   115    2
   122    94    93    1
   123   105    98   am
   124   136   135    1
   125   136   137    2
   126   164   162    1
   127   163   162    1
   128    95    93    1
   129    93    92    2
   130   135   134    1
   131    98    99    2
   132    98    97    1
   133   162   159    1
   134    92    91    1
   135    91    90    1
   136    97   100    1
   137    97    96    1
   138   103   102   ar
   139   159   158    1
   140   159   160    1
   141    79    78    1
   142    79    80    1
   143    75    74    1
   144    75    76    1
   145    75    78    1
   146   100   101    1
   147    76    77    2
   148   160   161    2
   149    90    89    1
   150   102   104   ar
   151   102   101    1
   152    80    81    1
   153    89    86    1
   154    81    82    2
   155    86    85    1
   156    86    87    1
   157    82    83    1
   158    82    84    1
   159    87    88    2
