@<TRIPOS>MOLECULE
tmp/5wqkA00.pdb
 166 161 0 0 0
SMALL
GASTEIGER

@<TRIPOS>ATOM
      1  N         -7.9370   -0.3840    4.5090 N.3    32  TRP32      -0.1241
      2  CA        -8.8060   -1.4640    5.1200 C.3    32  TRP32       0.1605
      3  C         -9.7330   -0.7720    6.0940 C.2    32  TRP32       0.2264
      4  O         -9.2830    0.1360    6.7650 O.2    32  TRP32      -0.2867
      5  CB        -7.9290   -2.5300    5.8390 C.3    32  TRP32       0.0550
      6  CG        -8.7230   -3.7420    6.2660 C.ar   32  TRP32       0.0003
      7  CD1       -8.8580   -4.9010    5.5900 C.ar   32  TRP32       0.0946
      8  CD2       -9.5000   -3.8980    7.4670 C.ar   32  TRP32       0.0152
      9  NE1       -9.7050   -5.7620    6.2410 N.ar   32  TRP32      -0.2442
     10  CE2      -10.1270   -5.1570    7.3920 C.ar   32  TRP32       0.0810
     11  CE3       -9.7780   -3.0630    8.5450 C.ar   32  TRP32       0.0012
     12  CZ2      -10.9460   -5.6430    8.4160 C.ar   32  TRP32       0.0191
     13  CZ3      -10.6150   -3.5700    9.5790 C.ar   32  TRP32       0.0001
     14  CH2      -11.1530   -4.8340    9.4840 C.ar   32  TRP32       0.0015
     15  N        -13.2420   -1.1000    8.8780 N.3    34  LEU34      -0.1231
     16  CA       -14.1150   -1.9980    9.6290 C.3    34  LEU34       0.1678
     17  C        -15.4700   -2.0200    8.8740 C.2    34  LEU34       0.2434
     18  O        -15.8490   -1.0140    8.2180 O.2    34  LEU34      -0.2733
     19  CB       -14.2750   -1.3910   11.0070 C.3    34  LEU34       0.0284
     20  CG       -13.0770   -1.6060   11.9690 C.3    34  LEU34       0.0019
     21  CD1      -13.2250   -0.7270   13.1650 C.3    34  LEU34       0.0001
     22  CD2      -12.9390   -3.0470   12.3220 C.3    34  LEU34       0.0001
     23  N        -16.1670   -3.1610    8.9320 N.am   35  PRO35      -0.2729
     24  CA       -17.3920   -3.3270    8.1120 C.3    35  PRO35       0.1401
     25  C        -18.4130   -2.2370    8.3020 C.2    35  PRO35       0.2269
     26  O        -19.0330   -1.8220    7.3440 O.2    35  PRO35      -0.2865
     27  CB       -17.9490   -4.7050    8.5670 C.3    35  PRO35       0.0296
     28  CG       -16.7590   -5.4400    9.2020 C.3    35  PRO35       0.0237
     29  CD       -15.7250   -4.4310    9.5930 C.3    35  PRO35       0.0939
     30  N         -5.8880   -8.3980    4.3340 N.3    59  ASP59      -0.1239
     31  CA        -6.4310   -9.7980    4.3600 C.3    59  ASP59       0.1674
     32  C         -5.7290  -10.9010    3.5270 C.2    59  ASP59       0.2266
     33  O         -6.0090  -12.0640    3.7490 O.2    59  ASP59      -0.2867
     34  CB        -7.9140   -9.7750    4.0510 C.3    59  ASP59       0.1410
     35  CG        -8.7010   -9.0120    5.0800 C.2    59  ASP59       0.3668
     36  OD1       -8.3810   -9.0890    6.2890 O.co2  59  ASP59      -0.2456
     37  OD2       -9.6710   -8.3740    4.6720 O.co2  59  ASP59      -0.2456
     38  N         -7.7570  -11.9040   14.9290 N.3    69  ASP69      -0.1225
     39  CA        -7.8070  -11.0500   13.7680 C.3    69  ASP69       0.1805
     40  C         -6.4680  -10.4310   13.3910 C.2    69  ASP69       0.2597
     41  O         -5.5520  -10.1960   14.2320 O.2    69  ASP69      -0.2718
     42  CB        -8.8580   -9.9900   13.9990 C.3    69  ASP69       0.1424
     43  CG       -10.2780  -10.5550   14.0100 C.2    69  ASP69       0.3668
     44  OD1      -10.5850  -11.3090   13.1090 O.co2  69  ASP69      -0.2456
     45  OD2      -11.0680  -10.0430   14.8110 O.co2  69  ASP69      -0.2456
     46  N         -6.2930  -10.2750   12.0740 N.am   70  HIS70      -0.1975
     47  CA        -5.1130   -9.5960   11.5280 C.3    70  HIS70       0.1656
     48  C         -3.7840  -10.0510   12.1130 C.2    70  HIS70       0.2291
     49  O         -2.9830   -9.2090   12.5620 O.2    70  HIS70      -0.2864
     50  CB        -5.2410   -8.0780   11.6220 C.3    70  HIS70       0.0771
     51  CG        -6.3870   -7.5250   10.8470 C.ar   70  HIS70       0.0820
     52  ND1       -6.5730   -7.8300    9.5210 N.ar   70  HIS70      -0.2267
     53  CD2       -7.3900   -6.7010   11.1860 C.ar   70  HIS70       0.1154
     54  CE1       -7.6550   -7.2630    9.0740 C.ar   70  HIS70       0.1986
     55  NE2       -8.1760   -6.5520   10.0490 N.ar   70  HIS70      -0.2212
     56  N         -4.4160    5.1410    8.6370 N.3   104  TYR104     -0.1241
     57  CA        -5.1830    4.3070    9.4930 C.3   104  TYR104      0.1605
     58  C         -4.6160    2.9020    9.5770 C.2   104  TYR104      0.2264
     59  O         -4.1440    2.4460   10.6090 O.2   104  TYR104     -0.2867
     60  CB        -6.6350    4.2980    9.0200 C.3   104  TYR104      0.0534
     61  CG        -7.5460    3.3310    9.7940 C.ar  104  TYR104     -0.0201
     62  CD1       -8.0460    3.6680   11.0450 C.ar  104  TYR104     -0.0009
     63  CD2       -7.9570    2.1390    9.2090 C.ar  104  TYR104     -0.0009
     64  CE1       -8.9120    2.8140   11.7720 C.ar  104  TYR104      0.0417
     65  CE2       -8.7910    1.2710    9.9120 C.ar  104  TYR104      0.0417
     66  CZ        -9.2550    1.6030   11.1860 C.ar  104  TYR104      0.1957
     67  OH       -10.1630    0.7550   11.8340 O.3   104  TYR104     -0.2866
     68  N         -6.8570    1.9110   20.9160 N.3   180  ARG180     -0.1245
     69  CA        -8.2810    1.9890   20.6290 C.3   180  ARG180      0.1563
     70  C         -8.8680    3.3430   21.1180 C.2   180  ARG180      0.2260
     71  O         -8.3060    4.0150   21.9920 O.2   180  ARG180     -0.2867
     72  CB        -8.9900    0.8290   21.3130 C.3   180  ARG180      0.0307
     73  CG        -8.7470   -0.4270   20.5840 C.3   180  ARG180      0.0489
     74  CD        -9.3520   -1.6420   21.3290 C.3   180  ARG180      0.2205
     75  NE        -8.8210   -1.7230   22.6720 N.pl3 180  ARG180     -0.0865
     76  CZ        -9.4870   -2.0250   23.7980 C.cat 180  ARG180      0.5346
     77  NH1      -10.7580   -2.3280   23.7580 N.pl3 180  ARG180      0.1354
     78  NH2       -8.8760   -2.0440   24.9510 N.pl3 180  ARG180      0.1354
     79  N        -14.0330    2.4020   23.8870 N.3   184  ARG184     -0.1245
     80  CA       -13.7050    0.9560   23.8570 C.3   184  ARG184      0.1563
     81  C        -12.7140    0.5550   24.9580 C.2   184  ARG184      0.2260
     82  O        -12.8920   -0.4410   25.7480 O.2   184  ARG184     -0.2867
     83  CB       -13.2020    0.5880   22.4790 C.3   184  ARG184      0.0307
     84  CG       -14.2470    0.5850   21.4030 C.3   184  ARG184      0.0489
     85  CD       -13.6340    0.4700   20.0220 C.3   184  ARG184      0.2205
     86  NE       -12.9310   -0.8040   19.8040 N.pl3 184  ARG184     -0.0865
     87  CZ       -12.1430   -1.0450   18.7690 C.cat 184  ARG184      0.5346
     88  NH1      -12.0420   -0.1620   17.7710 N.pl3 184  ARG184      0.1354
     89  NH2      -11.5450   -2.2350   18.6810 N.pl3 184  ARG184      0.1354
     90  N        -17.1370   -3.1020   20.9280 N.3   191  GLU191     -0.1231
     91  CA       -16.1220   -3.6290   20.0650 C.3   191  GLU191      0.1684
     92  C        -16.7530   -4.0700   18.7340 C.2   191  GLU191      0.2434
     93  O        -17.8130   -4.6830   18.7150 O.2   191  GLU191     -0.2733
     94  CB       -15.4310   -4.8440   20.7210 C.3   191  GLU191      0.0402
     95  CG       -14.4770   -4.4910   21.8360 C.3   191  GLU191      0.1161
     96  CD       -13.2220   -3.8130   21.2850 C.2   191  GLU191      0.3649
     97  OE1      -12.6230   -4.3230   20.2920 O.co2 191  GLU191     -0.2457
     98  OE2      -12.8780   -2.8190   21.8800 O.co2 191  GLU191     -0.2457
     99  N        -16.0260   -3.8700   17.6200 N.am  192  PRO192     -0.2718
    100  CA       -16.5640   -4.2240   16.3020 C.3   192  PRO192      0.1535
    101  C        -16.8070   -5.6980   16.0560 C.2   192  PRO192      0.2598
    102  O        -17.7680   -6.0650   15.3280 O.2   192  PRO192     -0.2715
    103  CB       -15.5490   -3.6410   15.3020 C.3   192  PRO192      0.0310
    104  CG       -14.3420   -3.3180   16.1460 C.3   192  PRO192      0.0237
    105  CD       -14.8080   -3.0710   17.5300 C.3   192  PRO192      0.0939
    106  N        -15.9980   -6.5660   16.6890 N.am  193  ARG193     -0.1964
    107  CA       -16.1650   -8.0140   16.5180 C.3   193  ARG193      0.1729
    108  C        -17.3230   -8.5250   17.4070 C.2   193  ARG193      0.2616
    109  O        -17.3940   -8.2080   18.6170 O.2   193  ARG193     -0.2715
    110  CB       -14.8160   -8.6660   16.8320 C.3   193  ARG193      0.0348
    111  CG       -14.6870  -10.1540   16.6210 C.3   193  ARG193      0.0492
    112  CD       -14.9930  -10.4510   15.1910 C.3   193  ARG193      0.2205
    113  NE       -13.8690  -10.5050   14.2700 N.pl3 193  ARG193     -0.0865
    114  CZ       -14.0430  -10.9940   13.0540 C.cat 193  ARG193      0.5346
    115  NH1      -15.2870  -11.3890   12.7100 N.pl3 193  ARG193      0.1354
    116  NH2      -13.0480  -11.1490   12.2080 N.pl3 193  ARG193      0.1354
    117  N        -18.2630   -9.2570   16.8040 N.am  194  ASP194     -0.1971
    118  CA       -19.3250   -9.8400   17.5830 C.3   194  ASP194      0.1709
    119  C        -18.7260  -10.8930   18.5040 C.2   194  ASP194      0.2293
    120  O        -17.8770  -11.6620   18.0840 O.2   194  ASP194     -0.2864
    121  CB       -20.3860  -10.4950   16.7440 C.3   194  ASP194      0.1436
    122  CG       -21.4710  -11.1310   17.6110 C.2   194  ASP194      0.3671
    123  OD1      -21.7310  -12.3310   17.4000 O.co2 194  ASP194     -0.2456
    124  OD2      -22.0270  -10.4360   18.5110 O.co2 194  ASP194     -0.2456
    125  N         -5.2300    6.1670   18.6850 N.3   209  PHE209     -0.1241
    126  CA        -4.3250    6.4190   17.5510 C.3   209  PHE209      0.1605
    127  C         -4.5120    7.7840   16.9390 C.2   209  PHE209      0.2264
    128  O         -3.5650    8.3690   16.4550 O.2   209  PHE209     -0.2867
    129  CB        -4.4170    5.3560   16.4720 C.3   209  PHE209      0.0534
    130  CG        -5.6900    5.3950   15.6500 C.ar  209  PHE209     -0.0203
    131  CD1       -6.8150    4.7040   16.0850 C.ar  209  PHE209     -0.0042
    132  CD2       -5.7710    6.1440   14.5170 C.ar  209  PHE209     -0.0042
    133  CE1       -7.9670    4.7080   15.3250 C.ar  209  PHE209     -0.0003
    134  CE2       -6.8920    6.1430   13.7590 C.ar  209  PHE209     -0.0003
    135  CZ        -8.0080    5.4450   14.1910 C.ar  209  PHE209     -0.0000
    136  N         -7.2820   -3.1870   18.8050 N.3   244  GLY244     -0.1210
    137  CA        -8.3110   -4.1820   18.6490 C.3   244  GLY244      0.1956
    138  C         -7.6790   -5.4910   18.1000 C.2   244  GLY244      0.2612
    139  O         -7.8970   -6.5710   18.6470 O.2   244  GLY244     -0.2717
    140  N         -6.9340   -5.3580   16.9910 N.am  245  SER245     -0.1952
    141  CA        -6.4080   -6.5230   16.2640 C.3   245  SER245      0.1924
    142  C         -4.9500   -6.3860   15.8870 C.2   245  SER245      0.2314
    143  O         -4.4450   -7.2360   15.1110 O.2   245  SER245     -0.2863
    144  CB        -7.2870   -6.8520   15.0520 C.3   245  SER245      0.2116
    145  OG        -7.2250   -5.7770   14.0440 O.3   245  SER245     -0.2180
    146  N         -3.5920   -3.5470   14.3430 N.3   247  VAL247     -0.1231
    147  CA        -3.4350   -2.7200   13.1220 C.3   247  VAL247      0.1692
    148  C         -3.1620   -1.2850   13.5760 C.2   247  VAL247      0.2592
    149  O         -2.0450   -0.7590   13.3800 O.2   247  VAL247     -0.2718
    150  CB        -4.6940   -2.7780   12.2930 C.3   247  VAL247      0.0266
    151  CG1       -4.6940   -1.7750   11.1730 C.3   247  VAL247      0.0020
    152  CG2       -4.8880   -4.2050   11.7060 C.3   247  VAL247      0.0020
    153  N         -4.1070   -0.6670   14.2440 N.am  248  THR248     -0.1953
    154  CA        -3.9370    0.7410   14.6730 C.3   248  THR248      0.1897
    155  C         -2.8560    0.9510   15.7550 C.2   248  THR248      0.2313
    156  O         -2.3510    2.0550   15.8970 O.2   248  THR248     -0.2863
    157  CB        -5.2550    1.4340   15.0950 C.3   248  THR248      0.1794
    158  OG1       -5.7730    0.8510   16.3200 O.3   248  THR248     -0.2208
    159  CG2       -6.3120    1.4050   13.9900 C.3   248  THR248      0.0378
    160  N         -8.8100   -8.5360   20.7890 N.3   272  VAL272     -0.1245
    161  CA        -9.5750   -9.6910   20.3940 C.3   272  VAL272      0.1561
    162  C         -9.0050  -10.9270   21.0890 C.2   272  VAL272      0.2260
    163  O         -9.7280  -11.7430   21.6440 O.2   272  VAL272     -0.2867
    164  CB        -9.6640   -9.8300   18.8460 C.3   272  VAL272      0.0252
    165  CG1      -10.1800  -11.1980   18.3890 C.3   272  VAL272      0.0019
    166  CG2      -10.5930   -8.7280   18.3160 C.3   272  VAL272      0.0019
@<TRIPOS>BOND
     1    32    33    2
     2    32    31    1
     3    34    31    1
     4    34    35    1
     5    30    31    1
     6     1     2    1
     7    37    35   ar
     8    35    36   ar
     9     2     5    1
    10     2     3    1
    11     7     9   ar
    12     7     6   ar
    13     5     6    1
    14     3     4    2
    15     9    10   ar
    16     6     8   ar
    17    26    25    2
    18    10     8   ar
    19    10    12   ar
    20     8    11   ar
    21    24    25    1
    22    24    27    1
    23    24    23    1
    24    18    17    2
    25    12    14   ar
    26    11    13   ar
    27    27    28    1
    28    56    57    1
    29    17    23   am
    30    17    16    1
    31    15    16    1
    32    23    29    1
    33    60    57    1
    34    60    61    1
    35    54    52   ar
    36    54    55   ar
    37    28    29    1
    38    63    61   ar
    39    63    65   ar
    40    14    13   ar
    41    57    58    1
    42    52    51   ar
    43    58    59    2
    44    16    19    1
    45    61    62   ar
    46    65    66   ar
    47    55    53   ar
    48    51    53   ar
    49    51    50    1
    50    19    20    1
    51    62    64   ar
    52   151   150    1
    53    66    64   ar
    54    66    67    1
    55    47    50    1
    56    47    46    1
    57    47    48    1
    58   152   150    1
    59    20    22    1
    60    20    21    1
    61    46    40   am
    62    48    49    2
    63   116   114    1
    64   150   147    1
    65   115   114    1
    66   114   113    2
    67    44    43   ar
    68   147   148    1
    69   147   146    1
    70   149   148    2
    71    40    39    1
    72    40    41    2
    73   148   153   am
    74   134   135   ar
    75   134   132   ar
    76    39    42    1
    77    39    38    1
    78   159   157    1
    79    42    43    1
    80    43    45   ar
    81   145   144    1
    82   135   133   ar
    83   153   154    1
    84   113   112    1
    85   132   130   ar
    86   154   157    1
    87   154   155    1
    88   144   141    1
    89   157   158    1
    90   143   142    2
    91   112   111    1
    92   103   104    1
    93   103   100    1
    94   133   131   ar
    95   102   101    2
    96   130   131   ar
    97   130   129    1
    98   155   156    2
    99   142   141    1
   100   101   100    1
   101   101   106   am
   102   104   105    1
   103   141   140    1
   104   100    99    1
   105   128   127    2
   106   129   126    1
   107   107   106    1
   108   107   110    1
   109   107   108    1
   110   111   110    1
   111   121   118    1
   112   121   122    1
   113   117   108   am
   114   117   118    1
   115   127   126    1
   116   140   138   am
   117   123   122   ar
   118   108   109    2
   119   105    99    1
   120   126   125    1
   121   118   119    1
   122   122   124   ar
   123    99    92   am
   124    88    87    1
   125   120   119    2
   126   138   139    2
   127   138   137    1
   128   166   164    1
   129   165   164    1
   130   137   136    1
   131    89    87    1
   132    93    92    2
   133    92    91    1
   134    87    86    2
   135   164   161    1
   136    86    85    1
   137    85    84    1
   138    91    94    1
   139    91    90    1
   140    97    96   ar
   141   161   160    1
   142   161   162    1
   143    73    72    1
   144    73    74    1
   145    69    68    1
   146    69    70    1
   147    69    72    1
   148    94    95    1
   149   162   163    2
   150    70    71    2
   151    96    95    1
   152    96    98   ar
   153    74    75    1
   154    84    83    1
   155    83    80    1
   156    75    76    2
   157    77    76    1
   158    76    78    1
   159    80    79    1
   160    80    81    1
   161    81    82    2
