@<TRIPOS>MOLECULE
tmp/5wqpA01.pdb
 102 102 0 0 0
SMALL
GASTEIGER

@<TRIPOS>ATOM
      1  N        -24.5340  -17.8330   25.0800 N.3    88  TYR88      -0.1241
      2  CA       -24.8460  -17.5120   26.4630 C.3    88  TYR88       0.1605
      3  C        -24.6770  -18.7540   27.3740 C.2    88  TYR88       0.2264
      4  O        -24.3690  -18.6120   28.5530 O.2    88  TYR88      -0.2867
      5  CB       -26.3060  -17.0800   26.5140 C.3    88  TYR88       0.0534
      6  CG       -26.7990  -16.5340   27.8320 C.ar   88  TYR88      -0.0201
      7  CD1      -26.1060  -15.5250   28.5060 C.ar   88  TYR88      -0.0009
      8  CD2      -27.9940  -17.0230   28.4170 C.ar   88  TYR88      -0.0009
      9  CE1      -26.5940  -15.0310   29.6990 C.ar   88  TYR88       0.0417
     10  CE2      -28.4890  -16.5190   29.6040 C.ar   88  TYR88       0.0417
     11  CZ       -27.7660  -15.5060   30.2250 C.ar   88  TYR88       0.1957
     12  OH       -28.2380  -14.9310   31.3870 O.3    88  TYR88      -0.2866
     13  N        -16.1760  -10.2310   29.0010 N.3   136  SER136     -0.1202
     14  CA       -17.2710   -9.6530   29.7500 C.3   136  SER136      0.2020
     15  C        -16.8330   -9.2830   31.1520 C.2   136  SER136      0.2619
     16  O        -15.9840   -9.9370   31.7410 O.2   136  SER136     -0.2717
     17  CB       -18.4050  -10.6790   29.8660 C.3   136  SER136      0.2103
     18  OG       -19.4560  -10.2510   30.7220 O.3   136  SER136     -0.2182
     19  N        -17.4910   -8.2890   31.7040 N.am  137  GLN137     -0.1965
     20  CA       -17.3380   -7.9340   33.0980 C.3   137  GLN137      0.1733
     21  C        -17.7580   -9.1150   33.9880 C.2   137  GLN137      0.2616
     22  O        -17.2820   -9.1540   35.1070 O.2   137  GLN137     -0.2715
     23  CB       -18.1030   -6.7530   33.5410 C.3   137  GLN137      0.0408
     24  CG       -19.6230   -6.8210   33.5000 C.3   137  GLN137      0.0908
     25  CD       -20.2860   -5.4920   33.8190 C.2   137  GLN137      0.2608
     26  OE1      -19.7420   -4.6190   34.5410 O.2   137  GLN137     -0.2717
     27  NE2      -21.4700   -5.3490   33.3320 N.am  137  GLN137     -0.0878
     28  N        -18.5750  -10.0300   33.4690 N.am  138  MET138     -0.1977
     29  CA       -18.9700  -11.2480   34.2120 C.3   138  MET138      0.1605
     30  C        -17.8180  -12.2050   34.4130 C.2   138  MET138      0.2287
     31  O        -17.9190  -13.1030   35.2290 O.2   138  MET138     -0.2864
     32  CB       -20.1420  -11.9800   33.5010 C.3   138  MET138      0.0413
     33  CG       -21.3150  -11.0900   33.2560 C.3   138  MET138      0.0598
     34  SD       -22.0710  -10.6950   34.8430 S.3   138  MET138     -0.1393
     35  CE       -23.2350   -9.3950   34.3650 C.3   138  MET138      0.0692
     36  N        -25.2370  -14.2820   35.9330 N.3   149  MET149     -0.1245
     37  CA       -25.2460  -15.2510   34.8580 C.3   149  MET149      0.1570
     38  C        -24.0270  -16.1780   35.0100 C.2   149  MET149      0.2261
     39  O        -23.0320  -16.0090   34.3040 O.2   149  MET149     -0.2867
     40  CB       -25.2440  -14.5370   33.4830 C.3   149  MET149      0.0387
     41  CG       -24.2480  -13.4520   33.2960 C.3   149  MET149      0.0595
     42  SD       -24.5430  -12.5380   31.7440 S.3   149  MET149     -0.1393
     43  CE       -26.0330  -11.6860   32.0940 C.3   149  MET149      0.0692
     44  N        -22.3010  -18.3930   31.9250 N.3   152  TYR152     -0.1241
     45  CA       -21.6880  -17.4830   30.9820 C.3   152  TYR152      0.1605
     46  C        -20.4240  -16.8730   31.5980 C.2   152  TYR152      0.2264
     47  O        -19.3900  -16.8220   30.9910 O.2   152  TYR152     -0.2867
     48  CB       -22.6970  -16.3930   30.6440 C.3   152  TYR152      0.0534
     49  CG       -22.1410  -15.2860   29.8000 C.ar  152  TYR152     -0.0201
     50  CD1      -22.0470  -15.4260   28.4360 C.ar  152  TYR152     -0.0009
     51  CD2      -21.6700  -14.1340   30.3720 C.ar  152  TYR152     -0.0009
     52  CE1      -21.5240  -14.4190   27.6200 C.ar  152  TYR152      0.0417
     53  CE2      -21.1270  -13.1370   29.5980 C.ar  152  TYR152      0.0417
     54  CZ       -21.0480  -13.2690   28.2300 C.ar  152  TYR152      0.1957
     55  OH       -20.4950  -12.2260   27.5000 O.3   152  TYR152     -0.2866
     56  N        -14.5640   -5.8980   27.4230 N.3   181  HIS181     -0.1227
     57  CA       -15.9340   -5.8470   27.8870 C.3   181  HIS181      0.1737
     58  C        -16.6700   -4.7760   27.0820 C.2   181  HIS181      0.2438
     59  O        -16.3020   -3.6190   27.1530 O.2   181  HIS181     -0.2733
     60  CB       -16.0180   -5.5690   29.3840 C.3   181  HIS181      0.0758
     61  CG       -17.3940   -5.2910   29.8840 C.ar  181  HIS181      0.0818
     62  ND1      -18.4370   -6.1560   29.6820 N.ar  181  HIS181     -0.2268
     63  CD2      -17.8880   -4.2430   30.5770 C.ar  181  HIS181      0.1154
     64  CE1      -19.5320   -5.6280   30.2200 C.ar  181  HIS181      0.1986
     65  NE2      -19.2230   -4.4640   30.7710 N.ar  181  HIS181     -0.2212
     66  N        -17.7060   -5.1630   26.3640 N.am  182  PRO182     -0.2718
     67  CA       -18.3330   -4.2230   25.4620 C.3   182  PRO182      0.1535
     68  C        -19.3590   -3.3190   26.1350 C.2   182  PRO182      0.2599
     69  O        -19.9390   -2.4870   25.4660 O.2   182  PRO182     -0.2715
     70  CB       -19.0890   -5.1160   24.4870 C.3   182  PRO182      0.0310
     71  CG       -19.4200   -6.3390   25.2570 C.3   182  PRO182      0.0237
     72  CD       -18.2960   -6.5190   26.2300 C.3   182  PRO182      0.0939
     73  N        -19.5860   -3.5010   27.4430 N.am  183  GLY183     -0.1941
     74  CA       -20.7320   -2.9310   28.1170 C.3   183  GLY183      0.2014
     75  C        -21.8910   -3.8660   27.9190 C.2   183  GLY183      0.2638
     76  O        -21.7630   -4.9750   27.3780 O.2   183  GLY183     -0.2714
     77  N        -23.0210   -3.4480   28.4420 N.am  184  TRP184     -0.1973
     78  CA       -24.2890   -4.1810   28.2860 C.3   184  TRP184      0.1640
     79  C        -25.0130   -3.5100   27.1370 C.2   184  TRP184      0.2290
     80  O        -25.4280   -2.3590   27.2470 O.2   184  TRP184     -0.2864
     81  CB       -25.0680   -4.1520   29.6080 C.3   184  TRP184      0.0576
     82  CG       -26.3510   -4.8980   29.5720 C.ar  184  TRP184      0.0006
     83  CD1      -26.7300   -5.8880   28.6780 C.ar  184  TRP184      0.0946
     84  CD2      -27.3810   -4.8070   30.5470 C.ar  184  TRP184      0.0152
     85  NE1      -28.0160   -6.3620   29.0100 N.ar  184  TRP184     -0.2442
     86  CE2      -28.4410   -5.6870   30.1360 C.ar  184  TRP184      0.0810
     87  CE3      -27.5760   -4.0110   31.6740 C.ar  184  TRP184      0.0012
     88  CZ2      -29.6390   -5.8000   30.8430 C.ar  184  TRP184      0.0191
     89  CZ3      -28.8070   -4.1410   32.3810 C.ar  184  TRP184      0.0001
     90  CH2      -29.7960   -5.0220   31.9710 C.ar  184  TRP184      0.0015
     91  N        -28.7400  -11.2400   22.5800 N.3   189  MET189     -0.1230
     92  CA       -28.3580  -11.7000   23.9030 C.3   189  MET189      0.1702
     93  C        -28.5620  -10.6200   24.9660 C.2   189  MET189      0.2592
     94  O        -29.1290  -10.9120   25.9870 O.2   189  MET189     -0.2718
     95  CB       -26.9030  -12.1400   23.9630 C.3   189  MET189      0.0401
     96  CG       -26.5230  -12.6230   25.3870 C.3   189  MET189      0.0596
     97  SD       -24.9070  -13.3500   25.5980 S.3   189  MET189     -0.1393
     98  CE       -23.9140  -11.9260   25.2730 C.3   189  MET189      0.0692
     99  N        -28.1280   -9.3790   24.6880 N.am  190  GLY190     -0.1957
    100  CA       -28.1930   -8.3240   25.6900 C.3   190  GLY190      0.1869
    101  C        -29.5960   -7.8890   26.0810 C.2   190  GLY190      0.2309
    102  O        -29.8200   -7.5480   27.2260 O.2   190  GLY190     -0.2863
@<TRIPOS>BOND
     1    91    92    1
     2    92    95    1
     3    92    93    1
     4    95    96    1
     5    70    71    1
     6    70    67    1
     7    99    93   am
     8    99   100    1
     9    93    94    2
    10     1     2    1
    11    71    72    1
    12    98    97    1
    13    96    97    1
    14    67    68    1
    15    67    66    1
    16    69    68    2
    17   100   101    1
    18   101   102    2
    19    68    73   am
    20    72    66    1
    21    66    58   am
    22     2     5    1
    23     2     3    1
    24     5     6    1
    25    58    59    2
    26    58    57    1
    27    79    80    2
    28    79    78    1
    29     3     4    2
    30    76    75    2
    31    56    57    1
    32    73    74    1
    33    55    54    1
    34    52    54   ar
    35    52    50   ar
    36     6     8   ar
    37     6     7   ar
    38    57    60    1
    39    75    74    1
    40    75    77   am
    41    54    53   ar
    42    78    77    1
    43    78    81    1
    44     8    10   ar
    45    50    49   ar
    46     7     9   ar
    47    83    85   ar
    48    83    82   ar
    49    13    14    1
    50    85    86   ar
    51    60    61    1
    52    82    81    1
    53    82    84   ar
    54    53    51   ar
    55    10    11   ar
    56    62    61   ar
    57    62    64   ar
    58     9    11   ar
    59    14    17    1
    60    14    15    1
    61    49    51   ar
    62    49    48    1
    63    17    18    1
    64    61    63   ar
    65    86    84   ar
    66    86    88   ar
    67    64    65   ar
    68    11    12    1
    69    84    87   ar
    70    63    65   ar
    71    48    45    1
    72    88    90   ar
    73    45    46    1
    74    45    44    1
    75    47    46    2
    76    15    19   am
    77    15    16    2
    78    87    89   ar
    79    19    20    1
    80    42    43    1
    81    42    41    1
    82    90    89   ar
    83    20    23    1
    84    20    21    1
    85    33    32    1
    86    33    34    1
    87    41    40    1
    88    27    25   am
    89    28    21   am
    90    28    29    1
    91    40    37    1
    92    24    23    1
    93    24    25    1
    94    32    29    1
    95    25    26    2
    96    21    22    2
    97    29    30    1
    98    39    38    2
    99    35    34    1
   100    30    31    2
   101    37    38    1
   102    37    36    1
