@<TRIPOS>MOLECULE
tmp/5wqtA00.pdb
 65 63 0 0 0
SMALL
GASTEIGER

@<TRIPOS>ATOM
      1  N         21.6470  -85.9400   52.3680 N.3    46  ASP46      -0.1239
      2  CA        22.8990  -86.6740   52.3920 C.3    46  ASP46       0.1674
      3  C         24.0400  -85.6790   52.2260 C.2    46  ASP46       0.2266
      4  O         24.3140  -85.2080   51.1240 O.2    46  ASP46      -0.2867
      5  CB        22.8710  -87.7120   51.2630 C.3    46  ASP46       0.1410
      6  CG        24.0930  -88.6210   51.2440 C.2    46  ASP46       0.3668
      7  OD1       25.0220  -88.4470   52.0700 O.co2  46  ASP46      -0.2456
      8  OD2       24.1250  -89.5130   50.3670 O.co2  46  ASP46      -0.2456
      9  N         27.1670  -85.9770   52.3690 N.3    48  LEU48      -0.1231
     10  CA        28.2330  -86.4670   51.5010 C.3    48  LEU48       0.1693
     11  C         27.9050  -86.3150   50.0100 C.2    48  LEU48       0.2591
     12  O         28.7950  -85.9690   49.2170 O.2    48  LEU48      -0.2718
     13  CB        28.5100  -87.9310   51.7680 C.3    48  LEU48       0.0284
     14  CG        29.8970  -88.3310   51.2730 C.3    48  LEU48       0.0019
     15  CD1       30.7770  -88.5930   52.4910 C.3    48  LEU48       0.0001
     16  CD2       29.8320  -89.5240   50.3300 C.3    48  LEU48       0.0001
     17  N         26.6450  -86.6020   49.6460 N.am   49  ALA49      -0.1980
     18  CA        26.1190  -86.3720   48.2890 C.3    49  ALA49       0.1597
     19  C         26.2400  -84.9170   47.9190 C.2    49  ALA49       0.2287
     20  O         26.7110  -84.5760   46.8450 O.2    49  ALA49      -0.2864
     21  CB        24.6690  -86.7920   48.1920 C.3    49  ALA49       0.0319
     22  N         29.7180  -84.1210   47.0740 N.3    52  ALA52      -0.1245
     23  CA        30.0970  -84.7020   45.7880 C.3    52  ALA52       0.1562
     24  C         29.5650  -83.8780   44.6360 C.2    52  ALA52       0.2260
     25  O         30.3070  -83.5720   43.7010 O.2    52  ALA52      -0.2867
     26  CB        29.6090  -86.1340   45.6750 C.3    52  ALA52       0.0290
     27  N         29.7200  -89.0470   35.3610 N.3    60  PRO60      -0.2102
     28  CA        28.5090  -89.3790   36.1050 C.3    60  PRO60       0.1504
     29  C         28.7560  -89.8750   37.5250 C.2    60  PRO60       0.2576
     30  O         29.8480  -90.3440   37.8520 O.2    60  PRO60      -0.2718
     31  CB        27.8750  -90.4860   35.2580 C.3    60  PRO60       0.0282
     32  CG        29.0400  -91.1750   34.6440 C.3    60  PRO60       0.0208
     33  CD        30.0730  -90.1100   34.3990 C.3    60  PRO60       0.0893
     34  N         27.7170  -89.7390   38.3450 N.am   61  LEU61      -0.1966
     35  CA        27.7190  -90.1520   39.7400 C.3    61  LEU61       0.1728
     36  C         26.4760  -90.9920   40.0020 C.2    61  LEU61       0.2616
     37  O         25.5040  -90.9610   39.2320 O.2    61  LEU61      -0.2715
     38  CB        27.6720  -88.9360   40.6670 C.3    61  LEU61       0.0311
     39  CG        28.5630  -87.7260   40.4040 C.3    61  LEU61       0.0022
     40  CD1       27.9900  -86.5250   41.1490 C.3    61  LEU61       0.0001
     41  CD2       30.0030  -87.9760   40.8200 C.3    61  LEU61       0.0001
     42  N         26.5130  -91.7230   41.1060 N.am   62  ASP62      -0.1957
     43  CA        25.3510  -92.4460   41.5970 C.3    62  ASP62       0.1840
     44  C         24.5660  -91.5480   42.5490 C.2    62  ASP62       0.2623
     45  O         25.0990  -90.5730   43.0940 O.2    62  ASP62      -0.2715
     46  CB        25.7850  -93.7370   42.3090 C.3    62  ASP62       0.1450
     47  CG        26.4670  -94.7310   41.3670 C.2    62  ASP62       0.3671
     48  OD1       27.0420  -94.2960   40.3440 O.co2  62  ASP62      -0.2456
     49  OD2       26.4230  -95.9510   41.6460 O.co2  62  ASP62      -0.2456
     50  N         23.2900  -91.8730   42.7240 N.am   63  GLY63      -0.1940
     51  CA        22.4900  -91.2790   43.7790 C.3    63  GLY63       0.1998
     52  C         22.0100  -89.8670   43.5020 C.2    63  GLY63       0.2481
     53  O         21.9720  -89.4410   42.3470 O.2    63  GLY63      -0.2729
     54  N         21.6360  -89.1310   44.5680 N.am   64  PRO64      -0.2715
     55  CA        21.0600  -87.7740   44.4620 C.3    64  PRO64       0.1536
     56  C         21.9350  -86.7240   43.7570 C.2    64  PRO64       0.2598
     57  O         21.4120  -85.8490   43.0520 O.2    64  PRO64      -0.2715
     58  CB        20.8420  -87.3760   45.9310 C.3    64  PRO64       0.0310
     59  CG        20.7470  -88.6620   46.6720 C.3    64  PRO64       0.0237
     60  CD        21.6940  -89.5810   45.9750 C.3    64  PRO64       0.0939
     61  N         23.2430  -86.8040   43.9780 N.am   65  ALA65      -0.1978
     62  CA        24.2070  -85.9270   43.3110 C.3    65  ALA65       0.1597
     63  C         24.2470  -86.2020   41.8100 C.2    65  ALA65       0.2287
     64  O         24.3560  -85.2680   41.0120 O.2    65  ALA65      -0.2864
     65  CB        25.5960  -86.1020   43.9130 C.3    65  ALA65       0.0319
@<TRIPOS>BOND
     1    33    32    1
     2    33    27    1
     3    32    31    1
     4    31    28    1
     5    27    28    1
     6    28    29    1
     7    29    30    2
     8    29    34   am
     9    34    35    1
    10    37    36    2
    11    35    36    1
    12    35    38    1
    13    36    42   am
    14    48    47   ar
    15    39    38    1
    16    39    41    1
    17    39    40    1
    18    64    63    2
    19    42    43    1
    20    47    49   ar
    21    47    46    1
    22    43    46    1
    23    43    44    1
    24    63    62    1
    25    53    52    2
    26    44    50   am
    27    44    45    2
    28    50    51    1
    29    57    56    2
    30    62    65    1
    31    62    61    1
    32    52    51    1
    33    52    54   am
    34    25    24    2
    35    56    61   am
    36    56    55    1
    37    55    54    1
    38    55    58    1
    39    54    60    1
    40    24    23    1
    41    26    23    1
    42    23    22    1
    43    58    59    1
    44    60    59    1
    45    20    19    2
    46    19    18    1
    47    21    18    1
    48    18    17    1
    49    12    11    2
    50    17    11   am
    51    11    10    1
    52    16    14    1
    53     8     6   ar
    54     4     3    2
    55     6     5    1
    56     6     7   ar
    57     5     2    1
    58    14    13    1
    59    14    15    1
    60    10    13    1
    61    10     9    1
    62     3     2    1
    63     1     2    1
