@<TRIPOS>MOLECULE
tmp/5wqxA00.pdb
 230 219 0 0 0
SMALL
GASTEIGER

@<TRIPOS>ATOM
      1  N         22.2080   25.6740    9.7290 N.3    63  ILE63      -0.1231
      2  CA        21.6680   24.3270    9.6590 C.3    63  ILE63       0.1692
      3  C         21.4550   23.8000   11.0680 C.2    63  ILE63       0.2592
      4  O         20.3970   23.2320   11.3770 O.2    63  ILE63      -0.2718
      5  CB        22.5870   23.3600    8.8750 C.3    63  ILE63       0.0266
      6  CG1       22.5580   23.7030    7.3930 C.3    63  ILE63       0.0019
      7  CG2       22.1270   21.9110    9.0520 C.3    63  ILE63       0.0020
      8  CD1       23.5560   22.9260    6.5600 C.3    63  ILE63       0.0001
      9  N         22.4670   23.9810   11.9130 N.am   64  PHE64      -0.1976
     10  CA        22.4190   23.4140   13.2530 C.3    64  PHE64       0.1639
     11  C         21.3120   24.0610   14.1060 C.2    64  PHE64       0.2290
     12  O         20.7060   23.4100   14.9500 O.2    64  PHE64      -0.2864
     13  CB        23.7860   23.5030   13.9460 C.3    64  PHE64       0.0560
     14  CG        23.8840   22.6800   15.2180 C.ar   64  PHE64      -0.0200
     15  CD1       24.4350   21.4040   15.2030 C.ar   64  PHE64      -0.0042
     16  CD2       23.4340   23.1960   16.4350 C.ar   64  PHE64      -0.0042
     17  CE1       24.5300   20.6510   16.3660 C.ar   64  PHE64      -0.0003
     18  CE2       23.5260   22.4550   17.6090 C.ar   64  PHE64      -0.0003
     19  CZ        24.0800   21.1760   17.5730 C.ar   64  PHE64      -0.0000
     20  N         18.5100   25.3020   12.7370 N.3    66  GLY66      -0.1210
     21  CA        17.3270   24.7120   12.1510 C.3    66  GLY66       0.1956
     22  C         17.0220   23.3890   12.8030 C.2    66  GLY66       0.2612
     23  O         15.8810   23.1130   13.1540 O.2    66  GLY66      -0.2717
     24  N         18.0570   22.5760   12.9820 N.am   67  CYS67      -0.1956
     25  CA        17.9010   21.2730   13.6070 C.3    67  CYS67       0.1843
     26  C         17.4410   21.4030   15.0680 C.2    67  CYS67       0.2625
     27  O         16.6190   20.6250   15.5390 O.2    67  CYS67      -0.2714
     28  CB        19.2270   20.5450   13.5080 C.3    67  CYS67       0.0997
     29  SG        19.2070   18.9650   14.3480 S.3    67  CYS67      -0.0797
     30  N         17.9620   22.4120   15.7580 N.am   68  GLN68      -0.1977
     31  CA        17.5700   22.7330   17.1370 C.3    68  GLN68       0.1601
     32  C         16.1140   23.0620   17.2590 C.2    68  GLN68       0.2287
     33  O         15.4200   22.4960   18.0900 O.2    68  GLN68      -0.2864
     34  CB        18.3460   23.9450   17.6710 C.3    68  GLN68       0.0394
     35  CG        19.5330   23.5800   18.5430 C.3    68  GLN68       0.0908
     36  CD        20.1070   24.7460   19.3470 C.2    68  GLN68       0.2608
     37  OE1       19.7220   25.9320   19.2130 O.2    68  GLN68      -0.2717
     38  NE2       21.0750   24.4090   20.1730 N.am   68  GLN68      -0.0878
     39  N         13.7560   22.5120   15.1100 N.3    70  ARG70      -0.1231
     40  CA        13.0380   21.3080   14.7830 C.3    70  ARG70       0.1694
     41  C         12.9900   20.3060   15.9620 C.2    70  ARG70       0.2592
     42  O         11.9660   19.6790   16.1940 O.2    70  ARG70      -0.2718
     43  CB        13.6450   20.6570   13.5410 C.3    70  ARG70       0.0321
     44  CG        12.9840   19.3660   13.0970 C.3    70  ARG70       0.0489
     45  CD        11.4940   19.5140   12.7630 C.3    70  ARG70       0.2205
     46  NE        10.8430   18.2120   12.9270 N.pl3  70  ARG70      -0.0865
     47  CZ         9.6460   18.0080   13.4590 C.cat  70  ARG70       0.5346
     48  NH1        8.8960   19.0240   13.9000 N.pl3  70  ARG70       0.1354
     49  NH2        9.1920   16.7660   13.5860 N.pl3  70  ARG70       0.1354
     50  N         14.0780   20.1470   16.6940 N.am   71  SER71      -0.1952
     51  CA        14.0760   19.2340   17.8210 C.3    71  SER71       0.1924
     52  C         13.0880   19.7100   18.8950 C.2    71  SER71       0.2314
     53  O         12.4040   18.9090   19.5130 O.2    71  SER71      -0.2863
     54  CB        15.4760   19.0970   18.4120 C.3    71  SER71       0.2116
     55  OG        16.2820   18.2110   17.6490 O.3    71  SER71      -0.2180
     56  N         10.2710   21.4080   18.3880 N.3    73  GLU73      -0.1245
     57  CA         8.9070   21.0890   17.9510 C.3    73  GLU73       0.1567
     58  C          8.5990   19.5920   18.1660 C.2    73  GLU73       0.2260
     59  O          7.4620   19.2020   18.4630 O.2    73  GLU73      -0.2867
     60  CB         8.6950   21.4690   16.4720 C.3    73  GLU73       0.0388
     61  CG         8.8950   22.9490   16.1700 C.3    73  GLU73       0.1160
     62  CD         9.0940   23.2430   14.6910 C.2    73  GLU73       0.3649
     63  OE1        9.9100   22.5430   14.0250 O.co2  73  GLU73      -0.2457
     64  OE2        8.4390   24.1940   14.1790 O.co2  73  GLU73      -0.2457
     65  N         14.8060   12.3210   23.5100 N.3   105  HIS105     -0.1241
     66  CA        15.8130   12.1440   22.4830 C.3   105  HIS105      0.1621
     67  C         15.7860   10.7850   21.8410 C.2   105  HIS105      0.2264
     68  O         15.8250   10.6860   20.6120 O.2   105  HIS105     -0.2867
     69  CB        17.1710   12.5700   22.9460 C.3   105  HIS105      0.0745
     70  CG        17.3470   14.0420   22.8580 C.ar  105  HIS105      0.0817
     71  ND1       17.0810   14.8850   23.9120 N.ar  105  HIS105     -0.2268
     72  CD2       17.6570   14.8320   21.8050 C.ar  105  HIS105      0.1154
     73  CE1       17.2670   16.1360   23.5240 C.ar  105  HIS105      0.1986
     74  NE2       17.6170   16.1300   22.2490 N.ar  105  HIS105     -0.2212
     75  N         13.1300   10.9360   19.2650 N.3   108  ILE108     -0.1231
     76  CA        13.4410   11.8170   18.1380 C.3   108  ILE108      0.1692
     77  C         14.2940   11.0700   17.1120 C.2   108  ILE108      0.2592
     78  O         13.9710   11.0660   15.9540 O.2   108  ILE108     -0.2718
     79  CB        14.2150   13.0540   18.5980 C.3   108  ILE108      0.0266
     80  CG1       13.2410   14.0560   19.2350 C.3   108  ILE108      0.0019
     81  CG2       14.9520   13.6980   17.4280 C.3   108  ILE108      0.0020
     82  CD1       13.9270   15.2230   19.9430 C.3   108  ILE108      0.0001
     83  N         15.3270   10.3920   17.5820 N.am  109  TYR109     -0.1976
     84  CA        16.1630    9.5320   16.7470 C.3   109  TYR109      0.1639
     85  C         15.4410    8.3100   16.1180 C.2   109  TYR109      0.2290
     86  O         15.6980    7.9780   14.9970 O.2   109  TYR109     -0.2864
     87  CB        17.4760    9.2090   17.5130 C.3   109  TYR109      0.0560
     88  CG        18.2160   10.5260   17.8790 C.ar  109  TYR109     -0.0198
     89  CD1       18.1850   11.6180   17.0000 C.ar  109  TYR109     -0.0009
     90  CD2       18.8780   10.7080   19.0960 C.ar  109  TYR109     -0.0009
     91  CE1       18.7860   12.8300   17.3060 C.ar  109  TYR109      0.0417
     92  CE2       19.5080   11.9260   19.4080 C.ar  109  TYR109      0.0417
     93  CZ        19.4370   12.9880   18.5010 C.ar  109  TYR109      0.1957
     94  OH        20.0410   14.2340   18.7180 O.3   109  TYR109     -0.2866
     95  N         13.1580    9.9300   13.4280 N.3   112  LEU112     -0.1245
     96  CA        13.9120   10.6180   12.4300 C.3   112  LEU112      0.1561
     97  C         14.3900    9.6370   11.3660 C.2   112  LEU112      0.2260
     98  O         14.4680   10.0190   10.2150 O.2   112  LEU112     -0.2867
     99  CB        15.1230   11.2710   13.0560 C.3   112  LEU112      0.0270
    100  CG        16.1320   11.9300   12.1360 C.3   112  LEU112      0.0019
    101  CD1       15.4470   13.1040   11.4470 C.3   112  LEU112      0.0001
    102  CD2       17.3560   12.3600   12.9240 C.3   112  LEU112      0.0001
    103  N         17.9780   12.9230    4.2730 N.3   121  VAL121     -0.1231
    104  CA        16.9270   13.1440    5.2410 C.3   121  VAL121      0.1692
    105  C         15.9310   14.1960    4.7990 C.2   121  VAL121      0.2592
    106  O         16.2910   15.2670    4.3440 O.2   121  VAL121     -0.2718
    107  CB        17.5310   13.5150    6.6220 C.3   121  VAL121      0.0266
    108  CG1       18.2810   14.8420    6.6060 C.3   121  VAL121      0.0020
    109  CG2       16.4760   13.5270    7.6900 C.3   121  VAL121      0.0020
    110  N         14.6610   13.8730    4.9500 N.am  122  LEU122     -0.1966
    111  CA        13.5910   14.8290    4.6770 C.3   122  LEU122      0.1728
    112  C         13.6650   15.9920    5.6320 C.2   122  LEU122      0.2616
    113  O         14.0700   15.8160    6.7600 O.2   122  LEU122     -0.2715
    114  CB        12.2110   14.1830    4.7870 C.3   122  LEU122      0.0311
    115  CG        11.7940   13.2650    3.6480 C.3   122  LEU122      0.0022
    116  CD1       10.5220   12.5410    3.9880 C.3   122  LEU122      0.0001
    117  CD2       11.6100   14.0450    2.3650 C.3   122  LEU122      0.0001
    118  N         13.3050   17.1770    5.1600 N.am  123  ILE123     -0.1963
    119  CA        13.2690   18.3820    5.9790 C.3   123  ILE123      0.1727
    120  C         12.0340   19.2160    5.6600 C.2   123  ILE123      0.2617
    121  O         11.3670   19.0360    4.6470 O.2   123  ILE123     -0.2715
    122  CB        14.5460   19.2500    5.8180 C.3   123  ILE123      0.0290
    123  CG1       14.6830   19.8300    4.3980 C.3   123  ILE123      0.0022
    124  CG2       15.7800   18.4460    6.2000 C.3   123  ILE123      0.0023
    125  CD1       15.6460   20.9960    4.3270 C.3   123  ILE123      0.0001
    126  N         11.7250   20.1420    6.5550 N.am  124  SER124     -0.1936
    127  CA        10.6000   21.0470    6.3750 C.3   124  SER124      0.2055
    128  C          9.3130   20.3150    6.0010 C.2   124  SER124      0.2642
    129  O          8.6830   20.5570    4.9380 O.2   124  SER124     -0.2714
    130  CB        10.9530   22.1020    5.3410 C.3   124  SER124      0.2130
    131  OG         9.8800   23.0040    5.2120 O.3   124  SER124     -0.2179
    132  N          8.9570   19.3860    6.8800 N.am  125  GLU125     -0.1976
    133  CA         7.7290   18.6180    6.7690 C.3   125  GLU125      0.1602
    134  C          7.6660   17.8600    5.4520 C.2   125  GLU125      0.2287
    135  O          6.5720   17.7070    4.8950 O.2   125  GLU125     -0.2864
    136  CB         6.4970   19.5630    6.8760 C.3   125  GLU125      0.0415
    137  CG         6.3810   20.3190    8.2130 C.3   125  GLU125      0.1163
    138  CD         5.2470   21.3730    8.2050 C.2   125  GLU125      0.3649
    139  OE1        5.4970   22.5640    7.7930 O.co2 125  GLU125     -0.2457
    140  OE2        4.0880   21.0050    8.5980 O.co2 125  GLU125     -0.2457
    141  N         17.7460   16.7860    2.3340 N.3   130  MET130     -0.1245
    142  CA        19.1100   17.2230    2.4710 C.3   130  MET130      0.1570
    143  C         19.9990   15.9920    2.4530 C.2   130  MET130      0.2261
    144  O         19.7860   15.0460    3.2240 O.2   130  MET130     -0.2867
    145  CB        19.2720   17.9700    3.7700 C.3   130  MET130      0.0387
    146  CG        20.6230   18.6480    3.9290 C.3   130  MET130      0.0595
    147  SD        20.7210   19.5900    5.4590 S.3   130  MET130     -0.1393
    148  CE        19.7700   21.0470    5.0490 C.3   130  MET130      0.0692
    149  N         25.6680   17.2090    4.4960 N.3   135  LEU135     -0.1245
    150  CA        25.7410   17.2860    5.9650 C.3   135  LEU135      0.1561
    151  C         27.0830   16.8220    6.5260 C.2   135  LEU135      0.2260
    152  O         27.5340   17.3210    7.5610 O.2   135  LEU135     -0.2867
    153  CB        24.6520   16.4120    6.5850 C.3   135  LEU135      0.0270
    154  CG        23.2570   17.0160    6.5980 C.3   135  LEU135      0.0019
    155  CD1       22.2150   15.9140    6.5380 C.3   135  LEU135      0.0001
    156  CD2       23.0760   17.8620    7.8540 C.3   135  LEU135      0.0001
    157  N         27.5740   15.5190   13.3480 N.3   145  PHE145     -0.1227
    158  CA        26.4420   15.4220   14.2400 C.3   145  PHE145      0.1736
    159  C         25.4500   14.4030   13.6800 C.2   145  PHE145      0.2595
    160  O         24.7900   13.6970   14.4570 O.2   145  PHE145     -0.2718
    161  CB        25.8230   16.8190   14.6410 C.3   145  PHE145      0.0547
    162  CG        24.9950   17.5190   13.5710 C.ar  145  PHE145     -0.0202
    163  CD1       23.5990   17.4430   13.5610 C.ar  145  PHE145     -0.0042
    164  CD2       25.5980   18.3640   12.6420 C.ar  145  PHE145     -0.0042
    165  CE1       22.8540   18.1360   12.5860 C.ar  145  PHE145     -0.0003
    166  CE2       24.8470   19.0380   11.6650 C.ar  145  PHE145     -0.0003
    167  CZ        23.4730   18.9230   11.6410 C.ar  145  PHE145     -0.0000
    168  N         25.3810   14.2710   12.3550 N.am  146  MET146     -0.1979
    169  CA        24.2910   13.4980   11.7350 C.3   146  MET146      0.1605
    170  C         24.6300   12.0660   11.3210 C.2   146  MET146      0.2287
    171  O         23.7470   11.1920   11.3290 O.2   146  MET146     -0.2864
    172  CB        23.6750   14.2580   10.5720 C.3   146  MET146      0.0413
    173  CG        22.7760   15.4100   11.0170 C.3   146  MET146      0.0598
    174  SD        21.4090   14.9860   12.1350 S.3   146  MET146     -0.1393
    175  CE        20.5640   13.8240   11.0620 C.3   146  MET146      0.0692
    176  N         23.2580    9.0160   13.2480 N.3   149  LYS149     -0.1245
    177  CA        21.8030    8.9030   13.0800 C.3   149  LYS149      0.1561
    178  C         21.4690    8.1640   11.7640 C.2   149  LYS149      0.2260
    179  O         20.5560    7.3510   11.7320 O.2   149  LYS149     -0.2867
    180  CB        21.1230   10.2780   13.0950 C.3   149  LYS149      0.0271
    181  CG        20.8620   10.9060   14.4680 C.3   149  LYS149      0.0035
    182  CD        22.1310   11.2640   15.2110 C.3   149  LYS149      0.0206
    183  CE        21.9720   12.5220   16.0540 C.3   149  LYS149      0.1093
    184  NZ        23.2400   12.8160   16.7940 N.3   149  LYS149     -0.1314
    185  N         25.9030   12.3110   21.0980 N.3   231  HIS231     -0.1241
    186  CA        25.3560   13.6360   20.7870 C.3   231  HIS231      0.1621
    187  C         25.7460   14.6390   21.8780 C.2   231  HIS231      0.2264
    188  O         26.3700   15.6870   21.6040 O.2   231  HIS231     -0.2867
    189  CB        23.8240   13.5780   20.6030 C.3   231  HIS231      0.0745
    190  CG        23.2130   14.8870   20.1990 C.ar  231  HIS231      0.0817
    191  ND1       23.3500   15.4130   18.9370 N.ar  231  HIS231     -0.2268
    192  CD2       22.4740   15.7840   20.8980 C.ar  231  HIS231      0.1154
    193  CE1       22.7330   16.5800   18.8750 C.ar  231  HIS231      0.1986
    194  NE2       22.1790   16.8220   20.0490 N.ar  231  HIS231     -0.2212
    195  N         27.6690   18.0810   21.7450 N.3   235  LEU235     -0.1245
    196  CA        27.1240   19.3540   22.2630 C.3   235  LEU235      0.1561
    197  C         28.0540   20.0510   23.2390 C.2   235  LEU235      0.2260
    198  O         28.1950   21.2820   23.2230 O.2   235  LEU235     -0.2867
    199  CB        25.7770   19.1470   22.9610 C.3   235  LEU235      0.0270
    200  CG        24.5470   19.6330   22.1960 C.3   235  LEU235      0.0019
    201  CD1       24.3630   18.7850   20.9520 C.3   235  LEU235      0.0001
    202  CD2       23.2890   19.6150   23.0610 C.3   235  LEU235      0.0001
    203  N         21.6350   27.8690   22.4930 N.3   247  LEU247     -0.1245
    204  CA        20.8950   26.6370   22.5440 C.3   247  LEU247      0.1561
    205  C         19.5460   26.9450   23.1560 C.2   247  LEU247      0.2260
    206  O         19.4650   27.7310   24.1090 O.2   247  LEU247     -0.2867
    207  CB        21.6560   25.5830   23.3630 C.3   247  LEU247      0.0270
    208  CG        22.9330   24.9810   22.7300 C.3   247  LEU247      0.0019
    209  CD1       23.8460   26.0250   22.0850 C.3   247  LEU247      0.0001
    210  CD2       23.7530   24.1760   23.7280 C.3   247  LEU247      0.0001
    211  N         15.7030   22.6410   25.2910 N.3   251  LEU251     -0.1245
    212  CA        16.7580   21.6460   25.0170 C.3   251  LEU251      0.1561
    213  C         17.8620   21.6150   26.0730 C.2   251  LEU251      0.2260
    214  O         18.3290   20.5460   26.4610 O.2   251  LEU251     -0.2867
    215  CB        17.3900   21.9000   23.6590 C.3   251  LEU251      0.0270
    216  CG        16.5130   21.6840   22.4350 C.3   251  LEU251      0.0019
    217  CD1       17.3330   21.9560   21.1770 C.3   251  LEU251      0.0001
    218  CD2       15.9460   20.2690   22.4070 C.3   251  LEU251      0.0001
    219  N         19.1110   18.3200   28.4940 N.3   255  TYR255     -0.1241
    220  CA        20.5050   17.8550   28.5860 C.3   255  TYR255      0.1605
    221  C         21.1540   17.9810   29.9780 C.2   255  TYR255      0.2264
    222  O         22.0790   17.2240   30.2980 O.2   255  TYR255     -0.2867
    223  CB        21.3590   18.5460   27.4990 C.3   255  TYR255      0.0534
    224  CG        20.9090   18.1830   26.0720 C.ar  255  TYR255     -0.0201
    225  CD1       20.7540   16.8440   25.6770 C.ar  255  TYR255     -0.0009
    226  CD2       20.6520   19.1700   25.1250 C.ar  255  TYR255     -0.0009
    227  CE1       20.3580   16.5060   24.3850 C.ar  255  TYR255      0.0417
    228  CE2       20.2650   18.8440   23.8450 C.ar  255  TYR255      0.0417
    229  CZ        20.1160   17.5160   23.4730 C.ar  255  TYR255      0.1957
    230  OH        19.7240   17.2390   22.1480 O.3   255  TYR255     -0.2866
@<TRIPOS>BOND
     1   141   142    1
     2   117   115    1
     3   143   142    1
     4   143   144    2
     5   142   145    1
     6   115   116    1
     7   115   114    1
     8   145   146    1
     9   146   147    1
    10   103   104    1
    11   125   123    1
    12   106   105    2
    13   123   122    1
    14   149   150    1
    15   121   120    2
    16   111   114    1
    17   111   110    1
    18   111   112    1
    19   105   110   am
    20   105   104    1
    21   135   134    2
    22   129   128    2
    23   148   147    1
    24   118   112   am
    25   118   119    1
    26   131   130    1
    27   104   107    1
    28   130   127    1
    29   134   133    1
    30   112   113    2
    31   120   119    1
    32   120   126   am
    33   122   119    1
    34   122   124    1
    35   150   151    1
    36   150   153    1
    37   128   127    1
    38   128   132   am
    39   127   126    1
    40   151   152    2
    41   155   154    1
    42     8     6    1
    43   153   154    1
    44   154   156    1
    45   108   107    1
    46   107   109    1
    47   133   136    1
    48   133   132    1
    49   136   137    1
    50     6     5    1
    51   139   138   ar
    52   138   137    1
    53   138   140   ar
    54     5     7    1
    55     5     2    1
    56     2     1    1
    57     2     3    1
    58    98    97    2
    59   172   173    1
    60   172   169    1
    61   173   174    1
    62   175   174    1
    63     3     4    2
    64     3     9   am
    65   170   171    2
    66   170   169    1
    67    97    96    1
    68   101   100    1
    69   167   166   ar
    70   167   165   ar
    71   166   164   ar
    72   179   178    2
    73   169   168    1
    74   178   177    1
    75     9    10    1
    76   100   102    1
    77   100    99    1
    78    21    20    1
    79    21    22    1
    80   168   159   am
    81    96    99    1
    82    96    95    1
    83   165   163   ar
    84   164   162   ar
    85    45    46    1
    86    45    44    1
    87    22    24   am
    88    22    23    2
    89    46    47    2
    90    24    25    1
    91   177   180    1
    92   177   176    1
    93   180   181    1
    94    44    43    1
    95    10    13    1
    96    10    11    1
    97   157   158    1
    98    47    49    1
    99    47    48    1
   100    28    25    1
   101    28    29    1
   102    43    40    1
   103   163   162   ar
   104   162   161    1
   105    25    26    1
   106   159   158    1
   107   159   160    2
   108    13    14    1
   109    63    62   ar
   110    11    12    2
   111    64    62   ar
   112   158   161    1
   113   181   182    1
   114    62    61    1
   115    40    39    1
   116    40    41    1
   117    86    85    2
   118    26    27    2
   119    26    30   am
   120    15    14   ar
   121    15    17   ar
   122   182   183    1
   123    14    16   ar
   124    30    31    1
   125    78    77    2
   126    41    42    2
   127    41    50   am
   128   183   184    1
   129    85    84    1
   130    61    60    1
   131    17    19   ar
   132    16    18   ar
   133    60    57    1
   134    50    51    1
   135    84    87    1
   136    84    83    1
   137    89    91   ar
   138    89    88   ar
   139    77    83   am
   140    77    76    1
   141    31    32    1
   142    31    34    1
   143    32    33    2
   144    91    93   ar
   145    81    79    1
   146    87    88    1
   147    19    18   ar
   148    55    54    1
   149    34    35    1
   150    51    54    1
   151    51    52    1
   152    88    90   ar
   153    57    58    1
   154    57    56    1
   155    76    79    1
   156    76    75    1
   157    58    59    2
   158    93    94    1
   159    93    92   ar
   160    35    36    1
   161    79    80    1
   162   193   191   ar
   163   193   194   ar
   164    52    53    2
   165   191   190   ar
   166    90    92   ar
   167    37    36    2
   168    80    82    1
   169    36    38   am
   170   194   192   ar
   171   190   189    1
   172   190   192   ar
   173   189   186    1
   174    68    67    2
   175   186   185    1
   176   186   187    1
   177   201   200    1
   178   217   216    1
   179   188   187    2
   180   195   196    1
   181    72    74   ar
   182    72    70   ar
   183    67    66    1
   184   209   208    1
   185   230   229    1
   186   200   199    1
   187   200   202    1
   188    74    73   ar
   189   196   199    1
   190   196   197    1
   191   218   216    1
   192   216   215    1
   193    66    69    1
   194    66    65    1
   195   203   204    1
   196   204   205    1
   197   204   207    1
   198   208   207    1
   199   208   210    1
   200    70    69    1
   201    70    71   ar
   202   205   206    2
   203   198   197    2
   204   229   228   ar
   205   229   227   ar
   206    73    71   ar
   207   215   212    1
   208   228   226   ar
   209   227   225   ar
   210   212   211    1
   211   212   213    1
   212   226   224   ar
   213   225   224   ar
   214   224   223    1
   215   213   214    2
   216   223   220    1
   217   219   220    1
   218   220   221    1
   219   221   222    2
