@<TRIPOS>MOLECULE
tmp/5wr3A00.pdb
 149 144 0 0 0
SMALL
GASTEIGER

@<TRIPOS>ATOM
      1  N         32.3750   33.9030   66.8670 N.3   111  ASN111     -0.1225
      2  CA        33.5390   34.7380   67.1610 C.3   111  ASN111      0.1785
      3  C         33.7890   35.7830   66.0970 C.2   111  ASN111      0.2597
      4  O         34.9040   35.9200   65.6100 O.2   111  ASN111     -0.2718
      5  CB        34.8030   33.8730   67.2930 C.3   111  ASN111      0.1169
      6  CG        34.8350   33.0700   68.5700 C.2   111  ASN111      0.2627
      7  OD1       34.4430   33.5460   69.6280 O.2   111  ASN111     -0.2716
      8  ND2       35.3100   31.8420   68.4770 N.am  111  ASN111     -0.0877
      9  N         32.7610   36.5210   65.7220 N.am  112  ASN112     -0.1960
     10  CA        32.8900   37.3940   64.5800 C.3   112  ASN112      0.1819
     11  C         31.8350   38.4930   64.5830 C.2   112  ASN112      0.2621
     12  O         30.7900   38.3800   65.2320 O.2   112  ASN112     -0.2715
     13  CB        32.7930   36.5490   63.3080 C.3   112  ASN112      0.1195
     14  CG        33.4450   37.1950   62.1180 C.2   112  ASN112      0.2630
     15  OD1       34.5450   37.7460   62.2100 O.2   112  ASN112     -0.2716
     16  ND2       32.7750   37.1180   60.9770 N.am  112  ASN112     -0.0877
     17  N         32.1330   39.5640   63.8670 N.am  113  ALA113     -0.1963
     18  CA        31.1780   40.6280   63.6160 C.3   113  ALA113      0.1728
     19  C         31.3000   41.0010   62.1480 C.2   113  ALA113      0.2616
     20  O         32.3600   40.8240   61.5580 O.2   113  ALA113     -0.2715
     21  CB        31.4380   41.8290   64.5070 C.3   113  ALA113      0.0334
     22  N         30.2210   41.4940   61.5500 N.am  114  PHE114     -0.1974
     23  CA        30.2980   41.8970   60.1570 C.3   114  PHE114      0.1639
     24  C         29.2100   42.8700   59.7200 C.2   114  PHE114      0.2290
     25  O         28.1800   43.0490   60.3820 O.2   114  PHE114     -0.2864
     26  CB        30.2920   40.6540   59.2280 C.3   114  PHE114      0.0560
     27  CG        29.0800   39.7690   59.3580 C.ar  114  PHE114     -0.0200
     28  CD1       29.0540   38.7390   60.2920 C.ar  114  PHE114     -0.0042
     29  CD2       27.9870   39.9230   58.5020 C.ar  114  PHE114     -0.0042
     30  CE1       27.9480   37.8850   60.4010 C.ar  114  PHE114     -0.0003
     31  CE2       26.8690   39.0830   58.6070 C.ar  114  PHE114     -0.0003
     32  CZ        26.8540   38.0560   59.5620 C.ar  114  PHE114     -0.0000
     33  N         36.6990   35.2700   72.2920 N.3   130  PHE130     -0.1241
     34  CA        35.9890   36.5490   72.3170 C.3   130  PHE130      0.1605
     35  C         34.8610   36.5330   73.3320 C.2   130  PHE130      0.2264
     36  O         34.2430   35.5020   73.5510 O.2   130  PHE130     -0.2867
     37  CB        35.3760   36.8830   70.9510 C.3   130  PHE130      0.0534
     38  CG        36.3570   37.3550   69.9160 C.ar  130  PHE130     -0.0203
     39  CD1       36.8770   38.6410   69.9630 C.ar  130  PHE130     -0.0042
     40  CD2       36.7110   36.5320   68.8620 C.ar  130  PHE130     -0.0042
     41  CE1       37.7620   39.0820   68.9970 C.ar  130  PHE130     -0.0003
     42  CE2       37.5970   36.9670   67.8850 C.ar  130  PHE130     -0.0003
     43  CZ        38.1230   38.2410   67.9510 C.ar  130  PHE130     -0.0000
     44  N         31.0330   40.8190   70.7730 N.3   133  LEU133     -0.1245
     45  CA        31.9360   41.6640   70.0080 C.3   133  LEU133      0.1561
     46  C         31.5520   43.1440   70.0040 C.2   133  LEU133      0.2260
     47  O         32.4020   44.0070   69.7690 O.2   133  LEU133     -0.2867
     48  CB        32.0560   41.1180   68.5860 C.3   133  LEU133      0.0270
     49  CG        33.1360   40.0200   68.6440 C.3   133  LEU133      0.0019
     50  CD1       32.5580   38.6070   68.7470 C.3   133  LEU133      0.0001
     51  CD2       34.1410   40.1290   67.5260 C.3   133  LEU133      0.0001
     52  N         35.6320   47.8170   67.5170 N.3   139  VAL139     -0.1245
     53  CA        34.9350   46.8050   66.7110 C.3   139  VAL139      0.1561
     54  C         33.7150   47.4020   65.9930 C.2   139  VAL139      0.2260
     55  O         33.5700   47.2810   64.7760 O.2   139  VAL139     -0.2867
     56  CB        34.4600   45.6150   67.5720 C.3   139  VAL139      0.0252
     57  CG1       33.6970   44.5920   66.7150 C.3   139  VAL139      0.0019
     58  CG2       35.6370   44.9550   68.2620 C.3   139  VAL139      0.0019
     59  N         34.7650   49.9440   63.4290 N.3   142  HIS142     -0.1226
     60  CA        35.3520   49.1870   62.3220 C.3   142  HIS142      0.1752
     61  C         34.2480   48.7100   61.3610 C.2   142  HIS142      0.2595
     62  O         34.3330   48.9020   60.1470 O.2   142  HIS142     -0.2718
     63  CB        36.1560   48.0010   62.8810 C.3   142  HIS142      0.0759
     64  CG        36.7480   47.0940   61.8390 C.ar  142  HIS142      0.0818
     65  ND1       38.1060   47.0130   61.6090 N.ar  142  HIS142     -0.2268
     66  CD2       36.1740   46.1980   60.9970 C.ar  142  HIS142      0.1154
     67  CE1       38.3400   46.1290   60.6540 C.ar  142  HIS142      0.1986
     68  NE2       37.1850   45.6190   60.2690 N.ar  142  HIS142     -0.2212
     69  N         33.2110   48.0880   61.9140 N.am  143  GLU143     -0.1979
     70  CA        32.0990   47.5910   61.1360 C.3   143  GLU143      0.1602
     71  C         31.3560   48.6920   60.3920 C.2   143  GLU143      0.2287
     72  O         31.1240   48.6070   59.1860 O.2   143  GLU143     -0.2864
     73  CB        31.1390   46.7470   61.9610 C.3   143  GLU143      0.0415
     74  CG        31.7670   45.4650   62.5710 C.3   143  GLU143      0.1163
     75  CD        32.5130   44.6050   61.5520 C.2   143  GLU143      0.3649
     76  OE1       32.1710   44.6300   60.3500 O.co2 143  GLU143     -0.2457
     77  OE2       33.4380   43.8740   61.9530 O.co2 143  GLU143     -0.2457
     78  N         33.0570   49.9710   57.3980 N.3   146  HIS146     -0.1241
     79  CA        32.9020   49.1420   56.1910 C.3   146  HIS146      0.1621
     80  C         31.7360   49.6550   55.3450 C.2   146  HIS146      0.2264
     81  O         31.7980   49.6530   54.1230 O.2   146  HIS146     -0.2867
     82  CB        32.6660   47.6690   56.5470 C.3   146  HIS146      0.0745
     83  CG        33.9240   46.8840   56.7740 C.ar  146  HIS146      0.0817
     84  ND1       34.9760   46.8820   55.8780 N.ar  146  HIS146     -0.2268
     85  CD2       34.2940   46.0700   57.7890 C.ar  146  HIS146      0.1154
     86  CE1       35.9360   46.0990   56.3350 C.ar  146  HIS146      0.1986
     87  NE2       35.5480   45.5900   57.4900 N.ar  146  HIS146     -0.2212
     88  N         36.6530   43.7750   48.1250 N.3   157  TYR157     -0.1241
     89  CA        37.1710   43.0870   49.3050 C.3   157  TYR157      0.1605
     90  C         38.1110   41.9500   48.9160 C.2   157  TYR157      0.2264
     91  O         37.8600   40.7780   49.1950 O.2   157  TYR157     -0.2867
     92  CB        36.0190   42.5600   50.1620 C.3   157  TYR157      0.0534
     93  CG        36.3700   42.4700   51.6280 C.ar  157  TYR157     -0.0201
     94  CD1       36.8400   43.5860   52.3130 C.ar  157  TYR157     -0.0009
     95  CD2       36.2250   41.2750   52.3320 C.ar  157  TYR157     -0.0009
     96  CE1       37.1610   43.5190   53.6570 C.ar  157  TYR157      0.0417
     97  CE2       36.5370   41.1960   53.6880 C.ar  157  TYR157      0.0417
     98  CZ        37.0050   42.3260   54.3400 C.ar  157  TYR157      0.1957
     99  OH        37.3200   42.2710   55.6750 O.3   157  TYR157     -0.2866
    100  N         40.1630   47.0570   54.6870 N.3   166  GLU166     -0.1245
    101  CA        40.4010   46.6500   56.0820 C.3   166  GLU166      0.1567
    102  C         41.1090   47.7030   56.9250 C.2   166  GLU166      0.2260
    103  O         40.7230   47.9710   58.0520 O.2   166  GLU166     -0.2867
    104  CB        41.2340   45.3590   56.1330 C.3   166  GLU166      0.0388
    105  CG        40.4280   44.1080   56.3030 C.3   166  GLU166      0.1160
    106  CD        39.4310   44.2260   57.4460 C.2   166  GLU166      0.3649
    107  OE1       39.8390   44.2590   58.6270 O.co2 166  GLU166     -0.2457
    108  OE2       38.2300   44.2860   57.1540 O.co2 166  GLU166     -0.2457
    109  N         43.7930   46.7820   68.1270 N.3   188  ILE188     -0.1231
    110  CA        42.4570   46.4770   67.6340 C.3   188  ILE188      0.1692
    111  C         41.8300   45.3050   68.3890 C.2   188  ILE188      0.2592
    112  O         42.3840   44.2020   68.4220 O.2   188  ILE188     -0.2718
    113  CB        42.4840   46.1500   66.1290 C.3   188  ILE188      0.0266
    114  CG1       43.0920   47.3120   65.3250 C.3   188  ILE188      0.0019
    115  CG2       41.0860   45.7480   65.6330 C.3   188  ILE188      0.0020
    116  CD1       42.2680   48.5880   65.3190 C.3   188  ILE188      0.0001
    117  N         40.6760   45.5580   69.0010 N.am  189  GLY189     -0.1957
    118  CA        39.8790   44.5130   69.6120 C.3   189  GLY189      0.1869
    119  C         40.2560   44.1360   71.0320 C.2   189  GLY189      0.2309
    120  O         39.7370   43.1550   71.5580 O.2   189  GLY189     -0.2863
    121  N         43.8040   41.6230   68.9710 N.3   202  LEU202     -0.1231
    122  CA        43.7350   40.8560   67.7330 C.3   202  LEU202      0.1693
    123  C         44.7790   41.3180   66.7270 C.2   202  LEU202      0.2591
    124  O         45.4780   40.5010   66.1290 O.2   202  LEU202     -0.2718
    125  CB        42.3470   40.9680   67.1230 C.3   202  LEU202      0.0284
    126  CG        42.1210   40.0700   65.9140 C.3   202  LEU202      0.0019
    127  CD1       42.4070   38.6080   66.2780 C.3   202  LEU202      0.0001
    128  CD2       40.6960   40.2460   65.3790 C.3   202  LEU202      0.0001
    129  N         44.8690   42.6280   66.5500 N.am  203  ARG203     -0.1980
    130  CA        45.8620   43.2420   65.6850 C.3   203  ARG203      0.1597
    131  C         46.4400   44.4350   66.4040 C.2   203  ARG203      0.2287
    132  O         45.8500   44.9280   67.3620 O.2   203  ARG203     -0.2864
    133  CB        45.2610   43.7130   64.3560 C.3   203  ARG203      0.0334
    134  CG        44.7880   42.6350   63.4190 C.3   203  ARG203      0.0492
    135  CD        44.3440   43.2770   62.0970 C.3   203  ARG203      0.2205
    136  NE        43.0770   44.0060   62.2160 N.pl3 203  ARG203     -0.0865
    137  CZ        41.8810   43.4140   62.2400 C.cat 203  ARG203      0.5346
    138  NH1       41.7960   42.0860   62.1890 N.pl3 203  ARG203      0.1354
    139  NH2       40.7710   44.1410   62.3350 N.pl3 203  ARG203      0.1354
    140  N         43.0320   40.7950   55.8250 N.3   231  HIS231     -0.1241
    141  CA        43.2760   41.0750   57.2400 C.3   231  HIS231      0.1621
    142  C         44.7630   40.9670   57.5860 C.2   231  HIS231      0.2264
    143  O         45.1660   41.2490   58.7080 O.2   231  HIS231     -0.2867
    144  CB        42.4600   40.1450   58.1460 C.3   231  HIS231      0.0745
    145  CG        40.9830   40.2750   57.9610 C.ar  231  HIS231      0.0817
    146  ND1       40.2670   39.4810   57.0880 N.ar  231  HIS231     -0.2268
    147  CD2       40.0830   41.1240   58.5170 C.ar  231  HIS231      0.1154
    148  CE1       38.9940   39.8310   57.1190 C.ar  231  HIS231      0.1986
    149  NE2       38.8570   40.8260   57.9790 N.ar  231  HIS231     -0.2212
@<TRIPOS>BOND
     1    88    89    1
     2    90    91    2
     3    90    89    1
     4    89    92    1
     5    92    93    1
     6    93    94   ar
     7    93    95   ar
     8    94    96   ar
     9    95    97   ar
    10    96    98   ar
    11    97    98   ar
    12    81    80    2
    13    98    99    1
    14   100   101    1
    15    80    79    1
    16   140   141    1
    17    84    86   ar
    18    84    83   ar
    19   101   104    1
    20   101   102    1
    21   104   105    1
    22    79    82    1
    23    79    78    1
    24   105   106    1
    25    86    87   ar
    26    82    83    1
    27    83    85   ar
    28   102   103    2
    29   146   148   ar
    30   146   145   ar
    31   148   149   ar
    32   108   106   ar
    33   141   142    1
    34   141   144    1
    35   106   107   ar
    36    87    85   ar
    37   142   143    2
    38   145   144    1
    39   145   147   ar
    40   149   147   ar
    41    29    31   ar
    42    29    27   ar
    43    31    32   ar
    44    72    71    2
    45    26    27    1
    46    26    23    1
    47    27    28   ar
    48    32    30   ar
    49    24    23    1
    50    24    25    2
    51    62    61    2
    52    23    22    1
    53    68    67   ar
    54    68    66   ar
    55    28    30   ar
    56    76    75   ar
    57    71    70    1
    58    67    65   ar
    59    16    14   am
    60    66    64   ar
    61    70    69    1
    62    70    73    1
    63    61    69   am
    64    61    60    1
    65    22    19   am
    66    75    77   ar
    67    75    74    1
    68    20    19    2
    69    65    64   ar
    70    64    63    1
    71    73    74    1
    72   135   136    1
    73   135   134    1
    74    14    15    2
    75    14    13    1
    76    19    18    1
    77   138   137    1
    78   136   137    2
    79   137   139    1
    80    60    63    1
    81    60    59    1
    82    13    10    1
    83   134   133    1
    84    18    17    1
    85    18    21    1
    86    17    11   am
    87   133   130    1
    88    10    11    1
    89    10     9    1
    90    11    12    2
    91    55    54    2
    92   116   114    1
    93   114   113    1
    94   128   126    1
    95     4     3    2
    96   115   113    1
    97   130   131    1
    98   130   129    1
    99     9     3   am
   100   126   127    1
   101   126   125    1
   102    54    53    1
   103     3     2    1
   104   113   110    1
   105   124   123    2
   106   131   132    2
   107   129   123   am
   108    53    52    1
   109    53    56    1
   110    57    56    1
   111   123   122    1
   112     1     2    1
   113   125   122    1
   114     2     5    1
   115     5     6    1
   116    51    49    1
   117    56    58    1
   118   110   109    1
   119   110   111    1
   120   122   121    1
   121    42    43   ar
   122    42    40   ar
   123    43    41   ar
   124   111   112    2
   125   111   117   am
   126     8     6   am
   127     6     7    2
   128    48    49    1
   129    48    45    1
   130    49    50    1
   131    40    38   ar
   132    41    39   ar
   133   117   118    1
   134   118   119    1
   135    47    46    2
   136    38    39   ar
   137    38    37    1
   138    46    45    1
   139    45    44    1
   140    37    34    1
   141   119   120    2
   142    33    34    1
   143    34    35    1
   144    35    36    2
