@<TRIPOS>MOLECULE
tmp/5wr5A01.pdb
 90 85 0 0 0
SMALL
GASTEIGER

@<TRIPOS>ATOM
      1  N         15.0860   57.5540   76.4420 N.3     7  VAL7       -0.1245
      2  CA        16.4680   57.1780   76.6880 C.3     7  VAL7        0.1561
      3  C         16.5020   56.1010   77.7530 C.2     7  VAL7        0.2260
      4  O         15.9980   56.2950   78.8590 O.2     7  VAL7       -0.2867
      5  CB        17.3220   58.3720   77.1180 C.3     7  VAL7        0.0252
      6  CG1       18.7290   57.8970   77.5060 C.3     7  VAL7        0.0019
      7  CG2       17.4030   59.4180   76.0010 C.3     7  VAL7        0.0019
      8  N         23.9410   55.1580   78.6220 N.3    19  ASN19      -0.1225
      9  CA        22.5950   55.4870   78.1850 C.3    19  ASN19       0.1785
     10  C         22.4460   55.2040   76.6980 C.2    19  ASN19       0.2597
     11  O         23.4090   55.3120   75.9410 O.2    19  ASN19      -0.2718
     12  CB        22.2820   56.9540   78.5000 C.3    19  ASN19       0.1169
     13  CG        22.3650   57.2510   79.9950 C.2    19  ASN19       0.2627
     14  OD1       21.7870   56.5350   80.8070 O.2    19  ASN19      -0.2716
     15  ND2       23.1130   58.2840   80.3590 N.am   19  ASN19      -0.0877
     16  N         21.2430   54.8300   76.2850 N.am   20  ILE20      -0.1966
     17  CA        20.9830   54.5050   74.8890 C.3    20  ILE20       0.1727
     18  C         19.6590   55.0970   74.4490 C.2    20  ILE20       0.2616
     19  O         18.6920   55.1000   75.2120 O.2    20  ILE20      -0.2715
     20  CB        20.9390   52.9820   74.6540 C.3    20  ILE20       0.0290
     21  CG1       20.1970   52.3020   75.8010 C.3    20  ILE20       0.0022
     22  CG2       22.3500   52.4240   74.5280 C.3    20  ILE20       0.0023
     23  CD1       19.9100   50.8390   75.5600 C.3    20  ILE20       0.0001
     24  N         19.6180   55.5850   73.2150 N.am   21  ASN21      -0.1972
     25  CA        18.3800   56.1040   72.6450 C.3    21  ASN21       0.1688
     26  C         17.4410   54.9760   72.2570 C.2    21  ASN21       0.2292
     27  O         17.8050   54.0970   71.4780 O.2    21  ASN21      -0.2864
     28  CB        18.6780   56.9670   71.4230 C.3    21  ASN21       0.1181
     29  CG        19.4630   58.1940   71.7680 C.2    21  ASN21       0.2629
     30  OD1       20.6700   58.2550   71.5510 O.2    21  ASN21      -0.2716
     31  ND2       18.7840   59.1870   72.3170 N.am   21  ASN21      -0.0877
     32  N         19.3030   59.8150   65.1250 N.3    35  ARG35      -0.1245
     33  CA        20.3590   59.8090   64.1110 C.3    35  ARG35       0.1563
     34  C         19.8660   59.3010   62.7540 C.2    35  ARG35       0.2260
     35  O         19.5780   58.1170   62.5930 O.2    35  ARG35      -0.2867
     36  CB        21.5480   58.9540   64.5850 C.3    35  ARG35       0.0307
     37  CG        22.1810   59.4350   65.8930 C.3    35  ARG35       0.0489
     38  CD        23.1890   58.4220   66.4570 C.3    35  ARG35       0.2205
     39  NE        24.0470   59.0230   67.4810 N.pl3  35  ARG35      -0.0865
     40  CZ        23.7460   59.1010   68.7740 C.cat  35  ARG35       0.5346
     41  NH1       22.5960   58.6220   69.2240 N.pl3  35  ARG35       0.1354
     42  NH2       24.5970   59.6680   69.6220 N.pl3  35  ARG35       0.1354
     43  N         24.7490   51.3480   70.9200 N.3    75  TYR75      -0.1241
     44  CA        25.4950   52.5200   71.3740 C.3    75  TYR75       0.1605
     45  C         26.6540   52.8410   70.4240 C.2    75  TYR75       0.2264
     46  O         26.8020   53.9760   69.9770 O.2    75  TYR75      -0.2867
     47  CB        25.9910   52.2810   72.8120 C.3    75  TYR75       0.0534
     48  CG        26.7200   53.4450   73.4540 C.ar   75  TYR75      -0.0201
     49  CD1       28.0860   53.6010   73.2860 C.ar   75  TYR75      -0.0009
     50  CD2       26.0460   54.3670   74.2480 C.ar   75  TYR75      -0.0009
     51  CE1       28.7660   54.6480   73.8680 C.ar   75  TYR75       0.0417
     52  CE2       26.7240   55.4280   74.8470 C.ar   75  TYR75       0.0417
     53  CZ        28.0850   55.5560   74.6500 C.ar   75  TYR75       0.1957
     54  OH        28.7850   56.5950   75.2240 O.3    75  TYR75      -0.2866
     55  N         25.7690   54.2600   67.1300 N.3    78  GLY78      -0.1210
     56  CA        25.4890   55.6690   67.3380 C.3    78  GLY78       0.1956
     57  C         26.7520   56.5100   67.3590 C.2    78  GLY78       0.2611
     58  O         26.8240   57.5590   66.7170 O.2    78  GLY78      -0.2717
     59  N         27.7630   56.0450   68.0930 N.am   79  VAL79      -0.1979
     60  CA        29.0330   56.7610   68.1550 C.3    79  VAL79       0.1595
     61  C         29.6800   56.8440   66.7730 C.2    79  VAL79       0.2287
     62  O         30.1850   57.8920   66.3640 O.2    79  VAL79      -0.2864
     63  CB        30.0060   56.1010   69.1480 C.3    79  VAL79       0.0276
     64  CG1       31.3530   56.8250   69.1460 C.3    79  VAL79       0.0022
     65  CG2       29.3880   56.0790   70.5510 C.3    79  VAL79       0.0022
     66  N         28.0050   59.3850   64.7060 N.3    82  ASP82      -0.1239
     67  CA        28.4110   60.7160   65.1490 C.3    82  ASP82       0.1674
     68  C         29.7890   61.0760   64.5960 C.2    82  ASP82       0.2266
     69  O         30.0250   62.2170   64.1940 O.2    82  ASP82      -0.2867
     70  CB        28.4180   60.8190   66.6800 C.3    82  ASP82       0.1410
     71  CG        27.0220   60.7780   67.2880 C.2    82  ASP82       0.3668
     72  OD1       26.0200   60.7770   66.5450 O.co2  82  ASP82      -0.2456
     73  OD2       26.9300   60.7460   68.5340 O.co2  82  ASP82      -0.2456
     74  N         38.1380   58.7890   68.7230 N.3   179  TYR179     -0.1227
     75  CA        37.0860   59.8080   68.8030 C.3   179  TYR179      0.1736
     76  C         36.2650   59.6510   70.0770 C.2   179  TYR179      0.2595
     77  O         35.9210   60.6350   70.7270 O.2   179  TYR179     -0.2718
     78  CB        36.1880   59.7330   67.5630 C.3   179  TYR179      0.0548
     79  CG        34.8980   60.5270   67.6330 C.ar  179  TYR179     -0.0200
     80  CD1       34.8830   61.9020   67.4130 C.ar  179  TYR179     -0.0009
     81  CD2       33.6890   59.8920   67.8820 C.ar  179  TYR179     -0.0009
     82  CE1       33.6990   62.6210   67.4650 C.ar  179  TYR179      0.0417
     83  CE2       32.5070   60.6000   67.9310 C.ar  179  TYR179      0.0417
     84  CZ        32.5160   61.9610   67.7200 C.ar  179  TYR179      0.1957
     85  OH        31.3260   62.6540   67.7780 O.3   179  TYR179     -0.2866
     86  N         35.9570   58.4120   70.4400 N.am  180  ALA180     -0.1980
     87  CA        35.2190   58.1380   71.6670 C.3   180  ALA180      0.1597
     88  C         36.1010   58.2370   72.9110 C.2   180  ALA180      0.2287
     89  O         35.5950   58.3130   74.0260 O.2   180  ALA180     -0.2864
     90  CB        34.5840   56.7560   71.6010 C.3   180  ALA180      0.0319
@<TRIPOS>BOND
     1    35    34    2
     2    34    33    1
     3    33    36    1
     4    33    32    1
     5    69    68    2
     6    36    37    1
     7    68    67    1
     8    66    67    1
     9    67    70    1
    10    37    38    1
    11    62    61    2
    12    38    39    1
    13    72    71   ar
    14    70    71    1
    15    58    57    2
    16    61    60    1
    17    55    56    1
    18    71    73   ar
    19    56    57    1
    20    57    59   am
    21    80    82   ar
    22    80    79   ar
    23    82    84   ar
    24    39    40    2
    25    78    79    1
    26    78    75    1
    27    79    81   ar
    28    84    85    1
    29    84    83   ar
    30    81    83   ar
    31    59    60    1
    32    60    63    1
    33    74    75    1
    34    40    41    1
    35    40    42    1
    36    75    76    1
    37    64    63    1
    38    63    65    1
    39    46    45    2
    40    76    86   am
    41    76    77    2
    42    45    44    1
    43    86    87    1
    44    43    44    1
    45    44    47    1
    46    28    29    1
    47    28    25    1
    48    27    26    2
    49    30    29    2
    50    90    87    1
    51    87    88    1
    52    29    31   am
    53    26    25    1
    54    25    24    1
    55    47    48    1
    56    88    89    2
    57    24    18   am
    58    49    48   ar
    59    49    51   ar
    60    48    50   ar
    61    51    53   ar
    62    50    52   ar
    63    18    17    1
    64    18    19    2
    65    22    20    1
    66    53    52   ar
    67    53    54    1
    68    20    17    1
    69    20    21    1
    70    17    16    1
    71    23    21    1
    72    11    10    2
    73     7     5    1
    74    16    10   am
    75     1     2    1
    76     2     5    1
    77     2     3    1
    78    10     9    1
    79     5     6    1
    80     3     4    2
    81     9    12    1
    82     9     8    1
    83    12    13    1
    84    13    15   am
    85    13    14    2
