@<TRIPOS>MOLECULE
tmp/5wreB00.pdb
 145 140 0 0 0
SMALL
GASTEIGER

@<TRIPOS>ATOM
      1  N        -35.7670   -9.0760  -11.0710 N.3    23  PHE23      -0.1241
      2  CA       -34.4210   -8.5370  -10.8850 C.3    23  PHE23       0.1605
      3  C        -33.8210   -8.9540   -9.5420 C.2    23  PHE23       0.2264
      4  O        -32.6080   -9.1780   -9.4520 O.2    23  PHE23      -0.2867
      5  CB       -34.4710   -7.0110  -10.9870 C.3    23  PHE23       0.0534
      6  CG       -33.2330   -6.2900  -10.4800 C.ar   23  PHE23      -0.0203
      7  CD1      -33.1150   -5.9170   -9.1380 C.ar   23  PHE23      -0.0042
      8  CD2      -32.2230   -5.9160  -11.3640 C.ar   23  PHE23      -0.0042
      9  CE1      -32.0020   -5.2270   -8.6890 C.ar   23  PHE23      -0.0003
     10  CE2      -31.1200   -5.2130  -10.9300 C.ar   23  PHE23      -0.0003
     11  CZ       -31.0010   -4.8840   -9.5720 C.ar   23  PHE23      -0.0000
     12  N        -32.7640  -10.8240   -5.9930 N.3    25  PRO25      -0.2116
     13  CA       -32.6000  -12.1230   -5.3330 C.3    25  PRO25       0.1372
     14  C        -33.7690  -12.3800   -4.3980 C.2    25  PRO25       0.2244
     15  O        -34.5170  -11.4680   -4.0360 O.2    25  PRO25      -0.2868
     16  CB       -31.2860  -11.9780   -4.5530 C.3    25  PRO25       0.0268
     17  CG       -30.5880  -10.7640   -5.1370 C.3    25  PRO25       0.0207
     18  CD       -31.6850   -9.8690   -5.6820 C.3    25  PRO25       0.0892
     19  N        -31.9410  -15.5490    0.0150 N.3    29  ASP29      -0.1225
     20  CA       -30.6110  -15.2770   -0.5300 C.3    29  ASP29       0.1805
     21  C        -30.0800  -13.9070   -0.1240 C.2    29  ASP29       0.2597
     22  O        -28.8580  -13.7350    0.0260 O.2    29  ASP29      -0.2718
     23  CB       -30.6490  -15.4140   -2.0570 C.3    29  ASP29       0.1424
     24  CG       -30.7110  -16.8530   -2.4880 C.2    29  ASP29       0.3668
     25  OD1      -30.3250  -17.7130   -1.6690 O.co2  29  ASP29      -0.2456
     26  OD2      -31.1300  -17.1420   -3.6230 O.co2  29  ASP29      -0.2456
     27  N        -30.9630  -12.9130    0.0160 N.am   30  LEU30      -0.1979
     28  CA       -30.5270  -11.6270    0.5540 C.3    30  LEU30       0.1596
     29  C        -30.1240  -11.7530    2.0220 C.2    30  LEU30       0.2287
     30  O        -29.1260  -11.1600    2.4530 O.2    30  LEU30      -0.2864
     31  CB       -31.6320  -10.5810    0.3820 C.3    30  LEU30       0.0297
     32  CG       -31.9090  -10.1740   -1.0610 C.3    30  LEU30       0.0022
     33  CD1      -33.3310   -9.5770   -1.2490 C.3    30  LEU30       0.0001
     34  CD2      -30.8830   -9.1590   -1.4850 C.3    30  LEU30       0.0001
     35  N        -26.7490  -13.4050    2.2430 N.3    33  THR33      -0.1218
     36  CA       -25.6920  -12.4910    1.8220 C.3    33  THR33       0.1862
     37  C        -25.3990  -11.4360    2.8910 C.2    33  THR33       0.2287
     38  O        -24.2330  -11.1010    3.1290 O.2    33  THR33      -0.2866
     39  CB       -26.0820  -11.8340    0.4860 C.3    33  THR33       0.1770
     40  OG1      -26.3720  -12.8640   -0.4690 O.3    33  THR33      -0.2211
     41  CG2      -24.9310  -11.0180   -0.0660 C.3    33  THR33       0.0375
     42  N        -21.5240  -11.0920    4.4400 N.3    37  LEU37      -0.1245
     43  CA       -20.7170   -9.8920    4.2730 C.3    37  LEU37       0.1561
     44  C        -20.6740   -9.0140    5.5180 C.2    37  LEU37       0.2260
     45  O        -19.6390   -8.3970    5.7910 O.2    37  LEU37      -0.2867
     46  CB       -21.2560   -9.0590    3.1060 C.3    37  LEU37       0.0270
     47  CG       -21.1350   -9.6890    1.7160 C.3    37  LEU37       0.0019
     48  CD1      -21.6290   -8.6960    0.6770 C.3    37  LEU37       0.0001
     49  CD2      -19.7210  -10.1220    1.4200 C.3    37  LEU37       0.0001
     50  N        -32.1490   -5.7320   -0.7340 N.3   102  TRP102     -0.1241
     51  CA       -31.1790   -5.5340   -1.8060 C.3   102  TRP102      0.1605
     52  C        -30.6080   -4.1230   -1.7540 C.2   102  TRP102      0.2264
     53  O        -29.3880   -3.9330   -1.8190 O.2   102  TRP102     -0.2867
     54  CB       -31.8190   -5.8230   -3.1680 C.3   102  TRP102      0.0550
     55  CG       -30.8940   -5.5930   -4.2940 C.ar  102  TRP102      0.0003
     56  CD1      -29.9790   -6.4920   -4.8000 C.ar  102  TRP102      0.0946
     57  CD2      -30.7390   -4.3900   -5.0520 C.ar  102  TRP102      0.0152
     58  NE1      -29.2850   -5.9120   -5.8320 N.ar  102  TRP102     -0.2442
     59  CE2      -29.7290   -4.6250   -6.0030 C.ar  102  TRP102      0.0810
     60  CE3      -31.3690   -3.1340   -5.0300 C.ar  102  TRP102      0.0012
     61  CZ2      -29.3310   -3.6500   -6.9240 C.ar  102  TRP102      0.0191
     62  CZ3      -30.9770   -2.1680   -5.9660 C.ar  102  TRP102      0.0001
     63  CH2      -29.9740   -2.4330   -6.8890 C.ar  102  TRP102      0.0015
     64  N        -28.1130   -3.6510    1.2550 N.3   105  ILE105     -0.1231
     65  CA       -26.9050   -4.4880    1.1290 C.3   105  ILE105      0.1692
     66  C        -26.0170   -3.9730    0.0020 C.2   105  ILE105      0.2592
     67  O        -24.7950   -3.8560    0.1570 O.2   105  ILE105     -0.2718
     68  CB       -27.2690   -5.9680    0.9140 C.3   105  ILE105      0.0266
     69  CG1      -27.9730   -6.5480    2.1360 C.3   105  ILE105      0.0019
     70  CG2      -25.9880   -6.7950    0.6570 C.3   105  ILE105      0.0020
     71  CD1      -28.7570   -7.8020    1.8260 C.3   105  ILE105      0.0001
     72  N        -26.6240   -3.6150   -1.1320 N.am  106  SER106     -0.1952
     73  CA       -25.8400   -3.1590   -2.2750 C.3   106  SER106      0.1924
     74  C        -25.2370   -1.7860   -2.0230 C.2   106  SER106      0.2314
     75  O        -24.1240   -1.5060   -2.4760 O.2   106  SER106     -0.2863
     76  CB       -26.7160   -3.1420   -3.5200 C.3   106  SER106      0.2116
     77  OG       -27.2350   -4.4350   -3.7880 O.3   106  SER106     -0.2180
     78  N        -22.1680   -2.1570   -0.0700 N.3   109  THR109     -0.1203
     79  CA       -21.0990   -2.8040   -0.8210 C.3   109  THR109      0.1994
     80  C        -20.5000   -1.9050   -1.8850 C.2   109  THR109      0.2617
     81  O        -19.2740   -1.8850   -2.0480 O.2   109  THR109     -0.2717
     82  CB       -21.6230   -4.0910   -1.4460 C.3   109  THR109      0.1784
     83  OG1      -22.1770   -4.9090   -0.4050 O.3   109  THR109     -0.2211
     84  CG2      -20.5070   -4.8350   -2.1610 C.3   109  THR109      0.0376
     85  N        -21.3450   -1.1630   -2.6120 N.am  110  PHE110     -0.1975
     86  CA       -20.9140   -0.3840   -3.7600 C.3   110  PHE110      0.1639
     87  C        -21.1520    1.1100   -3.6090 C.2   110  PHE110      0.2290
     88  O        -20.6300    1.8800   -4.4180 O.2   110  PHE110     -0.2864
     89  CB       -21.6270   -0.8670   -5.0330 C.3   110  PHE110      0.0560
     90  CG       -21.4100   -2.3280   -5.3200 C.ar  110  PHE110     -0.0200
     91  CD1      -20.2030   -2.7780   -5.8090 C.ar  110  PHE110     -0.0042
     92  CD2      -22.4230   -3.2480   -5.1030 C.ar  110  PHE110     -0.0042
     93  CE1      -20.0020   -4.1260   -6.0640 C.ar  110  PHE110     -0.0003
     94  CE2      -22.2320   -4.5870   -5.3580 C.ar  110  PHE110     -0.0003
     95  CZ       -21.0200   -5.0250   -5.8500 C.ar  110  PHE110     -0.0000
     96  N        -27.2140    2.0240  -11.3370 N.3   118  TYR118     -0.1241
     97  CA       -27.4710    0.6610  -11.7960 C.3   118  TYR118      0.1605
     98  C        -28.9640    0.3680  -11.8470 C.2   118  TYR118      0.2264
     99  O        -29.4340   -0.3380  -12.7500 O.2   118  TYR118     -0.2867
    100  CB       -26.7710   -0.3550  -10.8800 C.3   118  TYR118      0.0534
    101  CG       -26.8760   -1.7750  -11.3990 C.ar  118  TYR118     -0.0201
    102  CD1      -26.2470   -2.1410  -12.5840 C.ar  118  TYR118     -0.0009
    103  CD2      -27.6020   -2.7360  -10.7290 C.ar  118  TYR118     -0.0009
    104  CE1      -26.3340   -3.4330  -13.0810 C.ar  118  TYR118      0.0417
    105  CE2      -27.6890   -4.0330  -11.2130 C.ar  118  TYR118      0.0417
    106  CZ       -27.0620   -4.3700  -12.4030 C.ar  118  TYR118      0.1957
    107  OH       -27.1380   -5.6620  -12.8720 O.3   118  TYR118     -0.2866
    108  N        -30.2970   -1.0180  -15.3630 N.3   122  PHE122     -0.1241
    109  CA       -30.9790   -2.2890  -15.5490 C.3   122  PHE122      0.1605
    110  C        -32.4430   -2.0680  -15.9040 C.2   122  PHE122      0.2264
    111  O        -33.0100   -2.8020  -16.7230 O.2   122  PHE122     -0.2867
    112  CB       -30.8350   -3.1590  -14.2890 C.3   122  PHE122      0.0534
    113  CG       -31.2530   -4.5730  -14.5000 C.ar  122  PHE122     -0.0203
    114  CD1      -32.5980   -4.9060  -14.5760 C.ar  122  PHE122     -0.0042
    115  CD2      -30.3020   -5.5740  -14.6600 C.ar  122  PHE122     -0.0042
    116  CE1      -32.9950   -6.2090  -14.7960 C.ar  122  PHE122     -0.0003
    117  CE2      -30.6910   -6.8820  -14.8710 C.ar  122  PHE122     -0.0003
    118  CZ       -32.0360   -7.2020  -14.9400 C.ar  122  PHE122     -0.0000
    119  N        -27.1200   -8.5870  -19.2080 N.3   137  ALA137     -0.1245
    120  CA       -27.5310   -7.4520  -18.3880 C.3   137  ALA137      0.1562
    121  C        -26.3200   -6.5870  -18.0490 C.2   137  ALA137      0.2260
    122  O        -25.1790   -7.0630  -18.0680 O.2   137  ALA137     -0.2867
    123  CB       -28.1930   -7.9440  -17.1000 C.3   137  ALA137      0.0290
    124  N        -23.8640   -4.6970  -15.3150 N.3   139  ILE139     -0.1231
    125  CA       -23.1950   -5.2990  -14.1690 C.3   139  ILE139      0.1692
    126  C        -23.0260   -4.2350  -13.1000 C.2   139  ILE139      0.2592
    127  O        -22.4290   -3.1820  -13.3530 O.2   139  ILE139     -0.2718
    128  CB       -21.8310   -5.9000  -14.5710 C.3   139  ILE139      0.0266
    129  CG1      -22.0160   -6.9590  -15.6600 C.3   139  ILE139      0.0019
    130  CG2      -21.1690   -6.5420  -13.4220 C.3   139  ILE139      0.0020
    131  CD1      -20.6950   -7.4950  -16.2150 C.3   139  ILE139      0.0001
    132  N        -23.5180   -4.5310  -11.8970 N.am  140  LEU140     -0.1966
    133  CA       -23.5360   -3.5390  -10.8250 C.3   140  LEU140      0.1728
    134  C        -22.1290   -3.0560  -10.4800 C.2   140  LEU140      0.2616
    135  O        -21.8960   -1.8530  -10.3190 O.2   140  LEU140     -0.2715
    136  CB       -24.2510   -4.1350   -9.6070 C.3   140  LEU140      0.0311
    137  CG       -24.3810   -3.4140   -8.2640 C.3   140  LEU140      0.0022
    138  CD1      -25.0960   -2.0710   -8.3530 C.3   140  LEU140      0.0001
    139  CD2      -25.1480   -4.3370   -7.3550 C.3   140  LEU140      0.0001
    140  N        -21.1780   -3.9810  -10.3450 N.am  141  SER141     -0.1950
    141  CA       -19.8420   -3.6160   -9.8860 C.3   141  SER141      0.1924
    142  C        -19.0160   -2.8650  -10.9230 C.2   141  SER141      0.2314
    143  O        -17.9740   -2.3080  -10.5620 O.2   141  SER141     -0.2863
    144  CB       -19.1010   -4.8700   -9.4040 C.3   141  SER141      0.2116
    145  OG       -18.7660   -5.7160  -10.4830 O.3   141  SER141     -0.2180
@<TRIPOS>BOND
     1   119   120    1
     2   120   121    1
     3   120   123    1
     4   122   121    2
     5   111   110    2
     6   131   129    1
     7   110   109    1
     8   129   128    1
     9   109   108    1
    10   109   112    1
    11   124   125    1
    12   118   117   ar
    13   118   116   ar
    14   117   115   ar
    15   116   114   ar
    16   115   113   ar
    17   114   113   ar
    18   128   125    1
    19   128   130    1
    20   113   112    1
    21   125   126    1
    22   127   126    2
    23   126   132   am
    24   104   102   ar
    25   104   106   ar
    26   107   106    1
    27    99    98    2
    28   102   101   ar
    29   106   105   ar
    30   132   133    1
    31    98    97    1
    32    97    96    1
    33    97   100    1
    34   101   100    1
    35   101   103   ar
    36     8    10   ar
    37     8     6   ar
    38   105   103   ar
    39     1     2    1
    40     5     2    1
    41     5     6    1
    42    10    11   ar
    43   142   143    2
    44   142   141    1
    45     2     3    1
    46   133   134    1
    47   133   136    1
    48   145   144    1
    49   134   140   am
    50   134   135    2
    51     6     7   ar
    52   140   141    1
    53   141   144    1
    54   136   137    1
    55    11     9   ar
    56     3     4    2
    57     7     9   ar
    58   138   137    1
    59   137   139    1
    60    61    63   ar
    61    61    59   ar
    62    63    62   ar
    63    93    95   ar
    64    93    91   ar
    65    59    58   ar
    66    59    57   ar
    67    12    18    1
    68    12    13    1
    69    62    60   ar
    70    95    94   ar
    71    58    56   ar
    72    91    90   ar
    73    18    17    1
    74    94    92   ar
    75    13    16    1
    76    13    14    1
    77    90    92   ar
    78    90    89    1
    79    17    16    1
    80    57    60   ar
    81    57    55   ar
    82    89    86    1
    83    56    55   ar
    84    88    87    2
    85    14    15    2
    86    55    54    1
    87    77    76    1
    88    86    87    1
    89    86    85    1
    90    26    24   ar
    91    76    73    1
    92    54    51    1
    93    85    80   am
    94    24    23    1
    95    24    25   ar
    96    75    74    2
    97    73    74    1
    98    73    72    1
    99    84    82    1
   100    23    20    1
   101    81    80    2
   102    80    79    1
   103    53    52    2
   104    51    52    1
   105    51    50    1
   106    34    32    1
   107    82    79    1
   108    82    83    1
   109    33    32    1
   110    72    66   am
   111    32    31    1
   112    79    78    1
   113    20    21    1
   114    20    19    1
   115    40    39    1
   116    21    27   am
   117    21    22    2
   118    41    39    1
   119    66    67    2
   120    66    65    1
   121    27    28    1
   122    31    28    1
   123    39    36    1
   124    28    29    1
   125    70    68    1
   126    48    47    1
   127    68    65    1
   128    68    69    1
   129    65    64    1
   130    49    47    1
   131    47    46    1
   132    36    35    1
   133    36    37    1
   134    71    69    1
   135    29    30    2
   136    37    38    2
   137    46    43    1
   138    43    42    1
   139    43    44    1
   140    44    45    2
