@<TRIPOS>MOLECULE
tmp/5wrjD01.pdb
 198 189 0 0 0
SMALL
GASTEIGER

@<TRIPOS>ATOM
      1  N         23.2720  -48.8730  -25.2130 N.3    15  PRO15      -0.2102
      2  CA        23.3130  -50.3340  -25.1180 C.3    15  PRO15       0.1504
      3  C         23.8120  -50.8460  -23.7600 C.2    15  PRO15       0.2576
      4  O         24.5290  -50.1340  -23.0440 O.2    15  PRO15      -0.2718
      5  CB        24.2700  -50.7290  -26.2430 C.3    15  PRO15       0.0282
      6  CG        24.0940  -49.6570  -27.2610 C.3    15  PRO15       0.0208
      7  CD        23.8470  -48.3930  -26.4830 C.3    15  PRO15       0.0893
      8  N         23.4100  -52.0720  -23.4290 N.am   16  ARG16      -0.1966
      9  CA        23.6740  -52.7040  -22.1300 C.3    16  ARG16       0.1729
     10  C         22.9700  -51.9720  -20.9810 C.2    16  ARG16       0.2617
     11  O         23.5740  -51.6990  -19.9410 O.2    16  ARG16      -0.2715
     12  CB        25.1830  -52.8430  -21.8660 C.3    16  ARG16       0.0348
     13  CG        26.0230  -53.3160  -23.0500 C.3    16  ARG16       0.0492
     14  CD        25.4590  -54.5370  -23.7650 C.3    16  ARG16       0.2205
     15  NE        25.3220  -55.6940  -22.8840 N.pl3  16  ARG16      -0.0865
     16  CZ        24.7990  -56.8680  -23.2440 C.cat  16  ARG16       0.5346
     17  NH1       24.3350  -57.0690  -24.4790 N.pl3  16  ARG16       0.1354
     18  NH2       24.7270  -57.8530  -22.3550 N.pl3  16  ARG16       0.1354
     19  N         21.6860  -51.6700  -21.1800 N.am   17  SER17      -0.1936
     20  CA        20.8740  -50.9470  -20.1910 C.3    17  SER17       0.2055
     21  C         19.4910  -51.5690  -19.9530 C.2    17  SER17       0.2644
     22  O         18.5900  -50.9060  -19.4450 O.2    17  SER17      -0.2714
     23  CB        20.7310  -49.4840  -20.6190 C.3    17  SER17       0.2130
     24  OG        22.0070  -48.9070  -20.8390 O.3    17  SER17      -0.2179
     25  N         19.3390  -52.8490  -20.2880 N.am   18  GLY18      -0.1939
     26  CA        18.0660  -53.5580  -20.1360 C.3    18  GLY18       0.2014
     27  C         17.0350  -53.3000  -21.2240 C.2    18  GLY18       0.2640
     28  O         15.8400  -53.4840  -20.9910 O.2    18  GLY18      -0.2714
     29  N         17.4840  -52.8940  -22.4120 N.am   19  THR19      -0.1936
     30  CA        16.5700  -52.5670  -23.5060 C.3    19  THR19       0.2028
     31  C         15.9050  -53.8230  -24.0630 C.2    19  THR19       0.2643
     32  O         14.6900  -53.8310  -24.2740 O.2    19  THR19      -0.2714
     33  CB        17.2530  -51.7660  -24.6490 C.3    19  THR19       0.1808
     34  OG1       18.3320  -52.5150  -25.2180 O.3    19  THR19      -0.2208
     35  CG2       17.7820  -50.4300  -24.1420 C.3    19  THR19       0.0379
     36  N         16.6930  -54.8770  -24.2790 N.am   20  THR20      -0.1936
     37  CA        16.1690  -56.1430  -24.8000 C.3    20  THR20       0.2028
     38  C         15.1810  -56.7800  -23.8290 C.2    20  THR20       0.2642
     39  O         14.1580  -57.3070  -24.2550 O.2    20  THR20      -0.2714
     40  CB        17.2920  -57.1440  -25.1300 C.3    20  THR20       0.1808
     41  OG1       18.3200  -56.4800  -25.8750 O.3    20  THR20      -0.2208
     42  CG2       16.7580  -58.3120  -25.9510 C.3    20  THR20       0.0379
     43  N         15.4780  -56.7320  -22.5340 N.am   21  LEU21      -0.1977
     44  CA        14.5360  -57.2170  -21.5240 C.3    21  LEU21       0.1596
     45  C         13.2260  -56.4250  -21.5680 C.2    21  LEU21       0.2287
     46  O         12.1390  -57.0060  -21.5320 O.2    21  LEU21      -0.2864
     47  CB        15.1500  -57.1270  -20.1230 C.3    21  LEU21       0.0297
     48  CG        14.2470  -57.5310  -18.9510 C.3    21  LEU21       0.0022
     49  CD1       13.8330  -58.9880  -19.0800 C.3    21  LEU21       0.0001
     50  CD2       14.9400  -57.2770  -17.6240 C.3    21  LEU21       0.0001
     51  N         12.5580  -51.3810  -30.8790 N.3    96  LYS96      -0.1245
     52  CA        13.6980  -51.2510  -29.9840 C.3    96  LYS96       0.1561
     53  C         14.9670  -51.1160  -30.8110 C.2    96  LYS96       0.2260
     54  O         15.3790  -52.0500  -31.4920 O.2    96  LYS96      -0.2867
     55  CB        13.7880  -52.4330  -29.0160 C.3    96  LYS96       0.0271
     56  CG        14.6910  -52.1770  -27.8180 C.3    96  LYS96       0.0035
     57  CD        16.1450  -52.5710  -28.0670 C.3    96  LYS96       0.0206
     58  CE        16.3670  -54.0600  -27.8860 C.3    96  LYS96       0.1093
     59  NZ        17.7870  -54.3470  -27.5520 N.3    96  LYS96      -0.1314
     60  N         20.2660  -47.1570  -16.9960 N.3   121  ARG121     -0.1245
     61  CA        21.0070  -48.0520  -16.1130 C.3   121  ARG121      0.1563
     62  C         22.2330  -47.3090  -15.6090 C.2   121  ARG121      0.2260
     63  O         22.7410  -46.4180  -16.2900 O.2   121  ARG121     -0.2867
     64  CB        21.4240  -49.3170  -16.8680 C.3   121  ARG121      0.0307
     65  CG        21.9920  -50.4240  -15.9950 C.3   121  ARG121      0.0489
     66  CD        22.4880  -51.5680  -16.8560 C.3   121  ARG121      0.2205
     67  NE        22.9090  -52.7430  -16.0970 N.pl3 121  ARG121     -0.0865
     68  CZ        23.5240  -53.8060  -16.6200 C.cat 121  ARG121      0.5346
     69  NH1       23.8200  -53.8600  -17.9200 N.pl3 121  ARG121      0.1354
     70  NH2       23.8570  -54.8250  -15.8360 N.pl3 121  ARG121      0.1354
     71  N         27.5050  -50.0650  -14.6280 N.3   125  ALA125     -0.1245
     72  CA        27.0030  -51.3830  -15.0170 C.3   125  ALA125      0.1562
     73  C         27.0030  -51.5640  -16.5340 C.2   125  ALA125      0.2260
     74  O         27.4360  -52.5980  -17.0370 O.2   125  ALA125     -0.2867
     75  CB        25.6030  -51.6000  -14.4630 C.3   125  ALA125      0.0290
     76  N         30.7460  -51.6790  -17.7960 N.3   128  HIS128     -0.1226
     77  CA        31.3390  -52.9760  -17.4410 C.3   128  HIS128      0.1752
     78  C         30.8110  -54.1040  -18.3270 C.2   128  HIS128      0.2596
     79  O         31.5790  -54.9590  -18.7720 O.2   128  HIS128     -0.2718
     80  CB        31.1120  -53.3270  -15.9680 C.3   128  HIS128      0.0759
     81  CG        31.5780  -54.7050  -15.6050 C.ar  128  HIS128      0.0818
     82  ND1       32.9080  -55.0680  -15.6250 N.ar  128  HIS128     -0.2268
     83  CD2       30.8970  -55.8130  -15.2380 C.ar  128  HIS128      0.1154
     84  CE1       33.0210  -56.3370  -15.2770 C.ar  128  HIS128      0.1986
     85  NE2       31.8170  -56.8120  -15.0340 N.ar  128  HIS128     -0.2212
     86  N         29.5040  -54.0880  -18.5800 N.am  129  SER129     -0.1952
     87  CA        28.8520  -55.0830  -19.4320 C.3   129  SER129      0.1924
     88  C         29.4780  -55.1540  -20.8200 C.2   129  SER129      0.2314
     89  O         29.8740  -56.2300  -21.2660 O.2   129  SER129     -0.2863
     90  CB        27.3510  -54.7830  -19.5540 C.3   129  SER129      0.2116
     91  OG        26.7320  -55.6130  -20.5210 O.3   129  SER129     -0.2180
     92  N         31.7370  -58.3670  -21.6670 N.3   133  ARG133     -0.1245
     93  CA        31.1800  -59.1820  -22.7610 C.3   133  ARG133      0.1563
     94  C         31.7240  -58.8080  -24.1520 C.2   133  ARG133      0.2260
     95  O         31.3380  -59.4220  -25.1480 O.2   133  ARG133     -0.2867
     96  CB        29.6450  -59.1070  -22.7670 C.3   133  ARG133      0.0307
     97  CG        28.9770  -59.6670  -21.5160 C.3   133  ARG133      0.0489
     98  CD        27.5250  -60.0280  -21.7990 C.3   133  ARG133      0.2205
     99  NE        26.7250  -60.2560  -20.5910 N.pl3 133  ARG133     -0.0865
    100  CZ        26.6730  -61.3900  -19.8850 C.cat 133  ARG133      0.5346
    101  NH1       27.3980  -62.4600  -20.2200 N.pl3 133  ARG133      0.1354
    102  NH2       25.8860  -61.4560  -18.8110 N.pl3 133  ARG133      0.1354
    103  N         16.5740  -49.4420  -15.0460 N.3   176  TYR176     -0.1241
    104  CA        16.8350  -50.8820  -15.1220 C.3   176  TYR176      0.1605
    105  C         16.7980  -51.5490  -13.7540 C.2   176  TYR176      0.2264
    106  O         16.1970  -52.6160  -13.5900 O.2   176  TYR176     -0.2867
    107  CB        18.1950  -51.1630  -15.7750 C.3   176  TYR176      0.0534
    108  CG        18.6120  -52.6090  -15.6350 C.ar  176  TYR176     -0.0201
    109  CD1       17.9780  -53.6040  -16.3720 C.ar  176  TYR176     -0.0009
    110  CD2       19.6080  -52.9920  -14.7310 C.ar  176  TYR176     -0.0009
    111  CE1       18.3310  -54.9360  -16.2290 C.ar  176  TYR176      0.0417
    112  CE2       19.9670  -54.3230  -14.5840 C.ar  176  TYR176      0.0417
    113  CZ        19.3260  -55.2880  -15.3360 C.ar  176  TYR176      0.1957
    114  OH        19.6730  -56.6100  -15.1970 O.3   176  TYR176     -0.2866
    115  N         14.0060  -54.5680  -12.4760 N.3   180  VAL180     -0.1245
    116  CA        14.3470  -55.9240  -12.0080 C.3   180  VAL180      0.1561
    117  C         14.0420  -56.1430  -10.5190 C.2   180  VAL180      0.2260
    118  O         13.7270  -57.2600  -10.1130 O.2   180  VAL180     -0.2867
    119  CB        15.8200  -56.3100  -12.3050 C.3   180  VAL180      0.0252
    120  CG1       16.1080  -56.2180  -13.7940 C.3   180  VAL180      0.0019
    121  CG2       16.8160  -55.4700  -11.5120 C.3   180  VAL180      0.0019
    122  N          7.8390  -63.3300  -19.3560 N.3   205  HIS205     -0.1241
    123  CA         8.4020  -63.2290  -20.7170 C.3   205  HIS205      0.1621
    124  C          9.2130  -64.4570  -21.1600 C.2   205  HIS205      0.2264
    125  O          9.2620  -64.7660  -22.3490 O.2   205  HIS205     -0.2867
    126  CB         9.2640  -61.9640  -20.8650 C.3   205  HIS205      0.0745
    127  CG        10.6430  -62.0990  -20.2940 C.ar  205  HIS205      0.0817
    128  ND1       10.9390  -61.8060  -18.9800 N.ar  205  HIS205     -0.2268
    129  CD2       11.8030  -62.5080  -20.8600 C.ar  205  HIS205      0.1154
    130  CE1       12.2230  -62.0250  -18.7620 C.ar  205  HIS205      0.1986
    131  NE2       12.7680  -62.4570  -19.8860 N.ar  205  HIS205     -0.2212
    132  N         22.1750  -59.8760  -26.3590 N.3   223  SER223     -0.1217
    133  CA        21.4000  -60.0110  -25.1180 C.3   223  SER223      0.1889
    134  C         20.5230  -61.2630  -25.0580 C.2   223  SER223      0.2288
    135  O         19.8190  -61.4790  -24.0660 O.2   223  SER223     -0.2866
    136  CB        20.5320  -58.7650  -24.9060 C.3   223  SER223      0.2089
    137  OG        21.3330  -57.6400  -24.6040 O.3   223  SER223     -0.2183
    138  N         20.7890  -63.9450  -22.0730 N.3   226  GLN226     -0.1231
    139  CA        20.2890  -63.4400  -20.7770 C.3   226  GLN226      0.1698
    140  C         18.7640  -63.2540  -20.7500 C.2   226  GLN226      0.2592
    141  O         18.1270  -63.5100  -19.7280 O.2   226  GLN226     -0.2718
    142  CB        20.9550  -62.1060  -20.4130 C.3   226  GLN226      0.0381
    143  CG        22.4830  -62.0810  -20.5040 C.3   226  GLN226      0.0905
    144  CD        23.0210  -61.2150  -21.6460 C.2   226  GLN226      0.2608
    145  OE1       22.5460  -60.1030  -21.8690 O.2   226  GLN226     -0.2717
    146  NE2       24.0340  -61.7100  -22.3520 N.am  226  GLN226     -0.0878
    147  N         18.1870  -62.7970  -21.8620 N.am  227  VAL227     -0.1980
    148  CA        16.7460  -62.4900  -21.9330 C.3   227  VAL227      0.1595
    149  C         15.8330  -63.7280  -21.8980 C.2   227  VAL227      0.2287
    150  O         14.6800  -63.6280  -21.4760 O.2   227  VAL227     -0.2864
    151  CB        16.4180  -61.5920  -23.1590 C.3   227  VAL227      0.0276
    152  CG1       16.4130  -62.3810  -24.4610 C.3   227  VAL227      0.0022
    153  CG2       15.0900  -60.8640  -22.9740 C.3   227  VAL227      0.0022
    154  N         16.1720  -66.1550  -19.8470 N.3   229  LYS229     -0.1231
    155  CA        15.9420  -66.4140  -18.4240 C.3   229  LYS229      0.1678
    156  C         14.8540  -65.4860  -17.8690 C.2   229  LYS229      0.2434
    157  O         14.5520  -64.4550  -18.4740 O.2   229  LYS229     -0.2733
    158  CB        17.2330  -66.2250  -17.6250 C.3   229  LYS229      0.0284
    159  CG        18.3250  -67.2280  -17.9590 C.3   229  LYS229      0.0035
    160  CD        19.6420  -66.8400  -17.3060 C.3   229  LYS229      0.0206
    161  CE        20.7600  -67.7870  -17.7130 C.3   229  LYS229      0.1093
    162  NZ        22.0860  -67.3080  -17.2370 N.3   229  LYS229     -0.1314
    163  N         14.2530  -65.8480  -16.7180 N.am  230  PRO230     -0.2718
    164  CA        13.3170  -64.9300  -16.0510 C.3   230  PRO230      0.1535
    165  C         13.9910  -63.6690  -15.5030 C.2   230  PRO230      0.2598
    166  O         15.2200  -63.6000  -15.4300 O.2   230  PRO230     -0.2715
    167  CB        12.7330  -65.7710  -14.9010 C.3   230  PRO230      0.0310
    168  CG        13.6110  -66.9610  -14.7750 C.3   230  PRO230      0.0237
    169  CD        14.2230  -67.1940  -16.1180 C.3   230  PRO230      0.0939
    170  N         13.1800  -62.6770  -15.1450 N.am  231  VAL231     -0.1964
    171  CA        13.6800  -61.4320  -14.5520 C.3   231  VAL231      0.1727
    172  C         14.3950  -61.7670  -13.2400 C.2   231  VAL231      0.2616
    173  O         13.8680  -62.5120  -12.4190 O.2   231  VAL231     -0.2715
    174  CB        12.5330  -60.4140  -14.3130 C.3   231  VAL231      0.0290
    175  CG1       13.0120  -59.2050  -13.5190 C.3   231  VAL231      0.0023
    176  CG2       11.9450  -59.9400  -15.6360 C.3   231  VAL231      0.0023
    177  N         15.6060  -61.2430  -13.0650 N.am  232  ASN232     -0.1972
    178  CA        16.3720  -61.4270  -11.8230 C.3   232  ASN232      0.1688
    179  C         17.2150  -60.2030  -11.4910 C.2   232  ASN232      0.2292
    180  O         17.4520  -59.3560  -12.3460 O.2   232  ASN232     -0.2864
    181  CB        17.2600  -62.6770  -11.8970 C.3   232  ASN232      0.1181
    182  CG        18.2470  -62.6370  -13.0510 C.2   232  ASN232      0.2629
    183  OD1       17.8580  -62.7210  -14.2060 O.2   232  ASN232     -0.2716
    184  ND2       19.5270  -62.5280  -12.7410 N.am  232  ASN232     -0.0877
    185  N         22.3240  -58.8730  -12.2920 N.3   235  ALA235     -0.1245
    186  CA        23.1990  -57.9760  -13.0370 C.3   235  ALA235      0.1562
    187  C         23.1420  -56.5230  -12.5360 C.2   235  ALA235      0.2260
    188  O         23.4160  -55.5930  -13.3000 O.2   235  ALA235     -0.2867
    189  CB        22.8680  -58.0580  -14.5170 C.3   235  ALA235      0.0290
    190  N         27.5210  -56.2390  -10.7910 N.3   238  LYS238     -0.1245
    191  CA        28.6500  -57.0690  -11.2410 C.3   238  LYS238      0.1561
    192  C         29.8660  -56.2130  -11.5900 C.2   238  LYS238      0.2260
    193  O         30.9870  -56.7180  -11.6740 O.2   238  LYS238     -0.2867
    194  CB        28.2580  -57.8890  -12.4690 C.3   238  LYS238      0.0271
    195  CG        27.0740  -58.8100  -12.2360 C.3   238  LYS238      0.0035
    196  CD        26.8710  -59.7930  -13.3710 C.3   238  LYS238      0.0206
    197  CE        26.4700  -59.0990  -14.6600 C.3   238  LYS238      0.1093
    198  NZ        25.9480  -60.0850  -15.6430 N.3   238  LYS238     -0.1314
@<TRIPOS>BOND
     1    54    53    2
     2    51    52    1
     3    53    52    1
     4    52    55    1
     5    55    56    1
     6    57    58    1
     7    57    56    1
     8    58    59    1
     9     6     7    1
    10     6     5    1
    11     7     1    1
    12   132   133    1
    13     5     2    1
    14    42    40    1
    15    41    40    1
    16    34    33    1
    17     1     2    1
    18    95    94    2
    19    40    37    1
    20     2     3    1
    21   133   134    1
    22   133   136    1
    23   134   135    2
    24   136   137    1
    25    37    36    1
    26    37    38    1
    27    33    35    1
    28    33    30    1
    29    17    16    1
    30   152   151    1
    31    36    31   am
    32    32    31    2
    33    39    38    2
    34    94    93    1
    35    31    30    1
    36    38    43   am
    37    14    13    1
    38    14    15    1
    39     3     8   am
    40     3     4    2
    41    30    29    1
    42     8     9    1
    43    16    15    2
    44    16    18    1
    45   151   153    1
    46   151   148    1
    47    13    12    1
    48    96    93    1
    49    96    97    1
    50    93    92    1
    51    43    44    1
    52    29    27   am
    53   146   144   am
    54   125   124    2
    55     9    12    1
    56     9    10    1
    57   138   139    1
    58   148   149    1
    59   148   147    1
    60   149   150    2
    61   145   144    2
    62   147   140   am
    63    98    97    1
    64    98    99    1
    65   144   143    1
    66    45    46    2
    67    45    44    1
    68    44    47    1
    69    89    88    2
    70    27    28    2
    71    27    26    1
    72    19    10   am
    73    19    20    1
    74   124   123    1
    75    10    11    2
    76   126   123    1
    77   126   127    1
    78   129   127   ar
    79   129   131   ar
    80    24    23    1
    81    88    87    1
    82   139   140    1
    83   139   142    1
    84   140   141    2
    85   123   122    1
    86    23    20    1
    87    99   100    2
    88    91    90    1
    89   143   142    1
    90   127   128   ar
    91    25    26    1
    92    25    21   am
    93   101   100    1
    94    20    21    1
    95    47    48    1
    96    21    22    2
    97   131   130   ar
    98   100   102    1
    99   154   155    1
   100    90    87    1
   101    87    86    1
   102    49    48    1
   103   128   130   ar
   104    48    50    1
   105    79    78    2
   106    86    78   am
   107   157   156    2
   108   155   156    1
   109   155   158    1
   110    78    77    1
   111   159   158    1
   112   159   160    1
   113    69    68    1
   114   156   163   am
   115    76    77    1
   116   161   160    1
   117   161   162    1
   118    77    80    1
   119    74    73    2
   120    60    61    1
   121    64    61    1
   122    64    65    1
   123    66    67    1
   124    66    65    1
   125   163   169    1
   126   163   164    1
   127    68    67    2
   128    68    70    1
   129    73    72    1
   130   109   111   ar
   131   109   108   ar
   132    63    62    2
   133   111   113   ar
   134   169   168    1
   135    61    62    1
   136   164   165    1
   137   164   167    1
   138    80    81    1
   139   107   108    1
   140   107   104    1
   141   198   197    1
   142   176   174    1
   143   108   110   ar
   144    82    81   ar
   145    82    84   ar
   146    81    83   ar
   147   165   166    2
   148   165   170   am
   149   113   114    1
   150   113   112   ar
   151    84    85   ar
   152    83    85   ar
   153   170   171    1
   154   104   103    1
   155   104   105    1
   156    72    71    1
   157    72    75    1
   158   167   168    1
   159   110   112   ar
   160   197   196    1
   161   171   174    1
   162   171   172    1
   163   189   186    1
   164   174   175    1
   165   183   182    2
   166   120   119    1
   167   105   106    2
   168   196   195    1
   169   188   187    2
   170   172   177   am
   171   172   173    2
   172   177   178    1
   173   182   184   am
   174   182   181    1
   175   186   187    1
   176   186   185    1
   177   115   116    1
   178   194   195    1
   179   194   191    1
   180   180   179    2
   181   119   116    1
   182   119   121    1
   183   116   117    1
   184   181   178    1
   185   178   179    1
   186   193   192    2
   187   192   191    1
   188   191   190    1
   189   117   118    2
