@<TRIPOS>MOLECULE
tmp/5wrqA00.pdb
 221 215 0 0 0
SMALL
GASTEIGER

@<TRIPOS>ATOM
      1  N        -22.9600  -15.3410   15.6260 N.3    51  TYR51      -0.1241
      2  CA       -21.8660  -14.6510   16.3180 C.3    51  TYR51       0.1605
      3  C        -21.6600  -15.1960   17.7390 C.2    51  TYR51       0.2264
      4  O        -20.5250  -15.4480   18.1460 O.2    51  TYR51      -0.2867
      5  CB       -22.1280  -13.1410   16.4050 C.3    51  TYR51       0.0534
      6  CG       -21.5960  -12.2770   15.2760 C.ar   51  TYR51      -0.0201
      7  CD1      -20.2580  -12.3390   14.8770 C.ar   51  TYR51      -0.0009
      8  CD2      -22.4200  -11.3300   14.6550 C.ar   51  TYR51      -0.0009
      9  CE1      -19.7690  -11.5130   13.8690 C.ar   51  TYR51       0.0417
     10  CE2      -21.9410  -10.5060   13.6470 C.ar   51  TYR51       0.0417
     11  CZ       -20.6170  -10.5970   13.2580 C.ar   51  TYR51       0.1957
     12  OH       -20.1530   -9.7750   12.2580 O.3    51  TYR51      -0.2866
     13  N        -15.3770  -12.8700    9.8700 N.3   103  GLU103     -0.1245
     14  CA       -15.3190  -12.0100    8.6810 C.3   103  GLU103      0.1567
     15  C        -16.4360  -12.3110    7.6680 C.2   103  GLU103      0.2260
     16  O        -16.8330  -11.4270    6.9080 O.2   103  GLU103     -0.2867
     17  CB       -13.9470  -12.1210    8.0040 C.3   103  GLU103      0.0388
     18  CG       -13.6510  -11.0080    7.0080 C.3   103  GLU103      0.1160
     19  CD       -12.1970  -10.9840    6.5590 C.2   103  GLU103      0.3649
     20  OE1      -11.6020   -9.8820    6.5260 O.co2 103  GLU103     -0.2457
     21  OE2      -11.6450  -12.0620    6.2430 O.co2 103  GLU103     -0.2457
     22  N        -19.4760  -10.7150    9.3550 N.3   106  ASP106     -0.1239
     23  CA       -19.2870   -9.2880    9.0670 C.3   106  ASP106      0.1674
     24  C        -19.9130   -8.8970    7.7260 C.2   106  ASP106      0.2266
     25  O        -20.6810   -7.9350    7.6420 O.2   106  ASP106     -0.2867
     26  CB       -17.7990   -8.8960    9.0570 C.3   106  ASP106      0.1410
     27  CG       -17.2380   -8.6310   10.4450 C.2   106  ASP106      0.3668
     28  OD1      -17.8380   -9.0480   11.4600 O.co2 106  ASP106     -0.2456
     29  OD2      -16.1670   -7.9980   10.5100 O.co2 106  ASP106     -0.2456
     30  N        -24.0040   -9.2650    7.4430 N.3   109  LEU109     -0.1231
     31  CA       -24.7650   -8.1170    7.9700 C.3   109  LEU109      0.1693
     32  C        -24.8480   -6.9520    6.9810 C.2   109  LEU109      0.2592
     33  O        -25.8810   -6.2870    6.9150 O.2   109  LEU109     -0.2718
     34  CB       -24.2140   -7.6220    9.3190 C.3   109  LEU109      0.0284
     35  CG       -24.6780   -8.3770   10.5730 C.3   109  LEU109      0.0019
     36  CD1      -24.0000   -7.8680   11.8330 C.3   109  LEU109      0.0001
     37  CD2      -26.1900   -8.2980   10.7540 C.3   109  LEU109      0.0001
     38  N        -23.7740   -6.7080    6.2280 N.am  110  ASP110     -0.1974
     39  CA       -23.7940   -5.6990    5.1590 C.3   110  ASP110      0.1709
     40  C        -24.6720   -6.1250    3.9750 C.2   110  ASP110      0.2293
     41  O        -25.3370   -5.2840    3.3730 O.2   110  ASP110     -0.2864
     42  CB       -22.3760   -5.3640    4.6630 C.3   110  ASP110      0.1436
     43  CG       -21.6260   -4.4060    5.5880 C.2   110  ASP110      0.3671
     44  OD1      -22.2240   -3.4130    6.0570 O.co2 110  ASP110     -0.2456
     45  OD2      -20.4180   -4.6340    5.8230 O.co2 110  ASP110     -0.2456
     46  N        -10.2390    2.6420    3.2390 N.3   202  HIS202     -0.1226
     47  CA       -10.9950    1.4890    3.7220 C.3   202  HIS202      0.1752
     48  C        -11.5580    0.7440    2.5170 C.2   202  HIS202      0.2597
     49  O        -12.4230    1.2640    1.8090 O.2   202  HIS202     -0.2718
     50  CB       -12.1270    1.9070    4.6650 C.3   202  HIS202      0.0759
     51  CG       -12.8920    0.7530    5.2360 C.ar  202  HIS202      0.0818
     52  ND1      -12.6360    0.2350    6.4860 N.ar  202  HIS202     -0.2268
     53  CD2      -13.8960    0.0060    4.7180 C.ar  202  HIS202      0.1154
     54  CE1      -13.4550   -0.7750    6.7190 C.ar  202  HIS202      0.1986
     55  NE2      -14.2300   -0.9350    5.6610 N.ar  202  HIS202     -0.2212
     56  N        -11.0570   -0.4630    2.2850 N.am  203  GLY203     -0.1942
     57  CA       -11.5300   -1.3080    1.1970 C.3   203  GLY203      0.2014
     58  C        -12.4820   -2.3650    1.7130 C.2   203  GLY203      0.2639
     59  O        -12.3250   -2.8740    2.8210 O.2   203  GLY203     -0.2714
     60  N        -13.4870   -2.6740    0.9090 N.am  204  SER204     -0.1949
     61  CA       -14.4180   -3.7530    1.1910 C.3   204  SER204      0.1924
     62  C        -14.8490   -4.3010   -0.1590 C.2   204  SER204      0.2314
     63  O        -14.6320   -3.6580   -1.1910 O.2   204  SER204     -0.2863
     64  CB       -15.6100   -3.2300    1.9970 C.3   204  SER204      0.2116
     65  OG       -16.2480   -4.2730    2.7200 O.3   204  SER204     -0.2180
     66  N        -20.6880   -5.1300   -0.0110 N.3   208  ASN208     -0.1240
     67  CA       -20.8450   -4.4310    1.2720 C.3   208  ASN208      0.1653
     68  C        -21.2690   -2.9560    1.1640 C.2   208  ASN208      0.2266
     69  O        -21.7070   -2.3700    2.1580 O.2   208  ASN208     -0.2867
     70  CB       -19.5470   -4.5100    2.0910 C.3   208  ASN208      0.1155
     71  CG       -19.2690   -5.9020    2.6280 C.2   208  ASN208      0.2627
     72  OD1      -19.7590   -6.9020    2.1050 O.2   208  ASN208     -0.2716
     73  ND2      -18.4740   -5.9700    3.6880 N.am  208  ASN208     -0.0877
     74  N        -22.7260   -0.0860    3.6790 N.3   212  ILE212     -0.1245
     75  CA       -21.7990    0.9510    4.1610 C.3   212  ILE212      0.1561
     76  C        -22.3380    2.3570    3.8810 C.2   212  ILE212      0.2260
     77  O        -22.3030    3.2090    4.7540 O.2   212  ILE212     -0.2867
     78  CB       -20.3820    0.8040    3.5410 C.3   212  ILE212      0.0252
     79  CG1      -19.7130   -0.4950    4.0100 C.3   212  ILE212      0.0019
     80  CG2      -19.4890    1.9900    3.9080 C.3   212  ILE212      0.0019
     81  CD1      -18.6530   -1.0160    3.0600 C.3   212  ILE212      0.0001
     82  N        -23.2960    3.5940    7.2090 N.3   216  GLY216     -0.1210
     83  CA       -21.9440    4.0460    7.5400 C.3   216  GLY216      0.1956
     84  C        -21.0520    2.8790    7.9080 C.2   216  GLY216      0.2612
     85  O        -21.4950    1.7240    7.9230 O.2   216  GLY216     -0.2717
     86  N        -19.7860    3.1810    8.1890 N.am  217  LEU217     -0.1965
     87  CA       -18.8780    2.2050    8.7820 C.3   217  LEU217      0.1728
     88  C        -19.2520    2.0450   10.2560 C.2   217  LEU217      0.2616
     89  O        -19.3410    3.0240   11.0000 O.2   217  LEU217     -0.2715
     90  CB       -17.4110    2.6210    8.6240 C.3   217  LEU217      0.0311
     91  CG       -16.8380    2.5690    7.1990 C.3   217  LEU217      0.0022
     92  CD1      -15.4360    3.1610    7.1680 C.3   217  LEU217      0.0001
     93  CD2      -16.8250    1.1490    6.6460 C.3   217  LEU217      0.0001
     94  N        -19.5000    0.7950   10.6370 N.am  218  ARG218     -0.1963
     95  CA       -20.0170    0.4030   11.9520 C.3   218  ARG218      0.1729
     96  C        -19.0380   -0.4670   12.7460 C.2   218  ARG218      0.2616
     97  O        -17.9980   -0.8870   12.2410 O.2   218  ARG218     -0.2715
     98  CB       -21.3110   -0.3930   11.7560 C.3   218  ARG218      0.0348
     99  CG       -22.4670    0.3910   11.1690 C.3   218  ARG218      0.0492
    100  CD       -23.6370   -0.5410   10.8920 C.3   218  ARG218      0.2205
    101  NE       -23.4340   -1.3620    9.6930 N.pl3 218  ARG218     -0.0865
    102  CZ       -24.2120   -2.3820    9.3170 C.cat 218  ARG218      0.5346
    103  NH1      -25.2740   -2.7480   10.0420 N.pl3 218  ARG218      0.1354
    104  NH2      -23.9250   -3.0490    8.2010 N.pl3 218  ARG218      0.1354
    105  N        -19.3990   -0.7350   13.9970 N.am  219  ILE219     -0.1963
    106  CA       -18.6620   -1.6460   14.8680 C.3   219  ILE219      0.1727
    107  C        -19.4310   -2.9650   14.9200 C.2   219  ILE219      0.2616
    108  O        -20.6650   -2.9670   14.9360 O.2   219  ILE219     -0.2715
    109  CB       -18.4900   -1.0320   16.2800 C.3   219  ILE219      0.0290
    110  CG1      -17.5950    0.2150   16.1980 C.3   219  ILE219      0.0022
    111  CG2      -17.9020   -2.0430   17.2630 C.3   219  ILE219      0.0023
    112  CD1      -17.6860    1.1320   17.4000 C.3   219  ILE219      0.0001
    113  N        -18.7030   -4.0830   14.9340 N.am  220  ALA220     -0.1964
    114  CA       -19.3230   -5.4070   15.0330 C.3   220  ALA220      0.1713
    115  C        -20.0330   -5.5390   16.3830 C.2   220  ALA220      0.2458
    116  O        -19.5160   -5.0590   17.3970 O.2   220  ALA220     -0.2730
    117  CB       -18.2840   -6.5040   14.8690 C.3   220  ALA220      0.0333
    118  N        -21.2120   -6.1950   16.4040 N.am  221  PRO221     -0.2727
    119  CA       -22.0710   -6.1710   17.5960 C.3   221  PRO221      0.1402
    120  C        -21.4700   -6.8830   18.8260 C.2   221  PRO221      0.2269
    121  O        -20.4570   -7.5760   18.6940 O.2   221  PRO221     -0.2865
    122  CB       -23.3460   -6.8750   17.1170 C.3   221  PRO221      0.0296
    123  CG       -22.8840   -7.7910   16.0390 C.3   221  PRO221      0.0237
    124  CD       -21.7470   -7.0880   15.3580 C.3   221  PRO221      0.0939
    125  N        -10.8480  -10.3760   15.7990 N.3   229  TYR229     -0.1241
    126  CA       -10.3140   -9.1330   15.2320 C.3   229  TYR229      0.1605
    127  C         -8.9960   -8.7670   15.9200 C.2   229  TYR229      0.2264
    128  O         -8.9040   -8.8280   17.1450 O.2   229  TYR229     -0.2867
    129  CB       -11.3390   -8.0080   15.4120 C.3   229  TYR229      0.0534
    130  CG       -12.7400   -8.4170   15.0080 C.ar  229  TYR229     -0.0201
    131  CD1      -13.6510   -8.8930   15.9510 C.ar  229  TYR229     -0.0009
    132  CD2      -13.1450   -8.3610   13.6770 C.ar  229  TYR229     -0.0009
    133  CE1      -14.9320   -9.2820   15.5810 C.ar  229  TYR229      0.0417
    134  CE2      -14.4220   -8.7450   13.2990 C.ar  229  TYR229      0.0417
    135  CZ       -15.3130   -9.2040   14.2520 C.ar  229  TYR229      0.1957
    136  OH       -16.5800   -9.5910   13.8750 O.3   229  TYR229     -0.2866
    137  N        -12.8990   -4.9020   18.3250 N.3   233  LYS233     -0.1231
    138  CA       -14.0440   -4.5160   17.4980 C.3   233  LYS233      0.1693
    139  C        -14.1290   -2.9990   17.3170 C.2   233  LYS233      0.2593
    140  O        -14.6590   -2.2830   18.1660 O.2   233  LYS233     -0.2718
    141  CB       -15.3400   -5.0980   18.0800 C.3   233  LYS233      0.0285
    142  CG       -15.3880   -6.6170   17.9520 C.3   233  LYS233      0.0035
    143  CD       -16.6820   -7.2320   18.4590 C.3   233  LYS233      0.0206
    144  CE       -16.7520   -7.2450   19.9730 C.3   233  LYS233      0.1093
    145  NZ       -17.9600   -7.9720   20.4490 N.3   233  LYS233     -0.1314
    146  N        -13.5690   -2.5340   16.2020 N.am  234  GLY234     -0.1942
    147  CA       -13.6180   -1.1300   15.7890 C.3   234  GLY234      0.2014
    148  C        -13.7150   -1.0250   14.2770 C.2   234  GLY234      0.2639
    149  O        -14.0250   -2.0090   13.5970 O.2   234  GLY234     -0.2714
    150  N        -13.4600    0.1740   13.7580 N.am  235  ILE235     -0.1963
    151  CA       -13.4480    0.4380   12.3130 C.3   235  ILE235      0.1727
    152  C        -11.9930    0.5960   11.8880 C.2   235  ILE235      0.2616
    153  O        -11.2940    1.4650   12.4020 O.2   235  ILE235     -0.2715
    154  CB       -14.2320    1.7200   11.9520 C.3   235  ILE235      0.0290
    155  CG1      -15.6660    1.6400   12.4880 C.3   235  ILE235      0.0022
    156  CG2      -14.2620    1.9320   10.4380 C.3   235  ILE235      0.0023
    157  CD1      -16.4490    2.9230   12.3340 C.3   235  ILE235      0.0001
    158  N        -11.5680   -0.2340   10.9330 N.am  236  TYR236     -0.1960
    159  CA       -10.1630   -0.3630   10.5340 C.3   236  TYR236      0.1771
    160  C         -9.8790    0.4220    9.2580 C.2   236  TYR236      0.2620
    161  O        -10.6600    0.3640    8.3100 O.2   236  TYR236     -0.2715
    162  CB        -9.8080   -1.8340   10.2960 C.3   236  TYR236      0.0574
    163  CG        -9.6520   -2.6670   11.5560 C.ar  236  TYR236     -0.0198
    164  CD1      -10.7170   -2.8440   12.4410 C.ar  236  TYR236     -0.0009
    165  CD2       -8.4390   -3.2960   11.8550 C.ar  236  TYR236     -0.0009
    166  CE1      -10.5780   -3.6130   13.5870 C.ar  236  TYR236      0.0417
    167  CE2       -8.2920   -4.0650   13.0000 C.ar  236  TYR236      0.0417
    168  CZ        -9.3640   -4.2190   13.8620 C.ar  236  TYR236      0.1957
    169  OH        -9.2310   -4.9790   15.0000 O.3   236  TYR236     -0.2866
    170  N         -8.7550    1.1390    9.2430 N.am  237  PHE237     -0.1960
    171  CA        -8.2860    1.8740    8.0680 C.3   237  PHE237      0.1771
    172  C         -6.8040    1.6090    7.8250 C.2   237  PHE237      0.2619
    173  O         -6.0920    1.1730    8.7300 O.2   237  PHE237     -0.2715
    174  CB        -8.4780    3.3770    8.2620 C.3   237  PHE237      0.0574
    175  CG        -9.9000    3.7930    8.4970 C.ar  237  PHE237     -0.0200
    176  CD1      -10.4180    3.8480    9.7910 C.ar  237  PHE237     -0.0042
    177  CD2      -10.7170    4.1610    7.4310 C.ar  237  PHE237     -0.0042
    178  CE1      -11.7310    4.2490   10.0140 C.ar  237  PHE237     -0.0003
    179  CE2      -12.0290    4.5620    7.6480 C.ar  237  PHE237     -0.0003
    180  CZ       -12.5370    4.6050    8.9410 C.ar  237  PHE237     -0.0000
    181  N         -6.3440    1.8880    6.6070 N.am  238  ALA238     -0.1977
    182  CA        -4.9240    1.7930    6.2490 C.3   238  ALA238      0.1597
    183  C         -4.4730    3.0650    5.5450 C.2   238  ALA238      0.2287
    184  O         -5.2940    3.7620    4.9420 O.2   238  ALA238     -0.2864
    185  CB        -4.6830    0.5850    5.3520 C.3   238  ALA238      0.0319
    186  N         -2.9980   -2.2490    0.7280 N.3   243  LYS243     -0.1231
    187  CA        -3.4380   -2.9650    1.9270 C.3   243  LYS243      0.1693
    188  C         -4.9620   -2.9910    2.0440 C.2   243  LYS243      0.2592
    189  O         -5.5470   -4.0390    2.3060 O.2   243  LYS243     -0.2718
    190  CB        -2.8290   -2.3340    3.1820 C.3   243  LYS243      0.0285
    191  CG        -3.2320   -3.0190    4.4780 C.3   243  LYS243      0.0035
    192  CD        -2.1950   -2.8250    5.5680 C.3   243  LYS243      0.0206
    193  CE        -2.6170   -3.5060    6.8560 C.3   243  LYS243      0.1093
    194  NZ        -1.6570   -3.2150    7.9570 N.3   243  LYS243     -0.1314
    195  N         -5.5900   -1.8320    1.8560 N.am  244  SER244     -0.1952
    196  CA        -7.0530   -1.7390    1.8120 C.3   244  SER244      0.1924
    197  C         -7.6230   -2.4030    0.5490 C.2   244  SER244      0.2314
    198  O         -8.6480   -3.0890    0.6200 O.2   244  SER244     -0.2863
    199  CB        -7.5170   -0.2800    1.9110 C.3   244  SER244      0.2116
    200  OG        -7.4370    0.1900    3.2480 O.3   244  SER244     -0.2180
    201  N         -8.7130   -6.1320    0.5600 N.3   247  TYR247     -0.1241
    202  CA       -10.0180   -6.4560    1.1590 C.3   247  TYR247      0.1605
    203  C        -11.2200   -6.2910    0.2180 C.2   247  TYR247      0.2264
    204  O        -12.3350   -6.6760    0.5810 O.2   247  TYR247     -0.2867
    205  CB       -10.2390   -5.6360    2.4330 C.3   247  TYR247      0.0534
    206  CG        -9.2830   -6.0070    3.5350 C.ar  247  TYR247     -0.0201
    207  CD1       -9.5350   -7.1050    4.3630 C.ar  247  TYR247     -0.0009
    208  CD2       -8.1230   -5.2700    3.7540 C.ar  247  TYR247     -0.0009
    209  CE1       -8.6560   -7.4570    5.3780 C.ar  247  TYR247      0.0417
    210  CE2       -7.2360   -5.6130    4.7670 C.ar  247  TYR247      0.0417
    211  CZ        -7.5080   -6.7050    5.5780 C.ar  247  TYR247      0.1957
    212  OH        -6.6330   -7.0420    6.5870 O.3   247  TYR247     -0.2866
    213  N         -1.8310    0.6000   10.3560 N.3   328  GLU328     -0.1245
    214  CA        -3.1980    0.1670   10.5660 C.3   328  GLU328      0.1567
    215  C         -3.8110    1.0700   11.6260 C.2   328  GLU328      0.2260
    216  O         -3.2000    1.2830   12.6710 O.2   328  GLU328     -0.2867
    217  CB        -3.1830   -1.2810   11.0430 C.3   328  GLU328      0.0388
    218  CG        -4.4660   -2.0390   10.7940 C.3   328  GLU328      0.1160
    219  CD        -4.3010   -3.5320   10.9890 C.2   328  GLU328      0.3649
    220  OE1       -5.1220   -4.1290   11.7150 O.co2 328  GLU328     -0.2457
    221  OE2       -3.3630   -4.1080   10.4020 O.co2 328  GLU328     -0.2457
@<TRIPOS>BOND
     1    63    62    2
     2    62    61    1
     3    66    67    1
     4   203   204    2
     5   203   202    1
     6   197   198    2
     7   197   196    1
     8   201   202    1
     9   186   187    1
    10    60    61    1
    11    60    58   am
    12   202   205    1
    13    68    67    1
    14    68    69    2
    15    61    64    1
    16    57    58    1
    17    57    56    1
    18    67    70    1
    19    58    59    2
    20    49    48    2
    21   196   195    1
    22   196   199    1
    23   195   188   am
    24   199   200    1
    25   187   188    1
    26   187   190    1
    27    64    65    1
    28   188   189    2
    29    70    71    1
    30    72    71    2
    31    56    48   am
    32   205   206    1
    33    48    47    1
    34    71    73   am
    35    81    79    1
    36   190   191    1
    37    46    47    1
    38    41    40    2
    39   206   208   ar
    40   206   207   ar
    41    78    80    1
    42    78    79    1
    43    78    75    1
    44    74    75    1
    45    47    50    1
    46   208   210   ar
    47    76    75    1
    48    76    77    2
    49    40    39    1
    50   207   209   ar
    51   191   192    1
    52    42    39    1
    53    42    43    1
    54    50    51    1
    55    53    51   ar
    56    53    55   ar
    57   210   211   ar
    58   184   183    2
    59    39    38    1
    60    51    52   ar
    61   185   182    1
    62   209   211   ar
    63   183   182    1
    64   192   193    1
    65   211   212    1
    66    43    45   ar
    67    43    44   ar
    68    55    54   ar
    69    38    32   am
    70    21    19   ar
    71   182   181    1
    72    52    54   ar
    73    20    19   ar
    74    19    18    1
    75   181   172   am
    76    93    91    1
    77   193   194    1
    78    16    15    2
    79    33    32    2
    80    32    31    1
    81    18    17    1
    82    92    91    1
    83    91    90    1
    84    82    83    1
    85   177   179   ar
    86   177   175   ar
    87    30    31    1
    88    83    84    1
    89    25    24    2
    90   179   180   ar
    91    15    14    1
    92    24    23    1
    93   172   171    1
    94   172   173    2
    95    84    85    2
    96    84    86   am
    97    31    34    1
    98    17    14    1
    99   171   174    1
   100   171   170    1
   101    86    87    1
   102   104   102    1
   103   174   175    1
   104   161   160    2
   105   175   176   ar
   106    90    87    1
   107    14    13    1
   108    87    88    1
   109   180   178   ar
   110    26    23    1
   111    26    27    1
   112    23    22    1
   113   170   160   am
   114   160   159    1
   115   102   101    2
   116   102   103    1
   117    34    35    1
   118   101   100    1
   119   176   178   ar
   120    88    94   am
   121    88    89    2
   122   162   159    1
   123   162   163    1
   124   213   214    1
   125   221   219   ar
   126   156   154    1
   127    27    29   ar
   128    27    28   ar
   129   159   158    1
   130   214   217    1
   131   214   215    1
   132    35    37    1
   133    35    36    1
   134    94    95    1
   135   218   219    1
   136   218   217    1
   137   100    99    1
   138   158   152   am
   139   219   220   ar
   140    99    98    1
   141   163   165   ar
   142   163   164   ar
   143   215   216    2
   144    98    95    1
   145   165   167   ar
   146   152   151    1
   147   152   153    2
   148    95    96    1
   149   154   151    1
   150   154   155    1
   151    97    96    2
   152    12    11    1
   153   151   150    1
   154   157   155    1
   155   164   166   ar
   156    96   105   am
   157   167   168   ar
   158    11    10   ar
   159    11     9   ar
   160   134   132   ar
   161   134   135   ar
   162   166   168   ar
   163   149   148    2
   164    10     8   ar
   165   132   130   ar
   166   150   148   am
   167   168   169    1
   168     9     7   ar
   169   136   135    1
   170   105   106    1
   171   135   133   ar
   172   148   147    1
   173     8     6   ar
   174   106   107    1
   175   106   109    1
   176   117   114    1
   177     7     6   ar
   178   107   113   am
   179   107   108    2
   180   113   114    1
   181   130   129    1
   182   130   131   ar
   183   114   115    1
   184   126   129    1
   185   126   125    1
   186   126   127    1
   187     6     5    1
   188   124   123    1
   189   124   118    1
   190   133   131   ar
   191     1     2    1
   192   147   146    1
   193   127   128    2
   194   123   122    1
   195   110   109    1
   196   110   112    1
   197   146   139   am
   198   109   111    1
   199     2     5    1
   200     2     3    1
   201   115   118   am
   202   115   116    2
   203   118   119    1
   204   122   119    1
   205   139   138    1
   206   139   140    2
   207   138   141    1
   208   138   137    1
   209   119   120    1
   210     3     4    2
   211   142   141    1
   212   142   143    1
   213   143   144    1
   214   121   120    2
   215   144   145    1
