@<TRIPOS>MOLECULE
tmp/5wrsB01.pdb
 183 175 0 0 0
SMALL
GASTEIGER

@<TRIPOS>ATOM
      1  N          2.0970   45.7950   12.2790 N.3    37  TYR37      -0.1241
      2  CA         0.7730   46.3300   11.9800 C.3    37  TYR37       0.1605
      3  C          0.8630   47.4920   10.9970 C.2    37  TYR37       0.2264
      4  O          0.0560   47.5900   10.0650 O.2    37  TYR37      -0.2867
      5  CB         0.0800   46.7670   13.2700 C.3    37  TYR37       0.0534
      6  CG        -1.2630   47.4300   13.0570 C.ar   37  TYR37      -0.0201
      7  CD1       -2.4150   46.6710   12.9000 C.ar   37  TYR37      -0.0009
      8  CD2       -1.3800   48.8140   13.0200 C.ar   37  TYR37      -0.0009
      9  CE1       -3.6460   47.2720   12.7070 C.ar   37  TYR37       0.0417
     10  CE2       -2.6060   49.4240   12.8270 C.ar   37  TYR37       0.0417
     11  CZ        -3.7350   48.6480   12.6720 C.ar   37  TYR37       0.1957
     12  OH        -4.9580   49.2490   12.4810 O.3    37  TYR37      -0.2866
     13  N         -0.3870   47.9380    6.9750 N.3    41  LYS41      -0.1245
     14  CA        -1.1270   49.1040    6.4980 C.3    41  LYS41       0.1561
     15  C         -0.4690   49.7230    5.2720 C.2    41  LYS41       0.2260
     16  O         -1.1630   50.1680    4.3500 O.2    41  LYS41      -0.2867
     17  CB        -1.2520   50.1490    7.6060 C.3    41  LYS41       0.0271
     18  CG        -2.3280   49.8650    8.6280 C.3    41  LYS41       0.0035
     19  CD        -3.6350   50.4520    8.1280 C.3    41  LYS41       0.0206
     20  CE        -4.7420   50.3750    9.1550 C.3    41  LYS41       0.1093
     21  NZ        -5.9760   51.0260    8.6260 N.3    41  LYS41      -0.1314
     22  N        -12.6810   62.4620    8.1410 N.3   108  SER108     -0.1202
     23  CA       -12.5730   61.7290    9.3910 C.3   108  SER108      0.2020
     24  C        -13.6960   60.7010    9.4810 C.2   108  SER108      0.2619
     25  O        -14.7770   60.8810    8.9150 O.2   108  SER108     -0.2717
     26  CB       -12.6180   62.6870   10.5810 C.3   108  SER108      0.2103
     27  OG       -13.6290   63.6630   10.4080 O.3   108  SER108     -0.2182
     28  N        -13.4230   59.6030   10.1890 N.am  109  GLN109     -0.1965
     29  CA       -14.3880   58.5080   10.2520 C.3   109  GLN109      0.1733
     30  C        -15.6900   58.9510   10.9090 C.2   109  GLN109      0.2616
     31  O        -16.7740   58.5010   10.5190 O.2   109  GLN109     -0.2715
     32  CB       -13.7830   57.3170   10.9960 C.3   109  GLN109      0.0408
     33  CG       -13.8860   55.9790   10.2600 C.3   109  GLN109      0.0908
     34  CD       -13.0500   55.9140    8.9840 C.2   109  GLN109      0.2608
     35  OE1      -12.4000   56.8840    8.5930 O.2   109  GLN109     -0.2717
     36  NE2      -13.0580   54.7540    8.3380 N.am  109  GLN109     -0.0878
     37  N        -15.6080   59.8360   11.9060 N.am  110  ASP110     -0.1971
     38  CA       -16.8110   60.2900   12.5950 C.3   110  ASP110      0.1709
     39  C        -17.6820   61.1840   11.7200 C.2   110  ASP110      0.2293
     40  O        -18.8560   61.3920   12.0470 O.2   110  ASP110     -0.2864
     41  CB       -16.4350   61.0170   13.8890 C.3   110  ASP110      0.1436
     42  CG       -15.6240   62.2740   13.6420 C.2   110  ASP110      0.3671
     43  OD1      -15.0700   62.4180   12.5340 O.co2 110  ASP110     -0.2456
     44  OD2      -15.5360   63.1160   14.5610 O.co2 110  ASP110     -0.2456
     45  N        -13.4000   69.5390    8.5820 N.3   132  LYS132     -0.1245
     46  CA       -12.0460   69.1100    8.8940 C.3   132  LYS132      0.1561
     47  C        -11.7090   67.8470    8.1080 C.2   132  LYS132      0.2260
     48  O        -12.5890   67.0590    7.7480 O.2   132  LYS132     -0.2867
     49  CB       -11.8760   68.8600   10.3940 C.3   132  LYS132      0.0271
     50  CG       -12.5400   67.6010   10.9160 C.3   132  LYS132      0.0035
     51  CD       -12.2890   67.4380   12.4080 C.3   132  LYS132      0.0206
     52  CE       -12.7470   66.0750   12.9100 C.3   132  LYS132      0.1093
     53  NZ       -14.2310   65.9560   12.9470 N.3   132  LYS132     -0.1314
     54  N         -2.6030   62.6230    4.9630 N.3   136  ARG136     -0.1245
     55  CA        -1.5160   61.6580    5.0610 C.3   136  ARG136      0.1563
     56  C         -0.2970   62.2150    4.3440 C.2   136  ARG136      0.2260
     57  O         -0.3970   62.6640    3.1980 O.2   136  ARG136     -0.2867
     58  CB        -1.9100   60.3050    4.4620 C.3   136  ARG136      0.0307
     59  CG        -0.7730   59.2940    4.4530 C.3   136  ARG136      0.0489
     60  CD        -1.2500   57.8840    4.1340 C.3   136  ARG136      0.2205
     61  NE        -1.3960   57.0580    5.3290 N.pl3 136  ARG136     -0.0865
     62  CZ        -2.5600   56.6610    5.8290 C.cat 136  ARG136      0.5346
     63  NH1       -3.6920   57.0160    5.2370 N.pl3 136  ARG136      0.1354
     64  NH2       -2.5910   55.9070    6.9190 N.pl3 136  ARG136      0.1354
     65  N         -0.1500   60.6820    9.6330 N.3   142  LYS142     -0.1245
     66  CA        -1.4720   61.2740    9.4830 C.3   142  LYS142      0.1561
     67  C         -1.6630   62.4070   10.4810 C.2   142  LYS142      0.2260
     68  O         -1.1790   62.3400   11.6150 O.2   142  LYS142     -0.2867
     69  CB        -2.5790   60.2300    9.6670 C.3   142  LYS142      0.0271
     70  CG        -2.5600   59.1220    8.6310 C.3   142  LYS142      0.0035
     71  CD        -3.8880   58.3870    8.5960 C.3   142  LYS142      0.0206
     72  CE        -4.2320   57.7840    9.9450 C.3   142  LYS142      0.1093
     73  NZ        -5.4410   56.9220    9.8590 N.3   142  LYS142     -0.1314
     74  N         -4.7300   65.5690   11.7220 N.3   144  MET144     -0.1245
     75  CA        -6.0780   66.1210   11.6500 C.3   144  MET144      0.1570
     76  C         -5.9770   67.5900   11.2530 C.2   144  MET144      0.2261
     77  O         -5.4900   68.4190   12.0290 O.2   144  MET144     -0.2867
     78  CB        -6.7930   65.9570   12.9880 C.3   144  MET144      0.0387
     79  CG        -8.2380   66.4280   12.9880 C.3   144  MET144      0.0595
     80  SD        -9.2770   65.4460   11.8880 S.3   144  MET144     -0.1393
     81  CE        -9.2260   63.8530   12.7050 C.3   144  MET144      0.0692
     82  N         -7.6450   71.0140   10.7020 N.3   146  LYS146     -0.1245
     83  CA        -8.8020   71.8520   10.9870 C.3   146  LYS146      0.1561
     84  C         -8.6170   73.1980   10.3030 C.2   146  LYS146      0.2260
     85  O         -7.7570   73.9870   10.7250 O.2   146  LYS146     -0.2867
     86  CB        -8.9860   72.0360   12.4940 C.3   146  LYS146      0.0271
     87  CG        -9.3250   70.7520   13.2330 C.3   146  LYS146      0.0035
     88  CD        -9.6720   71.0210   14.6870 C.3   146  LYS146      0.0206
     89  CE        -9.9020   69.7230   15.4460 C.3   146  LYS146      0.1093
     90  NZ       -10.2000   69.9590   16.8880 N.3   146  LYS146     -0.1314
     91  N         -1.5040   66.2550   21.7180 N.3   188  PRO188     -0.2116
     92  CA        -0.6540   65.8390   20.6040 C.3   188  PRO188      0.1372
     93  C          0.0400   67.0300   19.9750 C.2   188  PRO188      0.2244
     94  O         -0.4860   68.1570   19.9940 O.2   188  PRO188     -0.2868
     95  CB        -1.6480   65.1870   19.6250 C.3   188  PRO188      0.0268
     96  CG        -2.8290   64.8400   20.4550 C.3   188  PRO188      0.0207
     97  CD        -2.9170   65.9130   21.4900 C.3   188  PRO188      0.0892
     98  N         -2.8190   68.4860   13.6260 N.3   250  SER250     -0.1202
     99  CA        -2.5600   67.7920   14.8820 C.3   250  SER250      0.2020
    100  C         -2.1700   66.3500   14.5930 C.2   250  SER250      0.2619
    101  O         -2.8760   65.6490   13.8620 O.2   250  SER250     -0.2717
    102  CB        -3.7850   67.8400   15.7990 C.3   250  SER250      0.2103
    103  OG        -3.5200   67.2110   17.0400 O.3   250  SER250     -0.2182
    104  N         -1.0550   65.9110   15.1740 N.am  251  ALA251     -0.1965
    105  CA        -0.5170   64.5880   14.8810 C.3   251  ALA251      0.1728
    106  C         -1.4270   63.4900   15.4180 C.2   251  ALA251      0.2616
    107  O         -1.8990   63.5510   16.5570 O.2   251  ALA251     -0.2715
    108  CB         0.8830   64.4400   15.4760 C.3   251  ALA251      0.0334
    109  N         -1.6640   62.4760   14.5890 N.am  252  PHE252     -0.1960
    110  CA        -2.5440   61.3770   14.9650 C.3   252  PHE252      0.1771
    111  C         -1.9370   60.5290   16.0760 C.2   252  PHE252      0.2619
    112  O         -0.7440   60.2100   16.0610 O.2   252  PHE252     -0.2715
    113  CB        -2.8430   60.4980   13.7500 C.3   252  PHE252      0.0574
    114  CG        -4.2160   60.7000   13.1780 C.ar  252  PHE252     -0.0200
    115  CD1       -4.6410   61.9590   12.7890 C.ar  252  PHE252     -0.0042
    116  CD2       -5.0810   59.6300   13.0240 C.ar  252  PHE252     -0.0042
    117  CE1       -5.9050   62.1480   12.2640 C.ar  252  PHE252     -0.0003
    118  CE2       -6.3450   59.8130   12.4980 C.ar  252  PHE252     -0.0003
    119  CZ        -6.7570   61.0730   12.1180 C.ar  252  PHE252     -0.0000
    120  N         -2.7750   60.1600   17.0430 N.am  253  LEU253     -0.1964
    121  CA        -2.4050   59.1930   18.0600 C.3   253  LEU253      0.1713
    122  C         -2.3470   57.8030   17.4290 C.2   253  LEU253      0.2458
    123  O         -2.7710   57.6140   16.2860 O.2   253  LEU253     -0.2730
    124  CB        -3.4050   59.2450   19.2160 C.3   253  LEU253      0.0310
    125  CG        -3.4830   60.5560   20.0000 C.3   253  LEU253      0.0022
    126  CD1       -4.5320   60.4640   21.0980 C.3   253  LEU253      0.0001
    127  CD2       -2.1260   60.9070   20.5840 C.3   253  LEU253      0.0001
    128  N         -1.8020   56.8090   18.1350 N.am  254  PRO254     -0.2716
    129  CA        -1.7830   55.4540   17.5730 C.3   254  PRO254      0.1536
    130  C         -3.1930   54.9310   17.3410 C.2   254  PRO254      0.2599
    131  O         -4.1500   55.3470   17.9980 O.2   254  PRO254     -0.2715
    132  CB        -1.0500   54.6330   18.6410 C.3   254  PRO254      0.0310
    133  CG        -0.2280   55.6220   19.3760 C.3   254  PRO254      0.0237
    134  CD        -1.0360   56.8850   19.3930 C.3   254  PRO254      0.0939
    135  N         -3.3080   54.0160   16.3800 N.am  255  SER255     -0.1936
    136  CA        -4.5920   53.4140   16.0450 C.3   255  SER255      0.2055
    137  C         -5.2520   52.8150   17.2800 C.2   255  SER255      0.2643
    138  O         -4.5810   52.2850   18.1690 O.2   255  SER255     -0.2714
    139  CB        -4.4000   52.3310   14.9820 C.3   255  SER255      0.2130
    140  OG        -5.6470   51.8550   14.5070 O.3   255  SER255     -0.2179
    141  N         -6.5840   52.9020   17.3270 N.am  256  LEU256     -0.1963
    142  CA        -7.3250   52.2930   18.4240 C.3   256  LEU256      0.1728
    143  C         -7.1680   50.7780   18.4490 C.2   256  LEU256      0.2616
    144  O         -7.3530   50.1640   19.5050 O.2   256  LEU256     -0.2715
    145  CB        -8.8050   52.6710   18.3320 C.3   256  LEU256      0.0311
    146  CG        -9.1200   54.1630   18.4780 C.3   256  LEU256      0.0022
    147  CD1      -10.5810   54.4420   18.1780 C.3   256  LEU256      0.0001
    148  CD2       -8.7540   54.6580   19.8680 C.3   256  LEU256      0.0001
    149  N         -6.8220   50.1630   17.3140 N.am  257  ASN257     -0.1972
    150  CA        -6.5090   48.7380   17.3100 C.3   257  ASN257      0.1688
    151  C         -5.2430   48.4460   18.1070 C.2   257  ASN257      0.2292
    152  O         -5.1480   47.4100   18.7760 O.2   257  ASN257     -0.2864
    153  CB        -6.3710   48.2350   15.8730 C.3   257  ASN257      0.1181
    154  CG        -7.6480   48.4060   15.0700 C.2   257  ASN257      0.2629
    155  OD1       -8.7410   48.1020   15.5490 O.2   257  ASN257     -0.2716
    156  ND2       -7.5160   48.8890   13.8390 N.am  257  ASN257     -0.0877
    157  N         -8.7480   53.5830   23.5680 N.3   261  ARG261     -0.1245
    158  CA        -8.9520   54.7130   24.4600 C.3   261  ARG261      0.1563
    159  C        -10.3680   54.6900   25.0130 C.2   261  ARG261      0.2260
    160  O        -11.3010   54.2140   24.3600 O.2   261  ARG261     -0.2867
    161  CB        -8.7190   56.0630   23.7620 C.3   261  ARG261      0.0307
    162  CG        -7.2960   56.3310   23.3290 C.3   261  ARG261      0.0489
    163  CD        -7.1560   57.7540   22.8010 C.3   261  ARG261      0.2205
    164  NE        -7.8190   57.9610   21.5160 N.pl3 261  ARG261     -0.0865
    165  CZ        -7.2530   57.7430   20.3330 C.cat 261  ARG261      0.5346
    166  NH1       -6.0050   57.3020   20.2590 N.pl3 261  ARG261      0.1354
    167  NH2       -7.9390   57.9650   19.2210 N.pl3 261  ARG261      0.1354
    168  N         -7.2250   66.3100   24.3060 N.3   338  LEU338     -0.1231
    169  CA        -7.5100   66.4170   22.8820 C.3   338  LEU338      0.1693
    170  C         -8.5060   67.5380   22.5930 C.2   338  LEU338      0.2592
    171  O         -9.2360   67.9990   23.4720 O.2   338  LEU338     -0.2718
    172  CB        -8.0740   65.1050   22.3390 C.3   338  LEU338      0.0284
    173  CG        -7.2220   63.8410   22.3860 C.3   338  LEU338      0.0019
    174  CD1       -8.0800   62.6350   22.0650 C.3   338  LEU338      0.0001
    175  CD2       -6.0730   63.9410   21.4120 C.3   338  LEU338      0.0001
    176  N         -8.5240   67.9620   21.3280 N.am  339  ASP339     -0.1974
    177  CA        -9.5460   68.8500   20.7660 C.3   339  ASP339      0.1709
    178  C         -9.7430   70.1020   21.6280 C.2   339  ASP339      0.2293
    179  O        -10.7570   70.2870   22.3000 O.2   339  ASP339     -0.2864
    180  CB       -10.8670   68.0950   20.5860 C.3   339  ASP339      0.1436
    181  CG       -10.7670   66.9760   19.5620 C.2   339  ASP339      0.3671
    182  OD1      -10.2160   67.2100   18.4660 O.co2 339  ASP339     -0.2456
    183  OD2      -11.2410   65.8590   19.8590 O.co2 339  ASP339     -0.2456
@<TRIPOS>BOND
     1    57    56    2
     2    60    59    1
     3    60    61    1
     4    56    55    1
     5    16    15    2
     6    59    58    1
     7    58    55    1
     8    54    55    1
     9    63    62    1
    10    15    14    1
    11    61    62    2
    12    62    64    1
    13    14    13    1
    14    14    17    1
    15    17    18    1
    16    48    47    2
    17    47    46    1
    18    19    18    1
    19    19    20    1
    20    22    23    1
    21    36    34   am
    22    45    46    1
    23    35    34    2
    24    71    70    1
    25    71    72    1
    26    21    20    1
    27    70    69    1
    28    46    49    1
    29    25    24    2
    30    34    33    1
    31    23    24    1
    32    23    26    1
    33    24    28   am
    34    66    65    1
    35    66    69    1
    36    66    67    1
    37    73    72    1
    38     4     3    2
    39    28    29    1
    40    29    30    1
    41    29    32    1
    42    33    32    1
    43    84    85    2
    44    84    83    1
    45    49    50    1
    46    27    26    1
    47    67    68    2
    48    31    30    2
    49    82    83    1
    50    30    37   am
    51    50    51    1
    52    83    86    1
    53     3     2    1
    54    76    75    1
    55    76    77    2
    56    75    74    1
    57    75    78    1
    58    39    40    2
    59    39    38    1
    60    80    81    1
    61    80    79    1
    62    37    38    1
    63     2     1    1
    64     2     5    1
    65   119   117   ar
    66   119   118   ar
    67   117   115   ar
    68    51    52    1
    69    12    11    1
    70    86    87    1
    71   118   116   ar
    72    43    42   ar
    73    38    41    1
    74    11     9   ar
    75    11    10   ar
    76     9     7   ar
    77   115   114   ar
    78    10     8   ar
    79     7     6   ar
    80    52    53    1
    81    79    78    1
    82     8     6   ar
    83   116   114   ar
    84     6     5    1
    85   114   113    1
    86    87    88    1
    87    98    99    1
    88    42    41    1
    89    42    44   ar
    90   113   110    1
    91   156   154   am
    92   101   100    2
    93   140   139    1
    94   109   110    1
    95   109   106   am
    96   100    99    1
    97   100   104   am
    98    88    89    1
    99   105   104    1
   100   105   106    1
   101   105   108    1
   102    99   102    1
   103   110   111    1
   104   139   136    1
   105   154   155    2
   106   154   153    1
   107   106   107    2
   108    89    90    1
   109   102   103    1
   110   153   150    1
   111   136   135    1
   112   136   137    1
   113   112   111    2
   114   111   120   am
   115   123   122    2
   116   135   130   am
   117   120   121    1
   118   137   141   am
   119   137   138    2
   120   150   149    1
   121   150   151    1
   122   149   143   am
   123   141   142    1
   124   130   129    1
   125   130   131    2
   126   122   121    1
   127   122   128   am
   128   129   128    1
   129   129   132    1
   130   121   124    1
   131   151   152    2
   132   128   134    1
   133   147   146    1
   134   145   142    1
   135   145   146    1
   136   142   143    1
   137   143   144    2
   138   182   181   ar
   139   146   148    1
   140   132   133    1
   141   124   125    1
   142   167   165    1
   143   133   134    1
   144   181   183   ar
   145   181   180    1
   146    95    96    1
   147    95    92    1
   148    93    94    2
   149    93    92    1
   150   125   127    1
   151   125   126    1
   152   166   165    1
   153   165   164    2
   154    96    97    1
   155   180   177    1
   156    92    91    1
   157   177   176    1
   158   177   178    1
   159   176   170   am
   160   175   173    1
   161    97    91    1
   162   164   163    1
   163   178   179    2
   164   174   173    1
   165   172   173    1
   166   172   169    1
   167   170   169    1
   168   170   171    2
   169   163   162    1
   170   169   168    1
   171   162   161    1
   172   157   158    1
   173   161   158    1
   174   160   159    2
   175   158   159    1
