@<TRIPOS>MOLECULE
tmp/5wryB00.pdb
 214 208 0 0 0
SMALL
GASTEIGER

@<TRIPOS>ATOM
      1  N         14.2300  -19.3750   21.4260 N.3    51  TYR51      -0.1241
      2  CA        13.2610  -18.2780   21.5450 C.3    51  TYR51       0.1605
      3  C         13.1420  -17.4710   20.2450 C.2    51  TYR51       0.2264
      4  O         12.0350  -17.1260   19.8270 O.2    51  TYR51      -0.2867
      5  CB        13.6510  -17.3170   22.6770 C.3    51  TYR51       0.0534
      6  CG        13.1730  -17.6620   24.0730 C.ar   51  TYR51      -0.0201
      7  CD1       11.8240  -17.9390   24.3360 C.ar   51  TYR51      -0.0009
      8  CD2       14.0600  -17.6380   25.1550 C.ar   51  TYR51      -0.0009
      9  CE1       11.3880  -18.2230   25.6250 C.ar   51  TYR51       0.0417
     10  CE2       13.6300  -17.9170   26.4440 C.ar   51  TYR51       0.0417
     11  CZ        12.2980  -18.2070   26.6730 C.ar   51  TYR51       0.1957
     12  OH        11.8900  -18.4740   27.9510 O.3    51  TYR51      -0.2866
     13  N          6.4120  -21.6250   26.7080 N.3   104  GLU104     -0.1245
     14  CA         6.2860  -22.0240   28.1130 C.3   104  GLU104      0.1567
     15  C          7.3960  -23.0200   28.4850 C.2   104  GLU104      0.2260
     16  O          7.9940  -22.9190   29.5580 O.2   104  GLU104     -0.2867
     17  CB         4.8940  -22.6210   28.3910 C.3   104  GLU104      0.0388
     18  CG         4.4210  -22.5100   29.8410 C.3   104  GLU104      0.1160
     19  CD         3.6410  -21.2330   30.1530 C.2   104  GLU104      0.3649
     20  OE1        3.9590  -20.1610   29.5850 O.co2 104  GLU104     -0.2457
     21  OE2        2.7030  -21.3060   30.9900 O.co2 104  GLU104     -0.2457
     22  N         10.7790  -21.1990   28.8650 N.3   107  ASP107     -0.1239
     23  CA        10.7940  -20.5150   30.1680 C.3   107  ASP107      0.1674
     24  C         11.3180  -21.4710   31.2380 C.2   107  ASP107      0.2266
     25  O         12.2270  -21.1330   31.9940 O.2   107  ASP107     -0.2867
     26  CB         9.3940  -20.0180   30.5660 C.3   107  ASP107      0.1410
     27  CG         8.8980  -18.8560   29.7120 C.2   107  ASP107      0.3668
     28  OD1        9.5490  -18.4760   28.7200 O.co2 107  ASP107     -0.2456
     29  OD2        7.8300  -18.3100   30.0450 O.co2 107  ASP107     -0.2456
     30  N         15.1000  -22.2440   30.7280 N.3   110  LEU110     -0.1231
     31  CA        15.8960  -21.1020   31.2280 C.3   110  LEU110      0.1693
     32  C         16.1460  -21.1890   32.7340 C.2   110  LEU110      0.2592
     33  O         17.2750  -21.0230   33.1820 O.2   110  LEU110     -0.2718
     34  CB        15.2450  -19.7380   30.9080 C.3   110  LEU110      0.0284
     35  CG        15.9570  -18.7800   29.9410 C.3   110  LEU110      0.0019
     36  CD1       15.2280  -17.4470   29.9210 C.3   110  LEU110      0.0001
     37  CD2       17.4190  -18.5570   30.2970 C.3   110  LEU110      0.0001
     38  N         15.0890  -21.4410   33.5000 N.am  111  ASP111     -0.1974
     39  CA        15.2020  -21.5520   34.9600 C.3   111  ASP111      0.1709
     40  C         15.9360  -22.8190   35.4120 C.2   111  ASP111      0.2293
     41  O         16.6190  -22.7930   36.4320 O.2   111  ASP111     -0.2864
     42  CB        13.8200  -21.4630   35.6300 C.3   111  ASP111      0.1436
     43  CG        13.3070  -20.0300   35.7610 C.2   111  ASP111      0.3671
     44  OD1       14.1000  -19.0640   35.6740 O.co2 111  ASP111     -0.2456
     45  OD2       12.0860  -19.8710   35.9740 O.co2 111  ASP111     -0.2456
     46  N          1.6790  -17.1820   43.0080 N.3   203  HIS203     -0.1226
     47  CA         2.3920  -17.5860   41.7950 C.3   203  HIS203      0.1752
     48  C          2.8940  -19.0160   41.9490 C.2   203  HIS203      0.2597
     49  O          3.7630  -19.2890   42.7880 O.2   203  HIS203     -0.2718
     50  CB         3.5670  -16.6640   41.4620 C.3   203  HIS203      0.0759
     51  CG         4.2660  -17.0310   40.1870 C.ar  203  HIS203      0.0818
     52  ND1        3.9250  -16.4860   38.9670 N.ar  203  HIS203     -0.2268
     53  CD2        5.2660  -17.9100   39.9370 C.ar  203  HIS203      0.1154
     54  CE1        4.6930  -17.0020   38.0240 C.ar  203  HIS203      0.1986
     55  NE2        5.5160  -17.8690   38.5860 N.ar  203  HIS203     -0.2212
     56  N          2.3460  -19.9120   41.1300 N.am  204  GLY204     -0.1942
     57  CA         2.7550  -21.3080   41.1010 C.3   204  GLY204      0.2014
     58  C          3.7010  -21.5740   39.9480 C.2   204  GLY204      0.2639
     59  O          3.5380  -21.0350   38.8580 O.2   204  GLY204     -0.2714
     60  N          4.7020  -22.4040   40.2090 N.am  205  SER205     -0.1949
     61  CA         5.6990  -22.7840   39.2150 C.3   205  SER205      0.1924
     62  C          6.1940  -24.1650   39.6010 C.2   205  SER205      0.2314
     63  O          6.0610  -24.5570   40.7590 O.2   205  SER205     -0.2863
     64  CB         6.8500  -21.7810   39.2150 C.3   205  SER205      0.2116
     65  OG         7.6780  -21.9580   38.0790 O.3   205  SER205     -0.2180
     66  N         14.1460  -18.8530   40.7810 N.3   213  ILE213     -0.1245
     67  CA        13.2170  -17.8680   41.3550 C.3   213  ILE213      0.1561
     68  C         13.7610  -17.2730   42.6540 C.2   213  ILE213      0.2260
     69  O         13.6070  -16.0800   42.8910 O.2   213  ILE213     -0.2867
     70  CB        11.8030  -18.4550   41.6090 C.3   213  ILE213      0.0252
     71  CG1       11.1250  -18.8380   40.2870 C.3   213  ILE213      0.0019
     72  CG2       10.9140  -17.4520   42.3430 C.3   213  ILE213      0.0019
     73  CD1        9.9600  -19.7930   40.4500 C.3   213  ILE213      0.0001
     74  N         11.5980  -13.5800   40.4740 N.3   218  LEU218     -0.1231
     75  CA        10.7440  -13.7990   39.3070 C.3   218  LEU218      0.1693
     76  C         11.1870  -12.8120   38.2300 C.2   218  LEU218      0.2592
     77  O         11.2050  -11.6050   38.4650 O.2   218  LEU218     -0.2718
     78  CB         9.2610  -13.5900   39.6350 C.3   218  LEU218      0.0284
     79  CG         8.5550  -14.6780   40.4500 C.3   218  LEU218      0.0019
     80  CD1        7.2070  -14.1820   40.9570 C.3   218  LEU218      0.0001
     81  CD2        8.3780  -15.9500   39.6320 C.3   218  LEU218      0.0001
     82  N         11.5730  -13.3330   37.0700 N.am  219  ARG219     -0.1966
     83  CA        12.0440  -12.5140   35.9550 C.3   219  ARG219      0.1729
     84  C         10.9990  -12.4880   34.8560 C.2   219  ARG219      0.2616
     85  O         10.0930  -13.3190   34.8340 O.2   219  ARG219     -0.2715
     86  CB        13.3400  -13.0880   35.3850 C.3   219  ARG219      0.0348
     87  CG        14.5020  -13.1410   36.3620 C.3   219  ARG219      0.0492
     88  CD        15.7080  -13.8010   35.7110 C.3   219  ARG219      0.2205
     89  NE        15.4730  -15.2230   35.4230 N.pl3 219  ARG219     -0.0865
     90  CZ        16.1840  -15.9770   34.5760 C.cat 219  ARG219      0.5346
     91  NH1       17.2100  -15.4760   33.8840 N.pl3 219  ARG219      0.1354
     92  NH2       15.8580  -17.2600   34.4120 N.pl3 219  ARG219      0.1354
     93  N         11.1380  -11.5230   33.9510 N.am  220  ILE220     -0.1963
     94  CA        10.3240  -11.4520   32.7370 C.3   220  ILE220      0.1727
     95  C         11.0600  -12.2490   31.6650 C.2   220  ILE220      0.2616
     96  O         12.2920  -12.2660   31.6470 O.2   220  ILE220     -0.2715
     97  CB        10.1160   -9.9900   32.2780 C.3   220  ILE220      0.0290
     98  CG1        9.3450   -9.2030   33.3470 C.3   220  ILE220      0.0022
     99  CG2        9.3740   -9.9350   30.9410 C.3   220  ILE220      0.0023
    100  CD1        9.4750   -7.7000   33.2200 C.3   220  ILE220      0.0001
    101  N         10.3120  -12.9110   30.7830 N.am  221  ALA221     -0.1977
    102  CA        10.9040  -13.6670   29.6700 C.3   221  ALA221      0.1597
    103  C         11.7940  -12.7460   28.8280 C.2   221  ALA221      0.2287
    104  O         11.4640  -11.5790   28.6520 O.2   221  ALA221     -0.2864
    105  CB         9.8140  -14.2870   28.8050 C.3   221  ALA221      0.0319
    106  N          2.4910  -15.5230   24.9850 N.3   230  TYR230     -0.1227
    107  CA         1.8490  -15.4380   26.2940 C.3   230  TYR230      0.1736
    108  C          0.5930  -14.5730   26.1660 C.2   230  TYR230      0.2595
    109  O          0.6230  -13.5430   25.4900 O.2   230  TYR230     -0.2718
    110  CB         2.8300  -14.8510   27.3100 C.3   230  TYR230      0.0548
    111  CG         4.2290  -15.4410   27.2170 C.ar  230  TYR230     -0.0200
    112  CD1        5.2470  -14.7720   26.5270 C.ar  230  TYR230     -0.0009
    113  CD2        4.5290  -16.6800   27.7860 C.ar  230  TYR230     -0.0009
    114  CE1        6.5240  -15.3110   26.4250 C.ar  230  TYR230      0.0417
    115  CE2        5.8060  -17.2260   27.6910 C.ar  230  TYR230      0.0417
    116  CZ         6.8000  -16.5380   27.0110 C.ar  230  TYR230      0.1957
    117  OH         8.0650  -17.0720   26.9130 O.3   230  TYR230     -0.2866
    118  N         -0.4980  -14.9970   26.8120 N.am  231  MET231     -0.1979
    119  CA        -1.8210  -14.3620   26.6560 C.3   231  MET231      0.1605
    120  C         -1.8020  -12.8410   26.8160 C.2   231  MET231      0.2287
    121  O         -2.4280  -12.1270   26.0300 O.2   231  MET231     -0.2864
    122  CB        -2.8360  -14.9640   27.6420 C.3   231  MET231      0.0413
    123  CG        -4.2570  -14.4380   27.4640 C.3   231  MET231      0.0598
    124  SD        -5.5320  -15.4250   28.2760 S.3   231  MET231     -0.1393
    125  CE        -5.5160  -16.9040   27.2670 C.3   231  MET231      0.0692
    126  N          1.1810  -10.9840   27.0330 N.3   233  GLY233     -0.1210
    127  CA         2.5580  -10.5890   26.7690 C.3   233  GLY233      0.1956
    128  C          3.5470  -10.9760   27.8520 C.2   233  GLY233      0.2612
    129  O          3.2460  -11.7930   28.7250 O.2   233  GLY233     -0.2717
    130  N          4.7270  -10.3630   27.7930 N.am  234  LYS234     -0.1965
    131  CA         5.8570  -10.7610   28.6240 C.3   234  LYS234      0.1728
    132  C          5.8830   -9.9620   29.9230 C.2   234  LYS234      0.2617
    133  O          6.4290   -8.8580   29.9930 O.2   234  LYS234     -0.2715
    134  CB         7.1650  -10.6380   27.8440 C.3   234  LYS234      0.0311
    135  CG         7.1830  -11.5350   26.6160 C.3   234  LYS234      0.0038
    136  CD         8.5560  -11.6400   25.9720 C.3   234  LYS234      0.0206
    137  CE         8.9230  -10.3950   25.1820 C.3   234  LYS234      0.1093
    138  NZ        10.3160  -10.4880   24.6640 N.3   234  LYS234     -0.1314
    139  N          5.2490  -10.5400   30.9380 N.am  235  GLY235     -0.1940
    140  CA         5.2220   -9.9980   32.2890 C.3   235  GLY235      0.2014
    141  C          5.2510  -11.1250   33.3020 C.2   235  GLY235      0.2639
    142  O          5.4610  -12.2870   32.9460 O.2   235  GLY235     -0.2714
    143  N          5.0530  -10.7710   34.5680 N.am  236  ILE236     -0.1963
    144  CA         5.0080  -11.7440   35.6580 C.3   236  ILE236      0.1727
    145  C          3.5440  -11.8860   36.0610 C.2   236  ILE236      0.2616
    146  O          2.8910  -10.8950   36.3810 O.2   236  ILE236     -0.2715
    147  CB         5.8990  -11.3150   36.8410 C.3   236  ILE236      0.0290
    148  CG1        7.3260  -11.0270   36.3450 C.3   236  ILE236      0.0022
    149  CG2        5.9350  -12.4040   37.9140 C.3   236  ILE236      0.0023
    150  CD1        8.2760  -10.5460   37.4180 C.3   236  ILE236      0.0001
    151  N          3.0530  -13.1280   36.0410 N.am  237  TYR237     -0.1960
    152  CA         1.6280  -13.4400   36.1470 C.3   237  TYR237      0.1771
    153  C          1.2990  -13.9930   37.5310 C.2   237  TYR237      0.2620
    154  O          2.0060  -14.8740   38.0330 O.2   237  TYR237     -0.2715
    155  CB         1.2310  -14.5010   35.1120 C.3   237  TYR237      0.0574
    156  CG         1.1670  -14.0530   33.6640 C.ar  237  TYR237     -0.0198
    157  CD1        2.2240  -13.3690   33.0640 C.ar  237  TYR237     -0.0009
    158  CD2        0.0580  -14.3630   32.8720 C.ar  237  TYR237     -0.0009
    159  CE1        2.1640  -12.9790   31.7330 C.ar  237  TYR237      0.0417
    160  CE2       -0.0040  -13.9830   31.5380 C.ar  237  TYR237      0.0417
    161  CZ         1.0540  -13.2940   30.9750 C.ar  237  TYR237      0.1957
    162  OH         1.0100  -12.9170   29.6560 O.3   237  TYR237     -0.2866
    163  N          0.2070  -13.5000   38.1140 N.am  238  PHE238     -0.1960
    164  CA        -0.2690  -13.9300   39.4270 C.3   238  PHE238      0.1771
    165  C         -1.7710  -14.2010   39.3830 C.2   238  PHE238      0.2619
    166  O         -2.4670  -13.7420   38.4750 O.2   238  PHE238     -0.2715
    167  CB         0.0010  -12.8500   40.4760 C.3   238  PHE238      0.0574
    168  CG         1.4540  -12.5170   40.6580 C.ar  238  PHE238     -0.0200
    169  CD1        2.0730  -11.5730   39.8430 C.ar  238  PHE238     -0.0042
    170  CD2        2.2030  -13.1280   41.6610 C.ar  238  PHE238     -0.0042
    171  CE1        3.4150  -11.2590   40.0150 C.ar  238  PHE238     -0.0003
    172  CE2        3.5440  -12.8170   41.8390 C.ar  238  PHE238     -0.0003
    173  CZ         4.1500  -11.8830   41.0140 C.ar  238  PHE238     -0.0000
    174  N         -2.2580  -14.9350   40.3810 N.am  239  ALA239     -0.1977
    175  CA        -3.6880  -15.2200   40.5380 C.3   239  ALA239      0.1597
    176  C         -4.1420  -14.9170   41.9650 C.2   239  ALA239      0.2287
    177  O         -3.3210  -14.8600   42.8840 O.2   239  ALA239     -0.2864
    178  CB        -3.9750  -16.6720   40.1880 C.3   239  ALA239      0.0319
    179  N         -5.8160  -21.9300   40.8650 N.3   244  LYS244     -0.1231
    180  CA        -5.3340  -21.5100   39.5390 C.3   244  LYS244      0.1693
    181  C         -3.8100  -21.5350   39.4780 C.2   244  LYS244      0.2592
    182  O         -3.2330  -22.1410   38.5750 O.2   244  LYS244     -0.2718
    183  CB        -5.8370  -20.1080   39.1780 C.3   244  LYS244      0.0285
    184  CG        -5.4070  -19.6320   37.7930 C.3   244  LYS244      0.0035
    185  CD        -6.1520  -18.3780   37.3740 C.3   244  LYS244      0.0206
    186  CE        -5.9540  -18.0650   35.8980 C.3   244  LYS244      0.1093
    187  NZ        -6.8010  -16.9170   35.4650 N.3   244  LYS244     -0.1314
    188  N         -3.1710  -20.8660   40.4350 N.am  245  SER245     -0.1952
    189  CA        -1.7080  -20.8890   40.5510 C.3   245  SER245      0.1924
    190  C         -1.1880  -22.2990   40.8460 C.2   245  SER245      0.2314
    191  O         -0.1610  -22.6980   40.2980 O.2   245  SER245     -0.2863
    192  CB        -1.2160  -19.8980   41.6110 C.3   245  SER245      0.2116
    193  OG        -1.3200  -18.5690   41.1290 O.3   245  SER245     -0.2180
    194  N         -0.4800  -24.4050   37.8460 N.3   248  TYR248     -0.1241
    195  CA         0.7990  -24.0520   37.2250 C.3   248  TYR248      0.1605
    196  C          2.0470  -24.5780   37.9550 C.2   248  TYR248      0.2264
    197  O          3.1670  -24.3140   37.5200 O.2   248  TYR248     -0.2867
    198  CB         0.8830  -22.5360   37.0240 C.3   248  TYR248      0.0534
    199  CG        -0.0470  -22.0320   35.9420 C.ar  248  TYR248     -0.0201
    200  CD1        0.2180  -22.2900   34.5950 C.ar  248  TYR248     -0.0009
    201  CD2       -1.1830  -21.2870   36.2560 C.ar  248  TYR248     -0.0009
    202  CE1       -0.6270  -21.8300   33.5960 C.ar  248  TYR248      0.0417
    203  CE2       -2.0340  -20.8210   35.2620 C.ar  248  TYR248      0.0417
    204  CZ        -1.7510  -21.0930   33.9320 C.ar  248  TYR248      0.1957
    205  OH        -2.5940  -20.6330   32.9420 O.3   248  TYR248     -0.2866
    206  N         -6.7310  -12.7330   36.9760 N.3   329  GLU329     -0.1245
    207  CA        -5.3390  -12.8270   36.5700 C.3   329  GLU329      0.1567
    208  C         -4.7080  -11.4520   36.6810 C.2   329  GLU329      0.2260
    209  O         -5.3310  -10.4700   36.2920 O.2   329  GLU329     -0.2867
    210  CB        -5.2870  -13.2960   35.1180 C.3   329  GLU329      0.0388
    211  CG        -4.2290  -14.3300   34.8570 C.3   329  GLU329      0.1160
    212  CD        -4.3750  -14.9550   33.4940 C.2   329  GLU329      0.3649
    213  OE1       -3.8970  -14.3500   32.5190 O.co2 329  GLU329     -0.2457
    214  OE2       -4.9420  -16.0610   33.4170 O.co2 329  GLU329     -0.2457
@<TRIPOS>BOND
     1     4     3    2
     2     3     2    1
     3     1     2    1
     4     2     5    1
     5     5     6    1
     6     6     7   ar
     7     6     8   ar
     8     7     9   ar
     9   138   137    1
    10   106   107    1
    11     8    10   ar
    12   137   136    1
    13   109   108    2
    14     9    11   ar
    15   136   135    1
    16   121   120    2
    17   108   107    1
    18   108   118   am
    19   107   110    1
    20   114   112   ar
    21   114   116   ar
    22    10    11   ar
    23   112   111   ar
    24   135   134    1
    25   119   118    1
    26   119   120    1
    27   119   122    1
    28    11    12    1
    29    13    14    1
    30   127   126    1
    31   127   128    1
    32   117   116    1
    33   116   115   ar
    34   111   110    1
    35   111   113   ar
    36   125   124    1
    37   123   122    1
    38   123   124    1
    39   115   113   ar
    40   130   128   am
    41   130   131    1
    42   134   131    1
    43   128   129    2
    44    14    17    1
    45    14    15    1
    46    17    18    1
    47    15    16    2
    48   131   132    1
    49   104   103    2
    50    28    27   ar
    51   105   102    1
    52   103   102    1
    53    22    23    1
    54    20    19   ar
    55   162   161    1
    56   102   101    1
    57    27    29   ar
    58    27    26    1
    59    18    19    1
    60    36    35    1
    61   132   133    2
    62   132   139   am
    63    35    37    1
    64    35    34    1
    65    19    21   ar
    66    23    26    1
    67    23    24    1
    68    30    31    1
    69   101    95   am
    70    34    31    1
    71   139   140    1
    72    99    97    1
    73   161   160   ar
    74   161   159   ar
    75    31    32    1
    76    24    25    2
    77   160   158   ar
    78    96    95    2
    79    95    94    1
    80   159   157   ar
    81    97    94    1
    82    97    98    1
    83   140   141    1
    84   213   212   ar
    85    32    33    2
    86    32    38   am
    87    94    93    1
    88   158   156   ar
    89   205   204    1
    90   142   141    2
    91   157   156   ar
    92   100    98    1
    93   141   143   am
    94   214   212   ar
    95   212   211    1
    96    38    39    1
    97   202   204   ar
    98   202   200   ar
    99   156   155    1
   100    91    90    1
   101   204   203   ar
   102    93    84   am
   103    92    90    1
   104   143   144    1
   105    90    89    2
   106   200   199   ar
   107    85    84    2
   108    84    83    1
   109   211   210    1
   110    39    40    1
   111    39    42    1
   112   155   152    1
   113   210   207    1
   114   203   201   ar
   115    86    83    1
   116    86    87    1
   117    40    41    2
   118    89    88    1
   119   187   186    1
   120    42    43    1
   121   144   145    1
   122   144   147    1
   123    44    43   ar
   124    88    87    1
   125    43    45   ar
   126   186   185    1
   127   199   201   ar
   128   199   198    1
   129    83    82    1
   130   151   145   am
   131   151   152    1
   132   145   146    2
   133   152   153    1
   134   209   208    2
   135   148   147    1
   136   148   150    1
   137   207   208    1
   138   207   206    1
   139   147   149    1
   140   198   195    1
   141    82    76   am
   142   195   194    1
   143   195   196    1
   144   185   184    1
   145   197   196    2
   146   153   154    2
   147   153   163   am
   148   184   183    1
   149    54    55   ar
   150    54    52   ar
   151    65    64    1
   152   163   164    1
   153    76    77    2
   154    76    75    1
   155   166   165    2
   156   182   181    2
   157    55    53   ar
   158    59    58    2
   159    52    51   ar
   160   183   180    1
   161    61    64    1
   162    61    62    1
   163    61    60    1
   164    75    78    1
   165    75    74    1
   166   165   164    1
   167   165   174   am
   168   164   167    1
   169   181   180    1
   170   181   188   am
   171   180   179    1
   172    62    63    2
   173    81    79    1
   174    78    79    1
   175   169   171   ar
   176   169   168   ar
   177    53    51   ar
   178    58    60   am
   179    58    57    1
   180   171   173   ar
   181    51    50    1
   182   178   175    1
   183    71    73    1
   184    71    70    1
   185   191   190    2
   186   174   175    1
   187   188   189    1
   188    79    80    1
   189   167   168    1
   190   175   176    1
   191   189   190    1
   192   189   192    1
   193   168   170   ar
   194    66    67    1
   195   173   172   ar
   196    57    56    1
   197   193   192    1
   198    56    48   am
   199    67    70    1
   200    67    68    1
   201    50    47    1
   202    70    72    1
   203   170   172   ar
   204    47    48    1
   205    47    46    1
   206    48    49    2
   207   176   177    2
   208    68    69    2
