@<TRIPOS>MOLECULE
tmp/5wrzB00.pdb
 115 112 0 0 0
SMALL
GASTEIGER

@<TRIPOS>ATOM
      1  N          6.8530  -22.0490   26.7730 N.3   103  GLU103     -0.1245
      2  CA         6.7270  -22.5680   28.1300 C.3   103  GLU103      0.1567
      3  C          7.8320  -23.5880   28.4670 C.2   103  GLU103      0.2260
      4  O          8.5100  -23.4730   29.5140 O.2   103  GLU103     -0.2867
      5  CB         5.3100  -23.1570   28.2950 C.3   103  GLU103      0.0388
      6  CG         4.7680  -23.1700   29.7160 C.3   103  GLU103      0.1160
      7  CD         3.2410  -23.0580   29.8170 C.2   103  GLU103      0.3649
      8  OE1        2.5460  -22.8980   28.7600 O.co2 103  GLU103     -0.2457
      9  OE2        2.7430  -23.1300   30.9950 O.co2 103  GLU103     -0.2457
     10  N         11.1210  -21.5670   28.9250 N.3   106  ASP106     -0.1239
     11  CA        11.0750  -20.9350   30.2360 C.3   106  ASP106      0.1674
     12  C         11.5730  -21.9570   31.2920 C.2   106  ASP106      0.2266
     13  O         12.4500  -21.6940   32.0930 O.2   106  ASP106     -0.2867
     14  CB         9.6200  -20.5110   30.5990 C.3   106  ASP106      0.1410
     15  CG         9.1160  -19.2400   29.8260 C.2   106  ASP106      0.3668
     16  OD1        9.7220  -18.7260   28.8170 O.co2 106  ASP106     -0.2456
     17  OD2        8.0450  -18.7760   30.2320 O.co2 106  ASP106     -0.2456
     18  N          1.8270  -17.6120   42.9840 N.3   202  HIS202     -0.1226
     19  CA         2.4990  -18.0580   41.7410 C.3   202  HIS202      0.1752
     20  C          2.9960  -19.5010   41.8470 C.2   202  HIS202      0.2596
     21  O          3.8700  -19.8030   42.6680 O.2   202  HIS202     -0.2718
     22  CB         3.6570  -17.1050   41.3780 C.3   202  HIS202      0.0759
     23  CG         4.3420  -17.4420   40.0880 C.ar  202  HIS202      0.0818
     24  ND1        4.0400  -16.8310   38.8880 N.ar  202  HIS202     -0.2268
     25  CD2        5.3020  -18.3510   39.8050 C.ar  202  HIS202      0.1154
     26  CE1        4.7850  -17.3460   37.9170 C.ar  202  HIS202      0.1986
     27  NE2        5.5770  -18.2560   38.4580 N.ar  202  HIS202     -0.2212
     28  N          2.4670  -20.3690   40.9970 N.am  203  GLY203     -0.1957
     29  CA         2.8690  -21.7760   40.9410 C.3   203  GLY203      0.1869
     30  C          3.8560  -22.0050   39.8350 C.2   203  GLY203      0.2309
     31  O          3.8530  -21.3160   38.8010 O.2   203  GLY203     -0.2863
     32  N          2.7710  -15.9340   25.0970 N.3   229  TYR229     -0.1227
     33  CA         2.1090  -15.8100   26.3630 C.3   229  TYR229      0.1736
     34  C          0.8600  -14.9770   26.1840 C.2   229  TYR229      0.2595
     35  O          0.8460  -14.0130   25.4160 O.2   229  TYR229     -0.2718
     36  CB         3.0800  -15.1610   27.3680 C.3   229  TYR229      0.0548
     37  CG         4.5130  -15.6580   27.2560 C.ar  229  TYR229     -0.0200
     38  CD1        5.4160  -15.0730   26.3890 C.ar  229  TYR229     -0.0009
     39  CD2        4.9180  -16.7700   27.9530 C.ar  229  TYR229     -0.0009
     40  CE1        6.7260  -15.5380   26.2720 C.ar  229  TYR229      0.0417
     41  CE2        6.2060  -17.2500   27.8680 C.ar  229  TYR229      0.0417
     42  CZ         7.1230  -16.6250   27.0600 C.ar  229  TYR229      0.1957
     43  OH         8.4140  -17.1580   26.9960 O.3   229  TYR229     -0.2866
     44  N         -0.1860  -15.3550   26.8950 N.am  230  MET230     -0.1979
     45  CA        -1.5100  -14.7940   26.7470 C.3   230  MET230      0.1605
     46  C         -1.5900  -13.2750   26.9700 C.2   230  MET230      0.2287
     47  O         -2.3230  -12.6000   26.2500 O.2   230  MET230     -0.2864
     48  CB        -2.4960  -15.4950   27.6810 C.3   230  MET230      0.0413
     49  CG        -3.9320  -15.0920   27.3940 C.3   230  MET230      0.0598
     50  SD        -5.2100  -15.8640   28.4280 S.3   230  MET230     -0.1393
     51  CE        -6.7260  -15.0880   27.8260 C.3   230  MET230      0.0692
     52  N          3.1170  -13.4870   36.0950 N.3   236  TYR236     -0.1227
     53  CA         1.7360  -13.8850   36.1550 C.3   236  TYR236      0.1736
     54  C          1.3770  -14.4010   37.5700 C.2   236  TYR236      0.2595
     55  O          2.1170  -15.1690   38.1550 O.2   236  TYR236     -0.2718
     56  CB         1.5020  -15.0080   35.1390 C.3   236  TYR236      0.0548
     57  CG         1.4410  -14.5730   33.7030 C.ar  236  TYR236     -0.0200
     58  CD1        2.5860  -14.1060   33.0370 C.ar  236  TYR236     -0.0009
     59  CD2        0.2300  -14.6600   32.9740 C.ar  236  TYR236     -0.0009
     60  CE1        2.5220  -13.7060   31.7100 C.ar  236  TYR236      0.0417
     61  CE2        0.1770  -14.2680   31.6550 C.ar  236  TYR236      0.0417
     62  CZ         1.3460  -13.7740   31.0230 C.ar  236  TYR236      0.1957
     63  OH         1.2970  -13.3440   29.6870 O.3   236  TYR236     -0.2866
     64  N          0.2290  -13.9930   38.0790 N.am  237  PHE237     -0.1962
     65  CA        -0.2730  -14.4240   39.3520 C.3   237  PHE237      0.1771
     66  C         -1.7310  -14.7400   39.2990 C.2   237  PHE237      0.2619
     67  O         -2.4840  -14.2450   38.4180 O.2   237  PHE237     -0.2715
     68  CB        -0.0450  -13.3560   40.4070 C.3   237  PHE237      0.0574
     69  CG         1.3860  -12.9310   40.5500 C.ar  237  PHE237     -0.0200
     70  CD1        1.9120  -11.8950   39.7500 C.ar  237  PHE237     -0.0042
     71  CD2        2.2200  -13.5150   41.4990 C.ar  237  PHE237     -0.0042
     72  CE1        3.2470  -11.4980   39.8840 C.ar  237  PHE237     -0.0003
     73  CE2        3.5320  -13.1040   41.6430 C.ar  237  PHE237     -0.0003
     74  CZ         4.0370  -12.0790   40.8460 C.ar  237  PHE237     -0.0000
     75  N         -2.1610  -15.5670   40.2580 N.am  238  ALA238     -0.1977
     76  CA        -3.5750  -15.8090   40.4680 C.3   238  ALA238      0.1597
     77  C         -4.0200  -15.4170   41.8830 C.2   238  ALA238      0.2287
     78  O         -3.1900  -15.3240   42.8390 O.2   238  ALA238     -0.2864
     79  CB        -3.8920  -17.2590   40.2050 C.3   238  ALA238      0.0319
     80  N         -5.7540  -22.3340   40.6180 N.3   243  LYS243     -0.1231
     81  CA        -5.2780  -21.8390   39.3080 C.3   243  LYS243      0.1693
     82  C         -3.7350  -21.7980   39.2620 C.2   243  LYS243      0.2592
     83  O         -3.1440  -22.2020   38.2840 O.2   243  LYS243     -0.2718
     84  CB        -5.7980  -20.4390   38.9830 C.3   243  LYS243      0.0285
     85  CG        -5.3810  -19.9930   37.5890 C.3   243  LYS243      0.0035
     86  CD        -6.2500  -18.8540   37.0900 C.3   243  LYS243      0.0206
     87  CE        -6.0910  -18.6380   35.5840 C.3   243  LYS243      0.1093
     88  NZ        -6.6260  -17.2950   35.2390 N.3   243  LYS243     -0.1314
     89  N         -3.0980  -21.2420   40.2890 N.am  244  SER244     -0.1952
     90  CA        -1.6440  -21.2900   40.3820 C.3   244  SER244      0.1924
     91  C         -1.1070  -22.7320   40.4930 C.2   244  SER244      0.2314
     92  O         -0.0760  -23.0600   39.9240 O.2   244  SER244     -0.2863
     93  CB        -1.1520  -20.4490   41.5550 C.3   244  SER244      0.2116
     94  OG        -1.2290  -19.0990   41.1990 O.3   244  SER244     -0.2180
     95  N         -0.1220  -24.7200   37.5070 N.3   247  TYR247     -0.1241
     96  CA         1.1970  -24.4040   36.9430 C.3   247  TYR247      0.1605
     97  C          2.4020  -25.0990   37.6220 C.2   247  TYR247      0.2264
     98  O          3.5280  -24.9260   37.1960 O.2   247  TYR247     -0.2867
     99  CB         1.3950  -22.8770   36.8320 C.3   247  TYR247      0.0534
    100  CG         0.4360  -22.2280   35.8360 C.ar  247  TYR247     -0.0201
    101  CD1        0.6480  -22.3000   34.4350 C.ar  247  TYR247     -0.0009
    102  CD2       -0.7030  -21.5850   36.2810 C.ar  247  TYR247     -0.0009
    103  CE1       -0.2680  -21.7510   33.5280 C.ar  247  TYR247      0.0417
    104  CE2       -1.6120  -21.0200   35.3940 C.ar  247  TYR247      0.0417
    105  CZ        -1.4130  -21.1090   34.0100 C.ar  247  TYR247      0.1957
    106  OH        -2.3640  -20.5120   33.1740 O.3   247  TYR247     -0.2866
    107  N         -6.4780  -13.2690   36.7820 N.3   328  GLU328     -0.1245
    108  CA        -5.1000  -13.4360   36.4610 C.3   328  GLU328      0.1567
    109  C         -4.5730  -12.0030   36.5910 C.2   328  GLU328      0.2260
    110  O         -5.3070  -11.0440   36.2680 O.2   328  GLU328     -0.2867
    111  CB        -5.0780  -13.9110   35.0130 C.3   328  GLU328      0.0388
    112  CG        -3.8050  -14.4550   34.5130 C.3   328  GLU328      0.1160
    113  CD        -4.0070  -15.2450   33.2420 C.2   328  GLU328      0.3649
    114  OE1       -3.2640  -14.9570   32.3000 O.co2 328  GLU328     -0.2457
    115  OE2       -4.8530  -16.1850   33.2190 O.co2 328  GLU328     -0.2457
@<TRIPOS>BOND
     1    32    33    1
     2    35    34    2
     3    34    33    1
     4    34    44   am
     5    47    46    2
     6    40    38   ar
     7    40    42   ar
     8    33    36    1
     9    38    37   ar
    10    45    44    1
    11    45    46    1
    12    45    48    1
    13     1     2    1
    14    43    42    1
    15    42    41   ar
    16    37    36    1
    17    37    39   ar
    18    49    48    1
    19    49    50    1
    20    51    50    1
    21    41    39   ar
    22     2     5    1
    23     2     3    1
    24     5     6    1
    25     3     4    2
    26     8     7   ar
    27    16    15   ar
    28    10    11    1
    29    63    62    1
    30     6     7    1
    31     7     9   ar
    32    15    17   ar
    33    15    14    1
    34    11    14    1
    35    11    12    1
    36    62    61   ar
    37    62    60   ar
    38    12    13    2
    39    61    59   ar
    40    60    58   ar
    41   114   113   ar
    42    59    57   ar
    43    58    57   ar
    44   106   105    1
    45   115   113   ar
    46   113   112    1
    47   103   105   ar
    48   103   101   ar
    49    57    56    1
    50   105   104   ar
    51   101   100   ar
    52   112   111    1
    53   111   108    1
    54    56    53    1
    55    88    87    1
    56   104   102   ar
    57    87    86    1
    58   100   102   ar
    59   100    99    1
    60    52    53    1
    61    53    54    1
    62   110   109    2
    63   108   109    1
    64   108   107    1
    65    99    96    1
    66    96    95    1
    67    96    97    1
    68    86    85    1
    69    98    97    2
    70    54    64   am
    71    54    55    2
    72    85    84    1
    73    26    27   ar
    74    26    24   ar
    75    64    65    1
    76    83    82    2
    77    67    66    2
    78    27    25   ar
    79    31    30    2
    80    24    23   ar
    81    84    81    1
    82    82    81    1
    83    82    89   am
    84    66    65    1
    85    66    75   am
    86    81    80    1
    87    65    68    1
    88    70    72   ar
    89    70    69   ar
    90    25    23   ar
    91    30    29    1
    92    72    74   ar
    93    92    91    2
    94    23    22    1
    95    79    76    1
    96    75    76    1
    97    89    90    1
    98    90    91    1
    99    90    93    1
   100    68    69    1
   101    76    77    1
   102    69    71   ar
   103    74    73   ar
   104    29    28    1
   105    28    20   am
   106    94    93    1
   107    22    19    1
   108    71    73   ar
   109    19    20    1
   110    19    18    1
   111    20    21    2
   112    77    78    2
