@<TRIPOS>MOLECULE
tmp/5ws0B00.pdb
 123 120 0 0 0
SMALL
GASTEIGER

@<TRIPOS>ATOM
      1  N          6.6120  -22.0440   26.8450 N.3   103  GLU103     -0.1245
      2  CA         6.5190  -22.4970   28.1960 C.3   103  GLU103      0.1567
      3  C          7.6330  -23.5130   28.5330 C.2   103  GLU103      0.2260
      4  O          8.3000  -23.3710   29.5540 O.2   103  GLU103     -0.2867
      5  CB         5.1110  -23.0460   28.4660 C.3   103  GLU103      0.0388
      6  CG         4.8240  -23.2240   29.9510 C.3   103  GLU103      0.1160
      7  CD         3.3490  -23.4120   30.2720 C.2   103  GLU103      0.3649
      8  OE1        2.4960  -22.7890   29.5680 O.co2 103  GLU103     -0.2457
      9  OE2        3.0660  -24.1630   31.2500 O.co2 103  GLU103     -0.2457
     10  N         10.8350  -21.6280   29.1470 N.3   106  ASP106     -0.1225
     11  CA        10.8330  -20.9320   30.4280 C.3   106  ASP106      0.1805
     12  C         11.3640  -21.9060   31.4860 C.2   106  ASP106      0.2597
     13  O         12.3040  -21.6260   32.2450 O.2   106  ASP106     -0.2718
     14  CB         9.4120  -20.4410   30.7990 C.3   106  ASP106      0.1424
     15  CG         8.9510  -19.1940   29.9870 C.2   106  ASP106      0.3668
     16  OD1        9.5220  -18.8000   28.9430 O.co2 106  ASP106     -0.2456
     17  OD2        7.9610  -18.5900   30.4100 O.co2 106  ASP106     -0.2456
     18  N         10.7990  -23.0890   31.4580 N.am  107  ASN107     -0.1974
     19  CA        11.1810  -24.1300   32.3760 C.3   107  ASN107      0.1688
     20  C         12.6110  -24.6190   32.1810 C.2   107  ASN107      0.2292
     21  O         13.2970  -24.9200   33.1640 O.2   107  ASN107     -0.2864
     22  CB        10.1700  -25.2830   32.3230 C.3   107  ASN107      0.1181
     23  CG         8.7440  -24.8180   32.6120 C.2   107  ASN107      0.2629
     24  OD1        8.5210  -23.8790   33.3870 O.2   107  ASN107     -0.2716
     25  ND2        7.7730  -25.4460   31.9570 N.am  107  ASN107     -0.0877
     26  N          1.7260  -17.4360   42.9730 N.3   202  HIS202     -0.1226
     27  CA         2.3560  -17.8530   41.7220 C.3   202  HIS202      0.1752
     28  C          2.9070  -19.2620   41.9150 C.2   202  HIS202      0.2596
     29  O          3.7460  -19.4850   42.7950 O.2   202  HIS202     -0.2718
     30  CB         3.4570  -16.8740   41.3190 C.3   202  HIS202      0.0759
     31  CG         4.1690  -17.2330   40.0490 C.ar  202  HIS202      0.0818
     32  ND1        3.7480  -16.8030   38.8080 N.ar  202  HIS202     -0.2268
     33  CD2        5.2720  -17.9780   39.8290 C.ar  202  HIS202      0.1154
     34  CE1        4.5710  -17.2500   37.8780 C.ar  202  HIS202      0.1986
     35  NE2        5.5100  -17.9620   38.4710 N.ar  202  HIS202     -0.2212
     36  N          2.4330  -20.1910   41.0920 N.am  203  GLY203     -0.1957
     37  CA         2.8630  -21.5880   41.1190 C.3   203  GLY203      0.1869
     38  C          3.8130  -21.8850   39.9910 C.2   203  GLY203      0.2309
     39  O          3.7870  -21.2480   38.9310 O.2   203  GLY203     -0.2863
     40  N          2.6400  -15.8620   25.3230 N.3   229  TYR229     -0.1227
     41  CA         2.0310  -15.6560   26.6060 C.3   229  TYR229      0.1736
     42  C          0.7670  -14.8330   26.4320 C.2   229  TYR229      0.2595
     43  O          0.7650  -13.8540   25.6860 O.2   229  TYR229     -0.2718
     44  CB         3.0370  -14.9340   27.4580 C.3   229  TYR229      0.0548
     45  CG         4.4350  -15.5140   27.3710 C.ar  229  TYR229     -0.0200
     46  CD1        5.4020  -14.9390   26.5510 C.ar  229  TYR229     -0.0009
     47  CD2        4.7800  -16.6170   28.1190 C.ar  229  TYR229     -0.0009
     48  CE1        6.6920  -15.4340   26.4970 C.ar  229  TYR229      0.0417
     49  CE2        6.0500  -17.1450   28.0660 C.ar  229  TYR229      0.0417
     50  CZ         7.0250  -16.5550   27.2640 C.ar  229  TYR229      0.1957
     51  OH         8.3110  -17.1160   27.2510 O.3   229  TYR229     -0.2866
     52  N         -0.3100  -15.2480   27.0900 N.am  230  MET230     -0.1979
     53  CA        -1.6180  -14.6210   26.9110 C.3   230  MET230      0.1605
     54  C         -1.6250  -13.0780   27.0940 C.2   230  MET230      0.2287
     55  O         -2.2840  -12.3620   26.3470 O.2   230  MET230     -0.2864
     56  CB        -2.6070  -15.2370   27.8870 C.3   230  MET230      0.0413
     57  CG        -4.0160  -14.7370   27.6710 C.3   230  MET230      0.0598
     58  SD        -5.2090  -15.6590   28.6380 S.3   230  MET230     -0.1393
     59  CE        -6.7290  -15.1160   27.8480 C.3   230  MET230      0.0692
     60  N          3.1310  -13.4160   36.1160 N.3   236  TYR236     -0.1227
     61  CA         1.7380  -13.8300   36.1690 C.3   236  TYR236      0.1736
     62  C          1.3260  -14.2860   37.5700 C.2   236  TYR236      0.2595
     63  O          2.0010  -15.0740   38.1900 O.2   236  TYR236     -0.2718
     64  CB         1.5430  -14.9570   35.1480 C.3   236  TYR236      0.0548
     65  CG         1.4640  -14.4450   33.7210 C.ar  236  TYR236     -0.0200
     66  CD1        2.6060  -13.9950   33.0660 C.ar  236  TYR236     -0.0009
     67  CD2        0.2250  -14.3950   33.0430 C.ar  236  TYR236     -0.0009
     68  CE1        2.5490  -13.5190   31.7730 C.ar  236  TYR236      0.0417
     69  CE2        0.1360  -13.9440   31.7460 C.ar  236  TYR236      0.0417
     70  CZ         1.2920  -13.4690   31.1060 C.ar  236  TYR236      0.1957
     71  OH         1.2160  -12.9720   29.8050 O.3   236  TYR236     -0.2866
     72  N          0.2090  -13.7880   38.0790 N.am  237  PHE237     -0.1962
     73  CA        -0.2860  -14.1830   39.3860 C.3   237  PHE237      0.1771
     74  C         -1.7650  -14.4850   39.2890 C.2   237  PHE237      0.2619
     75  O         -2.4430  -14.0600   38.3360 O.2   237  PHE237     -0.2715
     76  CB        -0.0810  -13.0700   40.3780 C.3   237  PHE237      0.0574
     77  CG         1.3590  -12.7350   40.6410 C.ar  237  PHE237     -0.0200
     78  CD1        2.0100  -11.7710   39.8800 C.ar  237  PHE237     -0.0042
     79  CD2        2.0470  -13.3420   41.6740 C.ar  237  PHE237     -0.0042
     80  CE1        3.3470  -11.4560   40.1110 C.ar  237  PHE237     -0.0003
     81  CE2        3.3710  -13.0250   41.9250 C.ar  237  PHE237     -0.0003
     82  CZ         4.0210  -12.0790   41.1380 C.ar  237  PHE237     -0.0000
     83  N         -2.2510  -15.2420   40.2670 N.am  238  ALA238     -0.1977
     84  CA        -3.6570  -15.4990   40.4250 C.3   238  ALA238      0.1597
     85  C         -4.0570  -15.2190   41.8640 C.2   238  ALA238      0.2287
     86  O         -3.2000  -15.2250   42.7720 O.2   238  ALA238     -0.2864
     87  CB        -3.9630  -16.9410   40.0800 C.3   238  ALA238      0.0319
     88  N         -5.8010  -22.2790   40.5410 N.3   243  LYS243     -0.1231
     89  CA        -5.3340  -21.7790   39.2350 C.3   243  LYS243      0.1693
     90  C         -3.8000  -21.7090   39.1430 C.2   243  LYS243      0.2592
     91  O         -3.2390  -22.1210   38.1390 O.2   243  LYS243     -0.2718
     92  CB        -5.9530  -20.4130   38.9310 C.3   243  LYS243      0.0285
     93  CG        -5.5260  -19.8450   37.5930 C.3   243  LYS243      0.0035
     94  CD        -6.4670  -18.7640   37.0870 C.3   243  LYS243      0.0206
     95  CE        -5.9640  -18.1850   35.8020 C.3   243  LYS243      0.1093
     96  NZ        -6.9910  -17.3250   35.2340 N.3   243  LYS243     -0.1314
     97  N         -3.1450  -21.1860   40.1800 N.am  244  SER244     -0.1952
     98  CA        -1.6820  -21.1950   40.2780 C.3   244  SER244      0.1924
     99  C         -1.1310  -22.6190   40.5220 C.2   244  SER244      0.2314
    100  O         -0.0960  -22.9960   39.9270 O.2   244  SER244     -0.2863
    101  CB        -1.2070  -20.2460   41.3830 C.3   244  SER244      0.2116
    102  OG        -1.4070  -18.8940   40.9840 O.3   244  SER244     -0.2180
    103  N         -0.2070  -24.6620   37.6030 N.3   247  TYR247     -0.1241
    104  CA         1.1170  -24.3910   37.0160 C.3   247  TYR247      0.1605
    105  C          2.2910  -25.0860   37.7310 C.2   247  TYR247      0.2264
    106  O          3.3700  -25.0810   37.2230 O.2   247  TYR247     -0.2867
    107  CB         1.3460  -22.8790   36.8370 C.3   247  TYR247      0.0534
    108  CG         0.3750  -22.2500   35.8530 C.ar  247  TYR247     -0.0201
    109  CD1        0.5640  -22.3690   34.4610 C.ar  247  TYR247     -0.0009
    110  CD2       -0.7270  -21.5370   36.2970 C.ar  247  TYR247     -0.0009
    111  CE1       -0.3270  -21.7980   33.5430 C.ar  247  TYR247      0.0417
    112  CE2       -1.6360  -20.9730   35.4040 C.ar  247  TYR247      0.0417
    113  CZ        -1.4460  -21.1030   34.0190 C.ar  247  TYR247      0.1957
    114  OH        -2.3640  -20.5120   33.1560 O.3   247  TYR247     -0.2866
    115  N         -6.5840  -13.1910   36.9840 N.3   328  GLU328     -0.1245
    116  CA        -5.2500  -13.3130   36.5000 C.3   328  GLU328      0.1567
    117  C         -4.6910  -11.8920   36.5740 C.2   328  GLU328      0.2260
    118  O         -5.3390  -10.9190   36.1240 O.2   328  GLU328     -0.2867
    119  CB        -5.3640  -13.8300   35.0720 C.3   328  GLU328      0.0388
    120  CG        -4.0890  -13.9120   34.2550 C.3   328  GLU328      0.1160
    121  CD        -4.1120  -15.0650   33.2770 C.2   328  GLU328      0.3649
    122  OE1       -3.3170  -15.0280   32.3100 O.co2 328  GLU328     -0.2457
    123  OE2       -4.8580  -16.0450   33.5320 O.co2 328  GLU328     -0.2457
@<TRIPOS>BOND
     1    40    41    1
     2    43    42    2
     3    55    54    2
     4    42    41    1
     5    42    52   am
     6    48    46   ar
     7    48    50   ar
     8    46    45   ar
     9    41    44    1
    10     1     2    1
    11    53    52    1
    12    53    54    1
    13    53    56    1
    14    51    50    1
    15    50    49   ar
    16    45    44    1
    17    45    47   ar
    18    57    56    1
    19    57    58    1
    20    59    58    1
    21    49    47   ar
    22     2     5    1
    23     2     3    1
    24     5     6    1
    25     3     4    2
    26    16    15   ar
    27    10    11    1
    28     8     7   ar
    29    71    70    1
    30     6     7    1
    31    15    17   ar
    32    15    14    1
    33     7     9   ar
    34    11    14    1
    35    11    12    1
    36    70    69   ar
    37    70    68   ar
    38    18    12   am
    39    18    19    1
    40    12    13    2
    41    69    67   ar
    42    68    66   ar
    43    25    23   am
    44    20    19    1
    45    20    21    2
    46   122   121   ar
    47    22    19    1
    48    22    23    1
    49    23    24    2
    50    67    65   ar
    51    66    65   ar
    52   114   113    1
    53   121   123   ar
    54   121   120    1
    55   111   113   ar
    56   111   109   ar
    57    65    64    1
    58   113   112   ar
    59   120   119    1
    60   109   108   ar
    61   119   116    1
    62    64    61    1
    63    96    95    1
    64   112   110   ar
    65    95    94    1
    66   108   110   ar
    67   108   107    1
    68    60    61    1
    69   118   117    2
    70    61    62    1
    71   116   117    1
    72   116   115    1
    73   107   104    1
    74   104   103    1
    75   104   105    1
    76    94    93    1
    77   106   105    2
    78    62    72   am
    79    62    63    2
    80    93    92    1
    81    34    35   ar
    82    34    32   ar
    83    72    73    1
    84    91    90    2
    85    75    74    2
    86    35    33   ar
    87    32    31   ar
    88    92    89    1
    89    39    38    2
    90    90    89    1
    91    90    97   am
    92    89    88    1
    93    74    73    1
    94    74    83   am
    95    73    76    1
    96    33    31   ar
    97    78    80   ar
    98    78    77   ar
    99   100    99    2
   100    38    37    1
   101    31    30    1
   102    87    84    1
   103    80    82   ar
   104    97    98    1
   105    83    84    1
   106    98    99    1
   107    98   101    1
   108    76    77    1
   109    84    85    1
   110    77    79   ar
   111   102   101    1
   112    36    37    1
   113    36    28   am
   114    82    81   ar
   115    30    27    1
   116    79    81   ar
   117    27    28    1
   118    27    26    1
   119    85    86    2
   120    28    29    2
