@<TRIPOS>MOLECULE
tmp/5ws1A00.pdb
 137 134 0 0 0
SMALL
GASTEIGER

@<TRIPOS>ATOM
      1  N        -15.9280  -12.6780    9.8430 N.3   103  GLU103     -0.1245
      2  CA       -15.9010  -11.9300    8.6150 C.3   103  GLU103      0.1567
      3  C        -17.1240  -12.2090    7.7240 C.2   103  GLU103      0.2260
      4  O        -17.7400  -11.2710    7.1930 O.2   103  GLU103     -0.2867
      5  CB       -14.6260  -12.2440    7.8370 C.3   103  GLU103      0.0388
      6  CG       -14.5720  -11.4950    6.5110 C.3   103  GLU103      0.1160
      7  CD       -13.2240  -11.5060    5.8290 C.2   103  GLU103      0.3649
      8  OE1      -12.1680  -11.4830    6.5100 O.co2 103  GLU103     -0.2457
      9  OE2      -13.2310  -11.4770    4.5870 O.co2 103  GLU103     -0.2457
     10  N        -20.1880  -10.4600    9.2670 N.3   106  ASP106     -0.1225
     11  CA       -20.0920   -9.0190    8.9800 C.3   106  ASP106      0.1805
     12  C        -20.6840   -8.7150    7.5810 C.2   106  ASP106      0.2597
     13  O        -21.4300   -7.7520    7.4020 O.2   106  ASP106     -0.2718
     14  CB       -18.6380   -8.5000    8.9920 C.3   106  ASP106      0.1424
     15  CG       -18.0050   -8.4380   10.3970 C.2   106  ASP106      0.3668
     16  OD1      -18.6380   -8.8020   11.4460 O.co2 106  ASP106     -0.2456
     17  OD2      -16.8150   -8.0430   10.4160 O.co2 106  ASP106     -0.2456
     18  N        -20.3220   -9.5550    6.6070 N.am  107  ASN107     -0.1974
     19  CA       -20.7380   -9.3610    5.2470 C.3   107  ASN107      0.1688
     20  C        -22.2420   -9.7010    5.0550 C.2   107  ASN107      0.2292
     21  O        -22.9450   -9.0270    4.3110 O.2   107  ASN107     -0.2864
     22  CB       -19.8370  -10.0960    4.2860 C.3   107  ASN107      0.1181
     23  CG       -18.4050   -9.5310    4.2730 C.2   107  ASN107      0.2629
     24  OD1      -18.1590   -8.3600    4.6070 O.2   107  ASN107     -0.2716
     25  ND2      -17.4440  -10.3820    3.9660 N.am  107  ASN107     -0.0877
     26  N        -10.3480    2.7540    3.3710 N.3   202  HIS202     -0.1226
     27  CA       -11.0560    1.5490    3.8710 C.3   202  HIS202      0.1752
     28  C        -11.6280    0.8130    2.6420 C.2   202  HIS202      0.2596
     29  O        -12.4660    1.3810    1.9060 O.2   202  HIS202     -0.2718
     30  CB       -12.1460    1.9440    4.8270 C.3   202  HIS202      0.0759
     31  CG       -12.9450    0.8120    5.3450 C.ar  202  HIS202      0.0818
     32  ND1      -12.6180    0.1230    6.4900 N.ar  202  HIS202     -0.2268
     33  CD2      -14.0380    0.2060    4.8440 C.ar  202  HIS202      0.1154
     34  CE1      -13.4990   -0.8350    6.6870 C.ar  202  HIS202      0.1986
     35  NE2      -14.3720   -0.7940    5.6970 N.ar  202  HIS202     -0.2212
     36  N        -11.1140   -0.3880    2.3950 N.am  203  GLY203     -0.1957
     37  CA       -11.6230   -1.2320    1.3400 C.3   203  GLY203      0.1869
     38  C        -12.7130   -2.1630    1.8740 C.2   203  GLY203      0.2309
     39  O        -12.7010   -2.5770    3.0470 O.2   203  GLY203     -0.2863
     40  N        -12.1100  -12.1150   16.7440 N.3   228  GLY228     -0.1210
     41  CA       -12.2020  -12.2480   15.2940 C.3   228  GLY228      0.1956
     42  C        -11.5220  -11.1200   14.5640 C.2   228  GLY228      0.2612
     43  O        -11.4590  -11.2020   13.3800 O.2   228  GLY228     -0.2717
     44  N        -11.0020  -10.1000   15.2820 N.am  229  TYR229     -0.1962
     45  CA       -10.4760   -8.8660   14.7160 C.3   229  TYR229      0.1771
     46  C         -9.1780   -8.5510   15.4710 C.2   229  TYR229      0.2619
     47  O         -9.1400   -8.5750   16.7180 O.2   229  TYR229     -0.2715
     48  CB       -11.5140   -7.7490   14.9190 C.3   229  TYR229      0.0574
     49  CG       -12.9430   -8.1910   14.5580 C.ar  229  TYR229     -0.0198
     50  CD1      -13.7880   -8.7380   15.5050 C.ar  229  TYR229     -0.0009
     51  CD2      -13.4340   -8.0360   13.2550 C.ar  229  TYR229     -0.0009
     52  CE1      -15.0770   -9.1710   15.1780 C.ar  229  TYR229      0.0417
     53  CE2      -14.7160   -8.4680   12.9020 C.ar  229  TYR229      0.0417
     54  CZ       -15.5500   -9.0040   13.8730 C.ar  229  TYR229      0.1957
     55  OH       -16.8230   -9.3960   13.5070 O.3   229  TYR229     -0.2866
     56  N         -8.1170   -8.2650   14.7360 N.am  230  MET230     -0.1977
     57  CA        -6.8010   -8.0810   15.3570 C.3   230  MET230      0.1605
     58  C         -6.6700   -7.0670   16.5340 C.2   230  MET230      0.2287
     59  O         -5.8640   -7.2550   17.4510 O.2   230  MET230     -0.2864
     60  CB        -5.7930   -7.7100   14.2770 C.3   230  MET230      0.0413
     61  CG        -4.3550   -7.9190   14.6940 C.3   230  MET230      0.0598
     62  SD        -3.2150   -7.4700   13.3800 S.3   230  MET230     -0.1393
     63  CE        -1.6280   -7.6740   14.2170 C.3   230  MET230      0.0692
     64  N        -11.6440   -0.1400   10.9400 N.3   236  TYR236     -0.1227
     65  CA       -10.2480   -0.2640   10.5350 C.3   236  TYR236      0.1736
     66  C         -9.8790    0.5610    9.3010 C.2   236  TYR236      0.2595
     67  O        -10.6420    0.5840    8.3600 O.2   236  TYR236     -0.2718
     68  CB        -9.9340   -1.7050   10.2040 C.3   236  TYR236      0.0548
     69  CG        -9.7720   -2.5590   11.4340 C.ar  236  TYR236     -0.0200
     70  CD1      -10.8850   -2.8490   12.2180 C.ar  236  TYR236     -0.0009
     71  CD2       -8.5310   -3.1180   11.7870 C.ar  236  TYR236     -0.0009
     72  CE1      -10.7910   -3.6630   13.3170 C.ar  236  TYR236      0.0417
     73  CE2       -8.4200   -3.9010   12.9260 C.ar  236  TYR236      0.0417
     74  CZ        -9.5340   -4.1600   13.7110 C.ar  236  TYR236      0.1957
     75  OH        -9.5070   -4.9630   14.8870 O.3   236  TYR236     -0.2866
     76  N         -8.6680    1.1370    9.2730 N.am  237  PHE237     -0.1962
     77  CA        -8.2310    1.9430    8.1570 C.3   237  PHE237      0.1771
     78  C         -6.7880    1.7150    7.8560 C.2   237  PHE237      0.2619
     79  O         -5.9800    1.3070    8.7350 O.2   237  PHE237     -0.2715
     80  CB        -8.4630    3.4590    8.3830 C.3   237  PHE237      0.0574
     81  CG        -9.9070    3.8290    8.6020 C.ar  237  PHE237     -0.0200
     82  CD1      -10.4150    3.8910    9.8920 C.ar  237  PHE237     -0.0042
     83  CD2      -10.7050    4.2320    7.5250 C.ar  237  PHE237     -0.0042
     84  CE1      -11.7280    4.2430   10.1120 C.ar  237  PHE237     -0.0003
     85  CE2      -12.0550    4.5570    7.7450 C.ar  237  PHE237     -0.0003
     86  CZ       -12.5480    4.5430    9.0050 C.ar  237  PHE237     -0.0000
     87  N         -6.4040    2.0240    6.6210 N.am  238  ALA238     -0.1977
     88  CA        -4.9750    1.9660    6.2180 C.3   238  ALA238      0.1597
     89  C         -4.4890    3.2820    5.5860 C.2   238  ALA238      0.2287
     90  O         -5.2750    4.1140    5.1630 O.2   238  ALA238     -0.2864
     91  CB        -4.7330    0.7740    5.2750 C.3   238  ALA238      0.0319
     92  N         -3.0960   -2.0980    0.7980 N.3   243  LYS243     -0.1231
     93  CA        -3.4820   -2.8480    2.0360 C.3   243  LYS243      0.1693
     94  C         -5.0220   -2.8130    2.1550 C.2   243  LYS243      0.2592
     95  O         -5.6030   -3.8170    2.4970 O.2   243  LYS243     -0.2718
     96  CB        -2.8660   -2.2580    3.2770 C.3   243  LYS243      0.0285
     97  CG        -3.1860   -3.0200    4.5600 C.3   243  LYS243      0.0035
     98  CD        -2.3100   -2.6020    5.7340 C.3   243  LYS243      0.0206
     99  CE        -2.6680   -3.4690    6.9420 C.3   243  LYS243      0.1093
    100  NZ        -1.9160   -3.1600    8.1510 N.3   243  LYS243     -0.1314
    101  N         -5.6340   -1.6360    1.9730 N.am  244  SER244     -0.1952
    102  CA        -7.1420   -1.5070    1.9390 C.3   244  SER244      0.1924
    103  C         -7.7560   -2.1690    0.6840 C.2   244  SER244      0.2314
    104  O         -8.7530   -2.8490    0.8020 O.2   244  SER244     -0.2863
    105  CB        -7.5980   -0.0480    2.0030 C.3   244  SER244      0.2116
    106  OG        -7.4730    0.3620    3.3380 O.3   244  SER244     -0.2180
    107  N         -8.8270   -5.8340    0.7130 N.3   247  TYR247     -0.1241
    108  CA       -10.1120   -6.1790    1.3050 C.3   247  TYR247      0.1605
    109  C        -11.3130   -5.9970    0.3920 C.2   247  TYR247      0.2264
    110  O        -12.4210   -6.3750    0.7900 O.2   247  TYR247     -0.2867
    111  CB       -10.3180   -5.3950    2.6140 C.3   247  TYR247      0.0534
    112  CG        -9.3540   -5.7980    3.6520 C.ar  247  TYR247     -0.0201
    113  CD1       -9.5220   -7.0320    4.3030 C.ar  247  TYR247     -0.0009
    114  CD2       -8.2620   -5.0300    3.9820 C.ar  247  TYR247     -0.0009
    115  CE1       -8.6360   -7.4580    5.2560 C.ar  247  TYR247      0.0417
    116  CE2       -7.3500   -5.4810    4.9230 C.ar  247  TYR247      0.0417
    117  CZ        -7.5710   -6.7050    5.5660 C.ar  247  TYR247      0.1957
    118  OH        -6.7270   -7.2080    6.5240 O.3   247  TYR247     -0.2866
    119  N        -11.5300   -7.7850   -2.2430 N.3   249  HIS249     -0.1241
    120  CA       -11.7050   -9.1990   -2.6310 C.3   249  HIS249      0.1621
    121  C        -12.1060   -9.3040   -4.0850 C.2   249  HIS249      0.2264
    122  O        -12.9440  -10.1110   -4.4990 O.2   249  HIS249     -0.2867
    123  CB       -12.6180   -9.9740   -1.6240 C.3   249  HIS249      0.0745
    124  CG       -11.9370  -10.2370   -0.2950 C.ar  249  HIS249      0.0817
    125  ND1      -10.8790  -11.1120   -0.1580 N.ar  249  HIS249     -0.2268
    126  CD2      -12.1190   -9.6890    0.9340 C.ar  249  HIS249      0.1154
    127  CE1      -10.4600  -11.1170    1.0970 C.ar  249  HIS249      0.1986
    128  NE2      -11.1960  -10.2620    1.7800 N.ar  249  HIS249     -0.2212
    129  N         -1.9340    0.3610   10.4790 N.3   328  GLU328     -0.1245
    130  CA        -3.3890    0.1680   10.5300 C.3   328  GLU328      0.1567
    131  C         -3.9120    1.1720   11.5680 C.2   328  GLU328      0.2260
    132  O         -3.1780    1.3950   12.5170 O.2   328  GLU328     -0.2867
    133  CB        -3.5390   -1.1920   11.2340 C.3   328  GLU328      0.0388
    134  CG        -4.4520   -1.9830   10.5670 C.3   328  GLU328      0.1160
    135  CD        -4.3110   -3.4150   10.9420 C.2   328  GLU328      0.3649
    136  OE1       -5.1290   -3.8820   11.7880 O.co2 328  GLU328     -0.2457
    137  OE2       -3.5560   -4.0040   10.1610 O.co2 328  GLU328     -0.2457
@<TRIPOS>BOND
     1   122   121    2
     2   121   120    1
     3   120   119    1
     4   120   123    1
     5   123   124    1
     6   124   125   ar
     7   124   126   ar
     8   125   127   ar
     9   109   110    2
    10   109   108    1
    11   103   104    2
    12   103   102    1
    13   107   108    1
    14    92    93    1
    15   126   128   ar
    16   127   128   ar
    17   108   111    1
    18    37    38    1
    19    37    36    1
    20    38    39    2
    21    29    28    2
    22   102   101    1
    23   102   105    1
    24   101    94   am
    25   105   106    1
    26    93    94    1
    27    93    96    1
    28    94    95    2
    29    36    28   am
    30   111   112    1
    31    28    27    1
    32    96    97    1
    33    26    27    1
    34   112   114   ar
    35   112   113   ar
    36    27    30    1
    37    25    23   am
    38   114   116   ar
    39    23    22    1
    40    23    24    2
    41    22    19    1
    42   113   115   ar
    43    21    20    2
    44    97    98    1
    45     9     7   ar
    46    30    31    1
    47    33    31   ar
    48    33    35   ar
    49   116   117   ar
    50    20    19    1
    51    90    89    2
    52    19    18    1
    53   115   117   ar
    54    91    88    1
    55    31    32   ar
    56   117   118    1
    57    89    88    1
    58    35    34   ar
    59    98    99    1
    60     7     8   ar
    61     7     6    1
    62    88    87    1
    63    32    34   ar
    64     6     5    1
    65    18    12   am
    66    87    78   am
    67    99   100    1
    68     4     3    2
    69    13    12    2
    70    83    85   ar
    71    83    81   ar
    72    12    11    1
    73     3     2    1
    74    85    86   ar
    75     5     2    1
    76    78    77    1
    77    78    79    2
    78    77    80    1
    79    77    76    1
    80    67    66    2
    81    80    81    1
    82    81    82   ar
    83     2     1    1
    84    11    14    1
    85    11    10    1
    86    14    15    1
    87    86    84   ar
    88    76    66   am
    89    66    65    1
    90    82    84   ar
    91   137   135   ar
    92    68    65    1
    93    68    69    1
    94    15    17   ar
    95    15    16   ar
    96   129   130    1
    97   130   133    1
    98   130   131    1
    99    65    64    1
   100   134   135    1
   101   134   133    1
   102   135   136   ar
   103    69    71   ar
   104    69    70   ar
   105   131   132    2
   106    71    73   ar
   107    70    72   ar
   108    53    51   ar
   109    53    54   ar
   110    73    74   ar
   111    51    49   ar
   112    72    74   ar
   113    62    63    1
   114    62    61    1
   115    43    42    2
   116    55    54    1
   117    74    75    1
   118    54    52   ar
   119    60    61    1
   120    60    57    1
   121    49    48    1
   122    49    50   ar
   123    42    44   am
   124    42    41    1
   125    45    48    1
   126    45    44    1
   127    45    46    1
   128    56    57    1
   129    56    46   am
   130    52    50   ar
   131    41    40    1
   132    57    58    1
   133    46    47    2
   134    58    59    2
