@<TRIPOS>MOLECULE
tmp/5ws3A00.pdb
 219 209 0 0 0
SMALL
GASTEIGER

@<TRIPOS>ATOM
      1  N         52.9660   43.7500  -50.4570 N.3    73  CYS73      -0.1235
      2  CA        51.7400   43.6500  -51.2440 C.3    73  CYS73       0.1677
      3  C         51.0650   44.9830  -51.5030 C.2    73  CYS73       0.2270
      4  O         50.5080   45.1930  -52.5860 O.2    73  CYS73      -0.2867
      5  CB        50.7340   42.7250  -50.5530 C.3    73  CYS73       0.0956
      6  SG        51.2470   41.0490  -50.4400 S.3    73  CYS73      -0.0801
      7  N         52.3500   46.9790  -54.7000 N.3    76  ALA76      -0.1231
      8  CA        51.9030   46.3270  -55.9260 C.3    76  ALA76       0.1694
      9  C         50.4220   46.5690  -56.1680 C.2    76  ALA76       0.2592
     10  O         50.0030   46.8340  -57.3010 O.2    76  ALA76      -0.2718
     11  CB        52.1870   44.8280  -55.8530 C.3    76  ALA76       0.0304
     12  N         49.6150   46.4680  -55.1140 N.am   77  THR77      -0.1953
     13  CA        48.1790   46.6650  -55.2560 C.3    77  THR77       0.1897
     14  C         47.8610   48.1000  -55.6650 C.2    77  THR77       0.2313
     15  O         46.9870   48.3300  -56.5090 O.2    77  THR77      -0.2863
     16  CB        47.4890   46.3040  -53.9450 C.3    77  THR77       0.1794
     17  OG1       47.7240   44.9210  -53.6600 O.3    77  THR77      -0.2208
     18  CG2       45.9970   46.5740  -54.0250 C.3    77  THR77       0.0378
     19  N         48.8070   48.4280  -59.4480 N.3    80  VAL80      -0.1245
     20  CA        47.8360   47.7600  -60.3120 C.3    80  VAL80       0.1561
     21  C         46.5180   48.5170  -60.3270 C.2    80  VAL80       0.2260
     22  O         45.8680   48.6360  -61.3740 O.2    80  VAL80      -0.2867
     23  CB        47.6290   46.3040  -59.8590 C.3    80  VAL80       0.0252
     24  CG1       46.5260   45.6360  -60.6830 C.3    80  VAL80       0.0019
     25  CG2       48.9270   45.5340  -59.9640 C.3    80  VAL80       0.0019
     26  N         49.8610   44.6770  -65.0080 N.3    86  TRP86      -0.1241
     27  CA        50.8170   43.9790  -64.1610 C.3    86  TRP86       0.1605
     28  C         52.1970   44.0900  -64.7880 C.2    86  TRP86       0.2264
     29  O         52.4440   43.5220  -65.8570 O.2    86  TRP86      -0.2867
     30  CB        50.4260   42.5100  -63.9840 C.3    86  TRP86       0.0550
     31  CG        51.2970   41.7660  -63.0230 C.ar   86  TRP86       0.0003
     32  CD1       52.3400   40.9440  -63.3260 C.ar   86  TRP86       0.0946
     33  CD2       51.2070   41.7920  -61.5910 C.ar   86  TRP86       0.0152
     34  NE1       52.9000   40.4450  -62.1750 N.ar   86  TRP86      -0.2442
     35  CE2       52.2300   40.9550  -61.0950 C.ar   86  TRP86       0.0810
     36  CE3       50.3540   42.4350  -60.6820 C.ar   86  TRP86       0.0012
     37  CZ2       52.4270   40.7460  -59.7290 C.ar   86  TRP86       0.0191
     38  CZ3       50.5470   42.2250  -59.3290 C.ar   86  TRP86       0.0001
     39  CH2       51.5770   41.3890  -58.8640 C.ar   86  TRP86       0.0015
     40  N         52.6390   37.4810  -55.0040 N.3    96  ILE96      -0.1231
     41  CA        52.0010   38.5880  -54.2840 C.3    96  ILE96       0.1678
     42  C         50.5650   38.2570  -53.8820 C.2    96  ILE96       0.2434
     43  O         50.2010   38.4990  -52.7210 O.2    96  ILE96      -0.2733
     44  CB        52.1280   39.8850  -55.0830 C.3    96  ILE96       0.0265
     45  CG1       53.6030   40.2980  -55.1330 C.3    96  ILE96       0.0019
     46  CG2       51.2460   40.9720  -54.4730 C.3    96  ILE96       0.0020
     47  CD1       53.8670   41.6020  -55.8630 C.3    96  ILE96       0.0001
     48  N         49.7160   37.7100  -54.7580 N.am   97  PRO97      -0.2729
     49  CA        48.3920   37.2720  -54.2850 C.3    97  PRO97       0.1401
     50  C         48.4690   36.1690  -53.2450 C.2    97  PRO97       0.2269
     51  O         47.6070   36.0860  -52.3600 O.2    97  PRO97      -0.2865
     52  CB        47.6980   36.8130  -55.5780 C.3    97  PRO97       0.0296
     53  CG        48.3750   37.5970  -56.6460 C.3    97  PRO97       0.0237
     54  CD        49.8120   37.6250  -56.2240 C.3    97  PRO97       0.0939
     55  N         49.2600   37.9090  -49.9970 N.3   100  GLN100     -0.1231
     56  CA        48.0930   38.6590  -49.5400 C.3   100  GLN100      0.1698
     57  C         47.0650   37.7250  -48.9150 C.2   100  GLN100      0.2592
     58  O         46.5810   37.9680  -47.8020 O.2   100  GLN100     -0.2718
     59  CB        47.4780   39.4490  -50.6970 C.3   100  GLN100      0.0381
     60  CG        46.2610   40.2960  -50.3270 C.3   100  GLN100      0.0905
     61  CD        46.5960   41.4760  -49.3920 C.2   100  GLN100      0.2608
     62  OE1       47.6040   42.1670  -49.5620 O.2   100  GLN100     -0.2717
     63  NE2       45.7400   41.6960  -48.3950 N.am  100  GLN100     -0.0878
     64  N         46.7210   36.6350  -49.6120 N.am  101  THR101     -0.1953
     65  CA        45.6830   35.7600  -49.0840 C.3   101  THR101      0.1897
     66  C         46.1590   35.0240  -47.8400 C.2   101  THR101      0.2313
     67  O         45.3740   34.8070  -46.9090 O.2   101  THR101     -0.2863
     68  CB        45.2220   34.7880  -50.1620 C.3   101  THR101      0.1794
     69  OG1       46.3620   34.1040  -50.7060 O.3   101  THR101     -0.2208
     70  CG2       44.5270   35.5760  -51.2590 C.3   101  THR101      0.0378
     71  N         45.7070   37.3710  -45.0120 N.3   104  VAL104     -0.1245
     72  CA        44.3050   37.4400  -44.6130 C.3   104  VAL104      0.1561
     73  C         43.9510   36.2440  -43.7380 C.2   104  VAL104      0.2260
     74  O         43.3100   36.3790  -42.6900 O.2   104  VAL104     -0.2867
     75  CB        43.4000   37.5180  -45.8520 C.3   104  VAL104      0.0252
     76  CG1       41.9390   37.3670  -45.4480 C.3   104  VAL104      0.0019
     77  CG2       43.6240   38.8540  -46.5660 C.3   104  VAL104      0.0019
     78  N         45.1430   29.3690  -54.5840 N.3   153  GLN153     -0.1245
     79  CA        45.1690   30.7610  -55.0070 C.3   153  GLN153      0.1566
     80  C         46.4040   31.0470  -55.8510 C.2   153  GLN153      0.2260
     81  O         46.3120   31.6530  -56.9250 O.2   153  GLN153     -0.2867
     82  CB        45.1210   31.6840  -53.7870 C.3   153  GLN153      0.0367
     83  CG        44.9550   33.1550  -54.1620 C.3   153  GLN153      0.0905
     84  CD        43.6170   33.4220  -54.8460 C.2   153  GLN153      0.2608
     85  OE1       42.5610   32.9820  -54.3820 O.2   153  GLN153     -0.2717
     86  NE2       43.6630   34.1110  -55.9680 N.am  153  GLN153     -0.0878
     87  N         46.7550   31.8850  -60.3040 N.3   157  MET157     -0.1245
     88  CA        47.1650   33.2050  -60.7740 C.3   157  MET157      0.1570
     89  C         48.0370   33.0710  -62.0170 C.2   157  MET157      0.2261
     90  O         49.0160   32.3190  -62.0190 O.2   157  MET157     -0.2867
     91  CB        47.9130   33.9650  -59.6780 C.3   157  MET157      0.0387
     92  CG        47.1040   34.1620  -58.4030 C.3   157  MET157      0.0595
     93  SD        45.4730   34.8510  -58.7310 S.3   157  MET157     -0.1393
     94  CE        45.9330   36.4350  -59.3790 C.3   157  MET157      0.0692
     95  N         47.4560   40.3730  -64.4050 N.3   176  CYS176     -0.1221
     96  CA        47.6440   39.2610  -63.4870 C.3   176  CYS176      0.1808
     97  C         46.2790   38.9120  -62.9090 C.2   176  CYS176      0.2601
     98  O         45.6940   39.7080  -62.1710 O.2   176  CYS176     -0.2717
     99  CB        48.6350   39.6230  -62.3840 C.3   176  CYS176      0.0970
    100  SG        48.7770   38.3570  -61.0760 S.3   176  CYS176     -0.0800
    101  N         45.7650   37.7310  -63.2340 N.am  177  ASP177     -0.1959
    102  CA        44.4230   37.4000  -62.7820 C.3   177  ASP177      0.1840
    103  C         44.2860   35.8930  -62.6340 C.2   177  ASP177      0.2621
    104  O         45.1420   35.1200  -63.0700 O.2   177  ASP177     -0.2715
    105  CB        43.3690   37.9550  -63.7410 C.3   177  ASP177      0.1450
    106  CG        42.0180   38.0820  -63.0940 C.2   177  ASP177      0.3671
    107  OD1       41.8930   37.7040  -61.9200 O.co2 177  ASP177     -0.2456
    108  OD2       41.0790   38.5610  -63.7500 O.co2 177  ASP177     -0.2456
    109  N         43.1870   35.4790  -62.0120 N.am  178  GLU178     -0.1977
    110  CA        42.9070   34.0600  -61.8490 C.3   178  GLU178      0.1602
    111  C         42.5150   33.4350  -63.1780 C.2   178  GLU178      0.2287
    112  O         41.6870   33.9820  -63.9100 O.2   178  GLU178     -0.2864
    113  CB        41.7840   33.8580  -60.8400 C.3   178  GLU178      0.0415
    114  CG        41.9820   34.5630  -59.5300 C.3   178  GLU178      0.1163
    115  CD        40.7770   34.4050  -58.6360 C.2   178  GLU178      0.3649
    116  OE1       40.8360   34.8470  -57.4620 O.co2 178  GLU178     -0.2457
    117  OE2       39.7700   33.8320  -59.1120 O.co2 178  GLU178     -0.2457
    118  N         35.3360   30.3950  -54.7020 N.3   190  HIS190     -0.1241
    119  CA        35.1540   31.6710  -54.0280 C.3   190  HIS190      0.1621
    120  C         34.0260   31.6260  -53.0100 C.2   190  HIS190      0.2264
    121  O         34.0670   32.3820  -52.0340 O.2   190  HIS190     -0.2867
    122  CB        34.9530   32.7810  -55.0560 C.3   190  HIS190      0.0745
    123  CG        36.2160   33.1510  -55.7720 C.ar  190  HIS190      0.0817
    124  ND1       37.2410   33.8410  -55.1600 N.ar  190  HIS190     -0.2268
    125  CD2       36.6460   32.8720  -57.0270 C.ar  190  HIS190      0.1154
    126  CE1       38.2250   34.0180  -56.0260 C.ar  190  HIS190      0.1986
    127  NE2       37.8910   33.4340  -57.1630 N.ar  190  HIS190     -0.2212
    128  N         36.1190   30.3730  -50.3550 N.3   193  PHE193     -0.1241
    129  CA        37.0220   31.4360  -49.9300 C.3   193  PHE193      0.1605
    130  C         36.3140   32.4050  -48.9930 C.2   193  PHE193      0.2264
    131  O         36.8760   32.8270  -47.9760 O.2   193  PHE193     -0.2867
    132  CB        37.5750   32.1790  -51.1500 C.3   193  PHE193      0.0534
    133  CG        38.6900   33.1150  -50.8140 C.ar  193  PHE193     -0.0203
    134  CD1       38.4220   34.3660  -50.2850 C.ar  193  PHE193     -0.0042
    135  CD2       40.0010   32.7280  -50.9760 C.ar  193  PHE193     -0.0042
    136  CE1       39.4400   35.2170  -49.9430 C.ar  193  PHE193     -0.0003
    137  CE2       41.0300   33.5870  -50.6550 C.ar  193  PHE193     -0.0003
    138  CZ        40.7460   34.8340  -50.1330 C.ar  193  PHE193     -0.0000
    139  N         37.5040   32.6410  -45.1250 N.3   197  THR197     -0.1218
    140  CA        38.2480   33.8440  -44.7590 C.3   197  THR197      0.1862
    141  C         37.3950   34.8790  -44.0360 C.2   197  THR197      0.2287
    142  O         37.9440   35.7460  -43.3550 O.2   197  THR197     -0.2866
    143  CB        38.8940   34.4970  -45.9840 C.3   197  THR197      0.1770
    144  OG1       37.8820   35.0060  -46.8580 O.3   197  THR197     -0.2211
    145  CG2       39.7660   33.5070  -46.7230 C.3   197  THR197      0.0375
    146  N         36.9100   44.3980  -43.9390 N.3   440  TYR440     -0.1241
    147  CA        36.9400   43.3220  -44.9180 C.3   440  TYR440      0.1605
    148  C         35.5870   42.9920  -45.5160 C.2   440  TYR440      0.2264
    149  O         35.5330   42.1440  -46.4180 O.2   440  TYR440     -0.2867
    150  CB        37.5160   42.0530  -44.3090 C.3   440  TYR440      0.0534
    151  CG        39.0150   42.0570  -44.2240 C.ar  440  TYR440     -0.0201
    152  CD1       39.6630   42.6270  -43.1440 C.ar  440  TYR440     -0.0009
    153  CD2       39.7870   41.4820  -45.2220 C.ar  440  TYR440     -0.0009
    154  CE1       41.0360   42.6290  -43.0600 C.ar  440  TYR440      0.0417
    155  CE2       41.1650   41.4800  -45.1410 C.ar  440  TYR440      0.0417
    156  CZ        41.7780   42.0490  -44.0550 C.ar  440  TYR440      0.1957
    157  OH        43.1380   42.0450  -43.9550 O.3   440  TYR440     -0.2866
    158  N         35.4020   44.1240  -49.7250 N.3   443  ILE443     -0.1231
    159  CA        36.1310   43.2800  -50.6630 C.3   443  ILE443      0.1692
    160  C         35.5700   41.8540  -50.6590 C.2   443  ILE443      0.2592
    161  O         35.4850   41.2170  -51.7100 O.2   443  ILE443     -0.2718
    162  CB        37.6370   43.3210  -50.3470 C.3   443  ILE443      0.0266
    163  CG1       38.4490   42.7000  -51.4920 C.3   443  ILE443      0.0019
    164  CG2       37.9190   42.6510  -48.9840 C.3   443  ILE443      0.0020
    165  CD1       39.9470   42.7950  -51.3100 C.3   443  ILE443      0.0001
    166  N         35.1510   41.3350  -49.4940 N.am  444  SER444     -0.1952
    167  CA        34.6050   39.9750  -49.4500 C.3   444  SER444      0.1924
    168  C         33.3210   39.8770  -50.2580 C.2   444  SER444      0.2314
    169  O         33.1400   38.9500  -51.0700 O.2   444  SER444     -0.2863
    170  CB        34.3400   39.5510  -48.0070 C.3   444  SER444      0.2116
    171  OG        35.5250   39.5600  -47.2450 O.3   444  SER444     -0.2180
    172  N         34.0670   40.2960  -53.9990 N.3   447  ASN447     -0.1240
    173  CA        34.6430   39.0920  -54.5770 C.3   447  ASN447      0.1653
    174  C         33.5720   38.0460  -54.8180 C.2   447  ASN447      0.2266
    175  O         33.5920   37.3620  -55.8430 O.2   447  ASN447     -0.2867
    176  CB        35.7440   38.5290  -53.6850 C.3   447  ASN447      0.1155
    177  CG        36.3390   37.2550  -54.2500 C.2   447  ASN447      0.2627
    178  OD1       36.8870   37.2550  -55.3510 O.2   447  ASN447     -0.2716
    179  ND2       36.2420   36.1670  -53.5000 N.am  447  ASN447     -0.0877
    180  N         36.1610   48.6650  -56.1720 N.3   469  PHE469     -0.1241
    181  CA        37.2050   47.6790  -55.9150 C.3   469  PHE469      0.1605
    182  C         38.4630   48.3290  -55.3470 C.2   469  PHE469      0.2264
    183  O         39.0540   47.8110  -54.3890 O.2   469  PHE469     -0.2867
    184  CB        37.5150   46.8910  -57.1890 C.3   469  PHE469      0.0534
    185  CG        36.6400   45.6800  -57.3720 C.ar  469  PHE469     -0.0203
    186  CD1       35.3970   45.7920  -57.9700 C.ar  469  PHE469     -0.0042
    187  CD2       37.0480   44.4350  -56.9240 C.ar  469  PHE469     -0.0042
    188  CE1       34.5890   44.6780  -58.1420 C.ar  469  PHE469     -0.0003
    189  CE2       36.2440   43.3250  -57.0890 C.ar  469  PHE469     -0.0003
    190  CZ        35.0140   43.4460  -57.6980 C.ar  469  PHE469     -0.0000
    191  N         40.1320   47.5640  -51.6510 N.3   473  HIS473     -0.1241
    192  CA        41.5490   47.2360  -51.4520 C.3   473  HIS473      0.1621
    193  C         42.1800   48.1480  -50.4040 C.2   473  HIS473      0.2264
    194  O         42.8210   47.6810  -49.4360 O.2   473  HIS473     -0.2867
    195  CB        42.3100   47.3550  -52.7770 C.3   473  HIS473      0.0745
    196  CG        41.7790   46.4730  -53.8600 C.ar  473  HIS473      0.0817
    197  ND1       42.0640   46.6690  -55.1930 N.ar  473  HIS473     -0.2268
    198  CD2       40.9920   45.3730  -53.8000 C.ar  473  HIS473      0.1154
    199  CE1       41.4700   45.7290  -55.9100 C.ar  473  HIS473      0.1986
    200  NE2       40.8120   44.9330  -55.0870 N.ar  473  HIS473     -0.2212
    201  N         40.9860   47.4150  -46.8690 N.3   476  VAL476     -0.1231
    202  CA        41.7160   46.2770  -46.3070 C.3   476  VAL476      0.1692
    203  C         43.0540   46.7300  -45.7370 C.2   476  VAL476      0.2592
    204  O         43.4260   46.3650  -44.6170 O.2   476  VAL476     -0.2718
    205  CB        41.9010   45.1750  -47.3620 C.3   476  VAL476      0.0266
    206  CG1       42.8840   44.1240  -46.8650 C.3   476  VAL476      0.0020
    207  CG2       40.5730   44.5440  -47.6940 C.3   476  VAL476      0.0020
    208  N         43.7990   47.5340  -46.4920 N.am  477  TYR477     -0.1976
    209  CA        45.1100   47.9420  -45.9770 C.3   477  TYR477      0.1639
    210  C         44.9930   48.9220  -44.8140 C.2   477  TYR477      0.2290
    211  O         45.8570   48.9410  -43.9300 O.2   477  TYR477     -0.2864
    212  CB        45.9650   48.5450  -47.0920 C.3   477  TYR477      0.0560
    213  CG        46.4130   47.4980  -48.0750 C.ar  477  TYR477     -0.0198
    214  CD1       47.0560   46.3400  -47.6480 C.ar  477  TYR477     -0.0009
    215  CD2       46.1670   47.6450  -49.4270 C.ar  477  TYR477     -0.0009
    216  CE1       47.4580   45.3710  -48.5550 C.ar  477  TYR477      0.0417
    217  CE2       46.5570   46.6850  -50.3280 C.ar  477  TYR477      0.0417
    218  CZ        47.1960   45.5520  -49.8950 C.ar  477  TYR477      0.1957
    219  OH        47.5690   44.6080  -50.8120 O.3   477  TYR477     -0.2866
@<TRIPOS>BOND
     1    29    28    2
     2    26    27    1
     3    28    27    1
     4    95    96    1
     5    27    30    1
     6    30    31    1
     7   112   111    2
     8   108   106   ar
     9   105   106    1
    10   105   102    1
    11    96    97    1
    12    96    99    1
    13    32    31   ar
    14    32    34   ar
    15   101    97   am
    16   101   102    1
    17   111   110    1
    18   106   107   ar
    19   104   103    2
    20    31    33   ar
    21    97    98    2
    22   102   103    1
    23   103   109   am
    24    99   100    1
    25    34    35   ar
    26    90    89    2
    27    89    88    1
    28   109   110    1
    29   110   113    1
    30    33    35   ar
    31    33    36   ar
    32    22    21    2
    33    35    37   ar
    34   113   114    1
    35    88    87    1
    36    88    91    1
    37    24    23    1
    38    36    38   ar
    39    21    20    1
    40    20    23    1
    41    20    19    1
    42    25    23    1
    43    37    39   ar
    44    91    92    1
    45   114   115    1
    46    94    93    1
    47    38    39   ar
    48   117   115   ar
    49    93    92    1
    50   115   116   ar
    51   188   186   ar
    52   188   190   ar
    53   186   185   ar
    54   190   189   ar
    55   185   184    1
    56   185   187   ar
    57    10     9    2
    58   184   181    1
    59   127   125   ar
    60   127   126   ar
    61   189   187   ar
    62   125   123   ar
    63    81    80    2
    64    53    54    1
    65    53    52    1
    66    15    14    2
    67    54    48    1
    68   180   181    1
    69     9     8    1
    70     9    12   am
    71   126   124   ar
    72    86    84   am
    73     8    11    1
    74     8     7    1
    75   181   182    1
    76   199   197   ar
    77   199   200   ar
    78    47    45    1
    79    80    79    1
    80   175   174    2
    81   123   124   ar
    82   123   122    1
    83    14    13    1
    84    52    49    1
    85   178   177    2
    86   182   183    2
    87    13    12    1
    88    13    16    1
    89   197   196   ar
    90    45    44    1
    91   200   198   ar
    92    44    46    1
    93    44    41    1
    94   122   119    1
    95    79    78    1
    96    79    82    1
    97    40    41    1
    98    84    85    2
    99    84    83    1
   100   174   173    1
   101    48    49    1
   102    48    42   am
   103   118   119    1
   104   173   172    1
   105   173   176    1
   106    49    50    1
   107    41    42    1
   108   177   176    1
   109   177   179   am
   110    83    82    1
   111   119   120    1
   112    18    16    1
   113    16    17    1
   114    42    43    2
   115   196   198   ar
   116   196   195    1
   117    50    51    2
   118   120   121    2
   119   195   192    1
   120     4     3    2
   121   161   160    2
   122   191   192    1
   123     3     2    1
   124   163   165    1
   125   163   162    1
   126   192   193    1
   127    70    68    1
   128     2     5    1
   129     2     1    1
   130   132   133    1
   131   132   129    1
   132   169   168    2
   133   135   133   ar
   134   135   137   ar
   135   133   134   ar
   136   219   218    1
   137    69    68    1
   138    59    60    1
   139    59    56    1
   140   159   160    1
   141   159   162    1
   142   159   158    1
   143   160   166   am
   144   137   138   ar
   145     5     6    1
   146   193   194    2
   147   128   129    1
   148   162   164    1
   149   217   218   ar
   150   217   215   ar
   151    60    61    1
   152   134   136   ar
   153   168   167    1
   154    68    65    1
   155   138   136   ar
   156    55    56    1
   157   129   130    1
   158   218   216   ar
   159    64    65    1
   160    64    57   am
   161    62    61    2
   162    56    57    1
   163   166   167    1
   164   167   170    1
   165   215   213   ar
   166    61    63   am
   167    65    66    1
   168   130   131    2
   169    57    58    2
   170   216   214   ar
   171   213   214   ar
   172   213   212    1
   173   170   171    1
   174    66    67    2
   175   207   205    1
   176   205   206    1
   177   205   202    1
   178   212   209    1
   179   201   202    1
   180   144   143    1
   181   145   143    1
   182    77    75    1
   183   208   209    1
   184   208   203   am
   185   149   148    2
   186   202   203    1
   187   143   140    1
   188   209   210    1
   189    75    76    1
   190    75    72    1
   191   203   204    2
   192   148   147    1
   193   153   155   ar
   194   153   151   ar
   195   155   156   ar
   196   139   140    1
   197    71    72    1
   198   147   150    1
   199   147   146    1
   200   210   211    2
   201   140   141    1
   202    72    73    1
   203   150   151    1
   204   151   152   ar
   205   156   157    1
   206   156   154   ar
   207   141   142    2
   208    73    74    2
   209   152   154   ar
