@<TRIPOS>MOLECULE
tmp/5ws3A04.pdb
 111 109 0 0 0
SMALL
GASTEIGER

@<TRIPOS>ATOM
      1  N         40.7710   60.0070  -62.4260 N.3    18  GLU18      -0.1231
      2  CA        40.5600   61.3170  -61.8200 C.3    18  GLU18       0.1699
      3  C         40.7650   61.2890  -60.3110 C.2    18  GLU18       0.2592
      4  O         41.1020   62.3190  -59.7150 O.2    18  GLU18      -0.2718
      5  CB        39.1590   61.8210  -62.1510 C.3    18  GLU18       0.0402
      6  CG        38.0430   60.9480  -61.6030 C.3    18  GLU18       0.1161
      7  CD        36.6680   61.4440  -62.0030 C.2    18  GLU18       0.3649
      8  OE1       36.5710   62.1850  -63.0090 O.co2  18  GLU18      -0.2457
      9  OE2       35.6870   61.0990  -61.3130 O.co2  18  GLU18      -0.2457
     10  N         40.5820   60.1280  -59.6820 N.am   19  TYR19      -0.1976
     11  CA        40.6450   59.9880  -58.2340 C.3    19  TYR19       0.1639
     12  C         41.9600   59.3860  -57.7560 C.2    19  TYR19       0.2290
     13  O         42.0570   58.9720  -56.5960 O.2    19  TYR19      -0.2864
     14  CB        39.4730   59.1340  -57.7400 C.3    19  TYR19       0.0560
     15  CG        39.4100   57.7380  -58.3470 C.ar   19  TYR19      -0.0198
     16  CD1       40.0530   56.6630  -57.7480 C.ar   19  TYR19      -0.0009
     17  CD2       38.7070   57.4990  -59.5190 C.ar   19  TYR19      -0.0009
     18  CE1       39.9930   55.3940  -58.2970 C.ar   19  TYR19       0.0417
     19  CE2       38.6430   56.2320  -60.0730 C.ar   19  TYR19       0.0417
     20  CZ        39.2850   55.1870  -59.4570 C.ar   19  TYR19       0.1957
     21  OH        39.2250   53.9280  -60.0140 O.3    19  TYR19      -0.2866
     22  N         44.7570   60.7810  -57.1320 N.3    21  TRP21      -0.1227
     23  CA        45.5080   61.6010  -56.1890 C.3    21  TRP21       0.1737
     24  C         45.1360   61.2510  -54.7570 C.2    21  TRP21       0.2595
     25  O         46.0120   61.0490  -53.9070 O.2    21  TRP21      -0.2718
     26  CB        45.2850   63.0930  -56.4710 C.3    21  TRP21       0.0564
     27  CG        43.8640   63.6130  -56.3370 C.ar   21  TRP21       0.0003
     28  CD1       42.9090   63.6550  -57.3140 C.ar   21  TRP21       0.0946
     29  CD2       43.2680   64.2050  -55.1730 C.ar   21  TRP21       0.0152
     30  NE1       41.7550   64.2210  -56.8310 N.ar   21  TRP21      -0.2442
     31  CE2       41.9480   64.5720  -55.5220 C.ar   21  TRP21       0.0810
     32  CE3       43.7130   64.4370  -53.8620 C.ar   21  TRP21       0.0012
     33  CZ2       41.0720   65.1610  -54.6120 C.ar   21  TRP21       0.0191
     34  CZ3       42.8470   65.0240  -52.9640 C.ar   21  TRP21       0.0001
     35  CH2       41.5380   65.3840  -53.3430 C.ar   21  TRP21       0.0015
     36  N         43.8370   61.1550  -54.4760 N.am   22  VAL22      -0.1966
     37  CA        43.4070   60.7910  -53.1350 C.3    22  VAL22       0.1727
     38  C         43.7440   59.3340  -52.8430 C.2    22  VAL22       0.2616
     39  O         44.0400   58.9780  -51.7000 O.2    22  VAL22      -0.2715
     40  CB        41.9060   61.0950  -52.9650 C.3    22  VAL22       0.0290
     41  CG1       41.0580   60.1930  -53.8560 C.3    22  VAL22       0.0023
     42  CG2       41.4990   60.9680  -51.5050 C.3    22  VAL22       0.0023
     43  N         43.7430   58.4790  -53.8670 N.am   23  LEU23      -0.1977
     44  CA        44.1250   57.0870  -53.6650 C.3    23  LEU23       0.1596
     45  C         45.5940   56.9750  -53.2780 C.2    23  LEU23       0.2287
     46  O         45.9490   56.2470  -52.3470 O.2    23  LEU23      -0.2864
     47  CB        43.8420   56.2860  -54.9320 C.3    23  LEU23       0.0297
     48  CG        43.9900   54.7720  -54.8410 C.3    23  LEU23       0.0022
     49  CD1       42.9110   54.2070  -53.9120 C.3    23  LEU23       0.0001
     50  CD2       43.8780   54.1890  -56.2120 C.3    23  LEU23       0.0001
     51  N         47.4790   59.3960  -51.9740 N.3    25  ALA25      -0.1231
     52  CA        47.6030   59.9920  -50.6460 C.3    25  ALA25       0.1694
     53  C         47.1650   59.0130  -49.5600 C.2    25  ALA25       0.2592
     54  O         47.8710   58.8150  -48.5600 O.2    25  ALA25      -0.2718
     55  CB        46.7830   61.2790  -50.5670 C.3    25  ALA25       0.0304
     56  N         45.9990   58.3890  -49.7430 N.am   26  GLY26      -0.1957
     57  CA        45.5080   57.4510  -48.7510 C.3    26  GLY26       0.1869
     58  C         46.4200   56.2530  -48.5870 C.2    26  GLY26       0.2309
     59  O         46.6480   55.7850  -47.4690 O.2    26  GLY26      -0.2863
     60  N         49.5480   57.3660  -46.5880 N.3    29  ILE29      -0.1245
     61  CA        49.2000   57.5160  -45.1800 C.3    29  ILE29       0.1561
     62  C         49.0830   56.1520  -44.5200 C.2    29  ILE29       0.2260
     63  O         49.6930   55.8970  -43.4740 O.2    29  ILE29      -0.2867
     64  CB        47.9000   58.3220  -45.0330 C.3    29  ILE29       0.0252
     65  CG1       48.1260   59.7570  -45.5030 C.3    29  ILE29       0.0019
     66  CG2       47.4220   58.2860  -43.6040 C.3    29  ILE29       0.0019
     67  CD1       46.8880   60.6240  -45.4180 C.3    29  ILE29       0.0001
     68  N         32.6070   53.0230  -61.9280 N.3   464  THR464     -0.1218
     69  CA        32.0900   52.9280  -60.5680 C.3   464  THR464      0.1862
     70  C         32.5150   51.6250  -59.9030 C.2   464  THR464      0.2287
     71  O         32.9120   51.6160  -58.7310 O.2   464  THR464     -0.2866
     72  CB        30.5680   53.0410  -60.5930 C.3   464  THR464      0.1770
     73  OG1       30.1980   54.2880  -61.1870 O.3   464  THR464     -0.2211
     74  CG2       29.9940   52.9510  -59.1870 C.3   464  THR464      0.0375
     75  N         36.1490   51.7940  -59.0560 N.3   467  ALA467     -0.1245
     76  CA        36.3370   52.6320  -57.8790 C.3   467  ALA467      0.1562
     77  C         35.9790   51.8800  -56.6040 C.2   467  ALA467      0.2260
     78  O         36.6870   51.9890  -55.5950 O.2   467  ALA467     -0.2867
     79  CB        35.5020   53.9040  -57.9970 C.3   467  ALA467      0.0290
     80  N         38.8930   49.4620  -55.9150 N.3   470  THR470     -0.1203
     81  CA        40.0870   50.1180  -55.3880 C.3   470  THR470      0.1994
     82  C         39.8550   50.5920  -53.9580 C.2   470  THR470      0.2617
     83  O         40.7570   50.5050  -53.1110 O.2   470  THR470     -0.2717
     84  CB        40.5140   51.2790  -56.2910 C.3   470  THR470      0.1784
     85  OG1       39.4570   52.2370  -56.3700 O.3   470  THR470     -0.2211
     86  CG2       40.8460   50.7700  -57.6880 C.3   470  THR470      0.0376
     87  N         38.6400   51.0670  -53.6640 N.am  471  PHE471     -0.1975
     88  CA        38.3060   51.4590  -52.2990 C.3   471  PHE471      0.1639
     89  C         38.3470   50.2670  -51.3540 C.2   471  PHE471      0.2290
     90  O         38.8380   50.3820  -50.2280 O.2   471  PHE471     -0.2864
     91  CB        36.9280   52.1210  -52.2460 C.3   471  PHE471      0.0560
     92  CG        36.4110   52.3260  -50.8370 C.ar  471  PHE471     -0.0200
     93  CD1       36.9660   53.2950  -50.0120 C.ar  471  PHE471     -0.0042
     94  CD2       35.3730   51.5520  -50.3380 C.ar  471  PHE471     -0.0042
     95  CE1       36.4940   53.4860  -48.7180 C.ar  471  PHE471     -0.0003
     96  CE2       34.9000   51.7410  -49.0360 C.ar  471  PHE471     -0.0003
     97  CZ        35.4630   52.7060  -48.2310 C.ar  471  PHE471     -0.0000
     98  N         42.0010   49.4660  -50.5890 N.3   474  TRP474     -0.1241
     99  CA        42.5390   50.4190  -49.6270 C.3   474  TRP474      0.1605
    100  C         41.9770   50.1910  -48.2260 C.2   474  TRP474      0.2264
    101  O         42.7270   50.2630  -47.2510 O.2   474  TRP474     -0.2867
    102  CB        42.2600   51.8500  -50.0760 C.3   474  TRP474      0.0550
    103  CG        42.7460   52.8840  -49.1010 C.ar  474  TRP474      0.0003
    104  CD1       44.0040   53.3910  -49.0120 C.ar  474  TRP474      0.0946
    105  CD2       41.9900   53.4990  -48.0470 C.ar  474  TRP474      0.0152
    106  NE1       44.0750   54.3060  -47.9940 N.ar  474  TRP474     -0.2442
    107  CE2       42.8550   54.3890  -47.3790 C.ar  474  TRP474      0.0810
    108  CE3       40.6670   53.3940  -47.6150 C.ar  474  TRP474      0.0012
    109  CZ2       42.4380   55.1800  -46.3080 C.ar  474  TRP474      0.0191
    110  CZ3       40.2550   54.1690  -46.5350 C.ar  474  TRP474      0.0001
    111  CH2       41.1390   55.0520  -45.8980 C.ar  474  TRP474      0.0015
@<TRIPOS>BOND
     1     8     7   ar
     2     1     2    1
     3     5     2    1
     4     5     6    1
     5     7     6    1
     6     7     9   ar
     7    68    69    1
     8     2     3    1
     9    73    72    1
    10    72    69    1
    11    72    74    1
    12    69    70    1
    13     3     4    2
    14     3    10   am
    15    19    17   ar
    16    19    20   ar
    17    21    20    1
    18    70    71    2
    19    10    11    1
    20    17    15   ar
    21    20    18   ar
    22    75    76    1
    23    15    16   ar
    24    15    14    1
    25    18    16   ar
    26    11    12    1
    27    11    14    1
    28    79    76    1
    29    76    77    1
    30    12    13    2
    31    86    84    1
    32    28    30   ar
    33    28    27   ar
    34    22    23    1
    35    30    31   ar
    36    77    78    2
    37    26    27    1
    38    26    23    1
    39    85    84    1
    40    27    29   ar
    41    84    81    1
    42    50    48    1
    43    23    24    1
    44    80    81    1
    45    31    29   ar
    46    31    33   ar
    47    81    82    1
    48    29    32   ar
    49    47    48    1
    50    47    44    1
    51    48    49    1
    52    24    36   am
    53    24    25    2
    54    33    35   ar
    55    36    37    1
    56    82    87   am
    57    82    83    2
    58    43    44    1
    59    43    38   am
    60    32    34   ar
    61    41    40    1
    62    44    45    1
    63    87    88    1
    64    35    34   ar
    65    45    46    2
    66    37    40    1
    67    37    38    1
    68    40    42    1
    69    38    39    2
    70    88    91    1
    71    88    89    1
    72    91    92    1
    73    51    52    1
    74    89    90    2
    75    92    94   ar
    76    92    93   ar
    77    52    55    1
    78    52    53    1
    79    98    99    1
    80    94    96   ar
    81   102    99    1
    82   102   103    1
    83    93    95   ar
    84    56    53   am
    85    56    57    1
    86    99   100    1
    87    53    54    2
    88   103   104   ar
    89   103   105   ar
    90    96    97   ar
    91   104   106   ar
    92    57    58    1
    93    95    97   ar
    94    58    59    2
    95   100   101    2
    96   105   108   ar
    97   105   107   ar
    98   106   107   ar
    99   108   110   ar
   100   107   109   ar
   101    60    61    1
   102   110   111   ar
   103   109   111   ar
   104    65    67    1
   105    65    64    1
   106    61    64    1
   107    61    62    1
   108    64    66    1
   109    62    63    2
