@<TRIPOS>MOLECULE
tmp/5ws3A06.pdb
 125 120 0 0 0
SMALL
GASTEIGER

@<TRIPOS>ATOM
      1  N         48.8070   48.4280  -59.4480 N.3    80  VAL80      -0.1231
      2  CA        47.8360   47.7600  -60.3120 C.3    80  VAL80       0.1692
      3  C         46.5180   48.5170  -60.3270 C.2    80  VAL80       0.2592
      4  O         45.8680   48.6360  -61.3740 O.2    80  VAL80      -0.2718
      5  CB        47.6290   46.3040  -59.8590 C.3    80  VAL80       0.0266
      6  CG1       46.5260   45.6360  -60.6830 C.3    80  VAL80       0.0020
      7  CG2       48.9270   45.5340  -59.9640 C.3    80  VAL80       0.0020
      8  N         46.0790   49.0170  -59.1660 N.am   81  ASP81      -0.1974
      9  CA        44.8280   49.7590  -59.1410 C.3    81  ASP81       0.1709
     10  C         44.9340   51.0670  -59.9180 C.2    81  ASP81       0.2293
     11  O         43.9470   51.5100  -60.5150 O.2    81  ASP81      -0.2864
     12  CB        44.4160   49.9950  -57.7000 C.3    81  ASP81       0.1436
     13  CG        44.0180   48.7160  -57.0190 C.2    81  ASP81       0.3671
     14  OD1       44.0110   47.6800  -57.7180 O.co2  81  ASP81      -0.2456
     15  OD2       43.7070   48.7350  -55.8120 O.co2  81  ASP81      -0.2456
     16  N         46.0610   49.4180  -63.9200 N.3    84  GLU84      -0.1245
     17  CA        45.2910   48.2940  -64.4460 C.3    84  GLU84       0.1567
     18  C         46.1600   47.3330  -65.2420 C.2    84  GLU84       0.2260
     19  O         45.6510   46.5700  -66.0680 O.2    84  GLU84      -0.2867
     20  CB        44.1140   48.7660  -65.3060 C.3    84  GLU84       0.0388
     21  CG        43.1670   49.7090  -64.5980 C.3    84  GLU84       0.1160
     22  CD        41.8410   49.8540  -65.3220 C.2    84  GLU84       0.3649
     23  OE1       41.2690   48.8190  -65.7300 O.co2  84  GLU84      -0.2457
     24  OE2       41.3720   51.0000  -65.4900 O.co2  84  GLU84      -0.2457
     25  N         47.8710   41.4910  -67.7690 N.3   175  VAL175     -0.1231
     26  CA        47.1610   41.5080  -66.5020 C.3   175  VAL175      0.1692
     27  C         47.5280   40.2550  -65.7290 C.2   175  VAL175      0.2592
     28  O         47.8740   39.2140  -66.3040 O.2   175  VAL175     -0.2718
     29  CB        45.6310   41.6010  -66.6860 C.3   175  VAL175      0.0266
     30  CG1       45.2660   42.9110  -67.3650 C.3   175  VAL175      0.0020
     31  CG2       45.1270   40.4130  -67.4980 C.3   175  VAL175      0.0020
     32  N         47.4560   40.3730  -64.4050 N.am  176  CYS176     -0.1956
     33  CA        47.6440   39.2610  -63.4870 C.3   176  CYS176      0.1843
     34  C         46.2790   38.9120  -62.9090 C.2   176  CYS176      0.2625
     35  O         45.6940   39.7080  -62.1710 O.2   176  CYS176     -0.2714
     36  CB        48.6350   39.6230  -62.3840 C.3   176  CYS176      0.0997
     37  SG        48.7770   38.3570  -61.0760 S.3   176  CYS176     -0.0797
     38  N         45.7650   37.7310  -63.2340 N.am  177  ASP177     -0.1971
     39  CA        44.4230   37.4000  -62.7820 C.3   177  ASP177      0.1709
     40  C         44.2860   35.8930  -62.6340 C.2   177  ASP177      0.2293
     41  O         45.1420   35.1200  -63.0700 O.2   177  ASP177     -0.2864
     42  CB        43.3690   37.9550  -63.7410 C.3   177  ASP177      0.1436
     43  CG        42.0180   38.0820  -63.0940 C.2   177  ASP177      0.3671
     44  OD1       41.8930   37.7040  -61.9200 O.co2 177  ASP177     -0.2456
     45  OD2       41.0790   38.5610  -63.7500 O.co2 177  ASP177     -0.2456
     46  N         31.3620   39.1910  -57.8120 N.3   450  LYS450     -0.1245
     47  CA        32.0200   39.0480  -59.1020 C.3   450  LYS450      0.1561
     48  C         32.2240   37.5790  -59.4670 C.2   450  LYS450      0.2260
     49  O         31.8480   37.1470  -60.5580 O.2   450  LYS450     -0.2867
     50  CB        33.3530   39.7970  -59.0960 C.3   450  LYS450      0.0271
     51  CG        34.1750   39.5910  -60.3570 C.3   450  LYS450      0.0035
     52  CD        35.5680   40.1680  -60.2060 C.3   450  LYS450      0.0206
     53  CE        36.4390   39.8210  -61.3950 C.3   450  LYS450      0.1093
     54  NZ        37.7930   40.4340  -61.2750 N.3   450  LYS450     -0.1314
     55  N         28.4670   38.9820  -61.4250 N.3   455  MET455     -0.1230
     56  CA        28.1050   40.3570  -61.7070 C.3   455  MET455      0.1702
     57  C         29.2910   41.1000  -62.3130 C.2   455  MET455      0.2592
     58  O         30.4140   40.5890  -62.3820 O.2   455  MET455     -0.2718
     59  CB        27.6320   41.0540  -60.4380 C.3   455  MET455      0.0401
     60  CG        26.3160   40.5450  -59.9160 C.3   455  MET455      0.0596
     61  SD        25.7470   41.5920  -58.5730 S.3   455  MET455     -0.1393
     62  CE        25.5810   43.1530  -59.4210 C.3   455  MET455      0.0692
     63  N         29.0190   42.3210  -62.7730 N.am  456  PHE456     -0.1962
     64  CA        30.0130   43.1850  -63.4070 C.3   456  PHE456      0.1771
     65  C         30.5720   42.5840  -64.6900 C.2   456  PHE456      0.2619
     66  O         31.6570   42.9700  -65.1330 O.2   456  PHE456     -0.2715
     67  CB        31.1670   43.5120  -62.4500 C.3   456  PHE456      0.0574
     68  CG        30.7340   43.7440  -61.0380 C.ar  456  PHE456     -0.0200
     69  CD1       29.6700   44.5820  -60.7530 C.ar  456  PHE456     -0.0042
     70  CD2       31.3880   43.1170  -59.9910 C.ar  456  PHE456     -0.0042
     71  CE1       29.2680   44.7900  -59.4530 C.ar  456  PHE456     -0.0003
     72  CE2       30.9920   43.3250  -58.6880 C.ar  456  PHE456     -0.0003
     73  CZ        29.9300   44.1620  -58.4180 C.ar  456  PHE456     -0.0000
     74  N         29.8630   41.6270  -65.2910 N.am  457  ALA457     -0.1977
     75  CA        30.3210   41.0500  -66.5510 C.3   457  ALA457      0.1597
     76  C         30.1500   42.0420  -67.6930 C.2   457  ALA457      0.2287
     77  O         31.1240   42.4370  -68.3430 O.2   457  ALA457     -0.2864
     78  CB        29.5690   39.7520  -66.8430 C.3   457  ALA457      0.0319
     79  N         28.7770   45.5250  -67.5970 N.3   459  THR459     -0.1218
     80  CA        28.3040   46.6410  -66.7940 C.3   459  THR459      0.1862
     81  C         28.4430   47.9370  -67.5820 C.2   459  THR459      0.2287
     82  O         29.4620   48.1710  -68.2400 O.2   459  THR459     -0.2866
     83  CB        29.0720   46.7320  -65.4670 C.3   459  THR459      0.1770
     84  OG1       28.7310   47.9490  -64.7900 O.3   459  THR459     -0.2211
     85  CG2       30.5800   46.6780  -65.7020 C.3   459  THR459      0.0375
     86  N         32.4390   50.5120  -60.6380 N.3   465  VAL465     -0.1231
     87  CA        32.8350   49.2240  -60.0810 C.3   465  VAL465      0.1692
     88  C         34.3290   49.2040  -59.7940 C.2   465  VAL465      0.2592
     89  O         34.7700   48.6740  -58.7650 O.2   465  VAL465     -0.2718
     90  CB        32.4250   48.0820  -61.0260 C.3   465  VAL465      0.0266
     91  CG1       32.7480   46.7410  -60.3950 C.3   465  VAL465      0.0020
     92  CG2       30.9490   48.1830  -61.3750 C.3   465  VAL465      0.0020
     93  N         35.1370   49.7860  -60.6870 N.am  466  TYR466     -0.1976
     94  CA        36.5710   49.8100  -60.4270 C.3   466  TYR466      0.1639
     95  C         36.8960   50.6980  -59.2300 C.2   466  TYR466      0.2290
     96  O         37.8070   50.3880  -58.4500 O.2   466  TYR466     -0.2864
     97  CB        37.3360   50.2580  -61.6680 C.3   466  TYR466      0.0560
     98  CG        38.7930   49.8480  -61.6280 C.ar  466  TYR466     -0.0198
     99  CD1       39.1880   48.5590  -61.9880 C.ar  466  TYR466     -0.0009
    100  CD2       39.7730   50.7440  -61.2140 C.ar  466  TYR466     -0.0009
    101  CE1       40.5210   48.1810  -61.9410 C.ar  466  TYR466      0.0417
    102  CE2       41.1050   50.3780  -61.1680 C.ar  466  TYR466      0.0417
    103  CZ        41.4740   49.0980  -61.5280 C.ar  466  TYR466      0.1957
    104  OH        42.8020   48.7390  -61.4750 O.3   466  TYR466     -0.2866
    105  N         36.1610   48.6650  -56.1720 N.3   469  PHE469     -0.1241
    106  CA        37.2050   47.6790  -55.9150 C.3   469  PHE469      0.1605
    107  C         38.4630   48.3290  -55.3470 C.2   469  PHE469      0.2264
    108  O         39.0540   47.8110  -54.3890 O.2   469  PHE469     -0.2867
    109  CB        37.5150   46.8910  -57.1890 C.3   469  PHE469      0.0534
    110  CG        36.6400   45.6800  -57.3720 C.ar  469  PHE469     -0.0203
    111  CD1       35.3970   45.7920  -57.9700 C.ar  469  PHE469     -0.0042
    112  CD2       37.0480   44.4350  -56.9240 C.ar  469  PHE469     -0.0042
    113  CE1       34.5890   44.6780  -58.1420 C.ar  469  PHE469     -0.0003
    114  CE2       36.2440   43.3250  -57.0890 C.ar  469  PHE469     -0.0003
    115  CZ        35.0140   43.4460  -57.6980 C.ar  469  PHE469     -0.0000
    116  N         40.1320   47.5640  -51.6510 N.3   473  HIS473     -0.1241
    117  CA        41.5490   47.2360  -51.4520 C.3   473  HIS473      0.1621
    118  C         42.1800   48.1480  -50.4040 C.2   473  HIS473      0.2264
    119  O         42.8210   47.6810  -49.4360 O.2   473  HIS473     -0.2867
    120  CB        42.3100   47.3550  -52.7770 C.3   473  HIS473      0.0745
    121  CG        41.7790   46.4730  -53.8600 C.ar  473  HIS473      0.0817
    122  ND1       42.0640   46.6690  -55.1930 N.ar  473  HIS473     -0.2268
    123  CD2       40.9920   45.3730  -53.8000 C.ar  473  HIS473      0.1154
    124  CE1       41.4700   45.7290  -55.9100 C.ar  473  HIS473      0.1986
    125  NE2       40.8120   44.9330  -55.0870 N.ar  473  HIS473     -0.2212
@<TRIPOS>BOND
     1    77    76    2
     2    82    81    2
     3    25    26    1
     4    76    75    1
     5    79    80    1
     6    81    80    1
     7    31    29    1
     8    30    29    1
     9    78    75    1
    10    80    83    1
    11    29    26    1
    12    75    74    1
    13    26    27    1
    14    28    27    2
    15    19    18    2
    16    23    22   ar
    17    27    32   am
    18    85    83    1
    19    24    22   ar
    20    83    84    1
    21    22    21    1
    22    20    21    1
    23    20    17    1
    24    74    65   am
    25    18    17    1
    26    66    65    2
    27    65    64    1
    28    17    16    1
    29    32    33    1
    30    45    43   ar
    31    42    43    1
    32    42    39    1
    33    33    34    1
    34    33    36    1
    35    64    63    1
    36    64    67    1
    37    38    34   am
    38    38    39    1
    39    43    44   ar
    40    41    40    2
    41    34    35    2
    42    39    40    1
    43    63    57   am
    44    67    68    1
    45    36    37    1
    46    58    57    2
    47    57    56    1
    48    99   101   ar
    49    99    98   ar
    50   101   103   ar
    51    56    55    1
    52    56    59    1
    53    97    98    1
    54    97    94    1
    55    98   100   ar
    56   103   104    1
    57   103   102   ar
    58    53    54    1
    59    53    52    1
    60    92    90    1
    61     4     3    2
    62   100   102   ar
    63    68    69   ar
    64    68    70   ar
    65    90    91    1
    66    90    87    1
    67    69    71   ar
    68    93    94    1
    69    93    88   am
    70     6     5    1
    71    86    87    1
    72    49    48    2
    73    11    10    2
    74    59    60    1
    75    94    95    1
    76    51    52    1
    77    51    50    1
    78     3     2    1
    79     3     8   am
    80     2     5    1
    81     2     1    1
    82    87    88    1
    83    70    72   ar
    84     7     5    1
    85    10     9    1
    86    60    61    1
    87    88    89    2
    88    48    47    1
    89    71    73   ar
    90    62    61    1
    91    95    96    2
    92     8     9    1
    93     9    12    1
    94    47    50    1
    95    47    46    1
    96    72    73   ar
    97   113   111   ar
    98   113   115   ar
    99   111   110   ar
   100    14    13   ar
   101    12    13    1
   102   115   114   ar
   103   110   109    1
   104   110   112   ar
   105   109   106    1
   106   114   112   ar
   107    13    15   ar
   108   105   106    1
   109   106   107    1
   110   124   122   ar
   111   124   125   ar
   112   107   108    2
   113   122   121   ar
   114   125   123   ar
   115   121   123   ar
   116   121   120    1
   117   120   117    1
   118   116   117    1
   119   117   118    1
   120   118   119    2
