@<TRIPOS>MOLECULE
tmp/5ws3A01.pdb
 111 104 0 0 0
SMALL
GASTEIGER

@<TRIPOS>ATOM
      1  N         49.5480   57.3660  -46.5880 N.3    29  ILE29      -0.1231
      2  CA        49.2000   57.5160  -45.1800 C.3    29  ILE29       0.1692
      3  C         49.0830   56.1520  -44.5200 C.2    29  ILE29       0.2591
      4  O         49.6930   55.8970  -43.4740 O.2    29  ILE29      -0.2718
      5  CB        47.9000   58.3220  -45.0330 C.3    29  ILE29       0.0266
      6  CG1       48.1260   59.7570  -45.5030 C.3    29  ILE29       0.0019
      7  CG2       47.4220   58.2860  -43.6040 C.3    29  ILE29       0.0020
      8  CD1       46.8880   60.6240  -45.4180 C.3    29  ILE29       0.0001
      9  N         48.3030   55.2530  -45.1310 N.am   30  VAL30      -0.1980
     10  CA        48.1070   53.9270  -44.5580 C.3    30  VAL30       0.1595
     11  C         49.4300   53.1770  -44.4890 C.2    30  VAL30       0.2287
     12  O         49.7100   52.4800  -43.5100 O.2    30  VAL30      -0.2864
     13  CB        47.0420   53.1570  -45.3580 C.3    30  VAL30       0.0276
     14  CG1       47.1510   51.6780  -45.1090 C.3    30  VAL30       0.0022
     15  CG2       45.6540   53.6610  -44.9820 C.3    30  VAL30       0.0022
     16  N         51.4840   54.6980  -41.4820 N.3    33  VAL33      -0.1245
     17  CA        50.8490   54.4500  -40.1880 C.3    33  VAL33       0.1561
     18  C         50.8950   52.9660  -39.8400 C.2    33  VAL33       0.2260
     19  O         51.2670   52.5910  -38.7250 O.2    33  VAL33      -0.2867
     20  CB        49.4080   54.9870  -40.1750 C.3    33  VAL33       0.0252
     21  CG1       48.6960   54.5430  -38.9120 C.3    33  VAL33       0.0019
     22  CG2       49.4080   56.5130  -40.2680 C.3    33  VAL33       0.0019
     23  N         36.7970   44.2990  -24.2950 N.3   427  ARG427     -0.1245
     24  CA        36.2550   45.4070  -25.0740 C.3   427  ARG427      0.1563
     25  C         37.1970   45.8010  -26.2130 C.2   427  ARG427      0.2260
     26  O         36.7550   46.0210  -27.3490 O.2   427  ARG427     -0.2867
     27  CB        35.9790   46.5900  -24.1470 C.3   427  ARG427      0.0307
     28  CG        35.7280   47.9200  -24.8220 C.3   427  ARG427      0.0489
     29  CD        35.1150   48.8820  -23.8250 C.3   427  ARG427      0.2205
     30  NE        35.4680   50.2720  -24.0960 N.pl3 427  ARG427     -0.0865
     31  CZ        36.4170   50.9470  -23.4510 C.cat 427  ARG427      0.5346
     32  NH1       37.1160   50.3510  -22.4900 N.pl3 427  ARG427      0.1354
     33  NH2       36.6670   52.2170  -23.7720 N.pl3 427  ARG427      0.1354
     34  N         36.3430   45.5970  -30.2340 N.3   431  VAL431     -0.1245
     35  CA        36.4850   46.6980  -31.1820 C.3   431  VAL431      0.1561
     36  C         37.3670   46.2740  -32.3490 C.2   431  VAL431      0.2260
     37  O         37.0620   46.5600  -33.5130 O.2   431  VAL431     -0.2867
     38  CB        37.0310   47.9540  -30.4740 C.3   431  VAL431      0.0252
     39  CG1       37.3950   49.0390  -31.4930 C.3   431  VAL431      0.0019
     40  CG2       35.9930   48.4920  -29.5000 C.3   431  VAL431      0.0019
     41  N         36.1580   46.3160  -36.2540 N.3   435  VAL435     -0.1245
     42  CA        36.8660   47.0750  -37.2840 C.3   435  VAL435      0.1561
     43  C         37.3840   46.1400  -38.3740 C.2   435  VAL435      0.2260
     44  O         37.3620   46.4780  -39.5590 O.2   435  VAL435     -0.2867
     45  CB        37.9950   47.9130  -36.6500 C.3   435  VAL435      0.0252
     46  CG1       38.7690   48.6710  -37.7210 C.3   435  VAL435      0.0019
     47  CG2       37.4170   48.9060  -35.6100 C.3   435  VAL435      0.0019
     48  N         42.0010   49.4660  -50.5890 N.3   474  TRP474     -0.1241
     49  CA        42.5390   50.4190  -49.6270 C.3   474  TRP474      0.1605
     50  C         41.9770   50.1910  -48.2260 C.2   474  TRP474      0.2264
     51  O         42.7270   50.2630  -47.2510 O.2   474  TRP474     -0.2867
     52  CB        42.2600   51.8500  -50.0760 C.3   474  TRP474      0.0550
     53  CG        42.7460   52.8840  -49.1010 C.ar  474  TRP474      0.0003
     54  CD1       44.0040   53.3910  -49.0120 C.ar  474  TRP474      0.0946
     55  CD2       41.9900   53.4990  -48.0470 C.ar  474  TRP474      0.0152
     56  NE1       44.0750   54.3060  -47.9940 N.ar  474  TRP474     -0.2442
     57  CE2       42.8550   54.3890  -47.3790 C.ar  474  TRP474      0.0810
     58  CE3       40.6670   53.3940  -47.6150 C.ar  474  TRP474      0.0012
     59  CZ2       42.4380   55.1800  -46.3080 C.ar  474  TRP474      0.0191
     60  CZ3       40.2550   54.1690  -46.5350 C.ar  474  TRP474      0.0001
     61  CH2       41.1390   55.0520  -45.8980 C.ar  474  TRP474      0.0015
     62  N         43.9470   49.7460  -44.7990 N.3   478  ALA478     -0.1245
     63  CA        43.7600   50.6800  -43.6970 C.3   478  ALA478      0.1562
     64  C         43.4230   49.9570  -42.4070 C.2   478  ALA478      0.2260
     65  O         43.6420   50.5100  -41.3280 O.2   478  ALA478     -0.2867
     66  CB        42.6630   51.6990  -44.0190 C.3   478  ALA478      0.0290
     67  N         46.5220   49.7820  -40.4970 N.3   481  ALA481     -0.1231
     68  CA        46.9010   51.0310  -39.8470 C.3   481  ALA481      0.1694
     69  C         46.0100   51.3250  -38.6490 C.2   481  ALA481      0.2591
     70  O         46.4560   51.9590  -37.6840 O.2   481  ALA481     -0.2718
     71  CB        46.8410   52.1860  -40.8520 C.3   481  ALA481      0.0304
     72  N         44.7620   50.8530  -38.6960 N.am  482  ALA482     -0.1980
     73  CA        43.7870   51.1270  -37.6500 C.3   482  ALA482      0.1597
     74  C         44.0670   50.3450  -36.3750 C.2   482  ALA482      0.2287
     75  O         43.8710   50.8820  -35.2780 O.2   482  ALA482     -0.2864
     76  CB        42.3800   50.8030  -38.1540 C.3   482  ALA482      0.0319
     77  N         46.2330   52.0470  -33.6250 N.3   485  ILE485     -0.1231
     78  CA        45.4950   53.1750  -33.0610 C.3   485  ILE485      0.1692
     79  C         44.4780   52.6840  -32.0400 C.2   485  ILE485      0.2591
     80  O         44.2920   53.2930  -30.9730 O.2   485  ILE485     -0.2718
     81  CB        44.8230   53.9770  -34.1860 C.3   485  ILE485      0.0266
     82  CG1       45.8680   54.3790  -35.2290 C.3   485  ILE485      0.0019
     83  CG2       44.1030   55.1910  -33.6140 C.3   485  ILE485      0.0020
     84  CD1       45.2880   54.9840  -36.4670 C.3   485  ILE485      0.0001
     85  N         43.8050   51.5720  -32.3530 N.am  486  ILE486     -0.1980
     86  CA        42.8780   50.9790  -31.4000 C.3   486  ILE486      0.1595
     87  C         43.6050   50.5880  -30.1280 C.2   486  ILE486      0.2287
     88  O         43.1630   50.9150  -29.0180 O.2   486  ILE486     -0.2864
     89  CB        42.1700   49.7790  -32.0360 C.3   486  ILE486      0.0276
     90  CG1       41.3510   50.2610  -33.2320 C.3   486  ILE486      0.0022
     91  CG2       41.3270   49.0510  -30.9890 C.3   486  ILE486      0.0022
     92  CD1       40.6730   49.1390  -33.9910 C.3   486  ILE486      0.0001
     93  N         44.2920   53.5790  -27.9990 N.3   489  PHE489     -0.1227
     94  CA        43.1390   54.1780  -27.3280 C.3   489  PHE489      0.1736
     95  C         42.5440   53.2940  -26.2330 C.2   489  PHE489      0.2595
     96  O         42.0040   53.8200  -25.2540 O.2   489  PHE489     -0.2718
     97  CB        42.0570   54.5380  -28.3460 C.3   489  PHE489      0.0547
     98  CG        42.2690   55.8760  -28.9920 C.ar  489  PHE489     -0.0202
     99  CD1       42.1880   57.0360  -28.2390 C.ar  489  PHE489     -0.0042
    100  CD2       42.5700   55.9760  -30.3400 C.ar  489  PHE489     -0.0042
    101  CE1       42.3910   58.2750  -28.8230 C.ar  489  PHE489     -0.0003
    102  CE2       42.7700   57.2030  -30.9270 C.ar  489  PHE489     -0.0003
    103  CZ        42.6800   58.3570  -30.1680 C.ar  489  PHE489     -0.0000
    104  N         42.6200   51.9700  -26.3610 N.am  490  LEU490     -0.1980
    105  CA        41.8720   51.0840  -25.4790 C.3   490  LEU490      0.1596
    106  C         42.7580   50.2590  -24.5620 C.2   490  LEU490      0.2287
    107  O         42.2500   49.3920  -23.8510 O.2   490  LEU490     -0.2864
    108  CB        40.9760   50.1620  -26.3010 C.3   490  LEU490      0.0297
    109  CG        39.9210   50.9100  -27.1060 C.3   490  LEU490      0.0022
    110  CD1       39.1200   49.9570  -27.9590 C.3   490  LEU490      0.0001
    111  CD2       39.0230   51.6840  -26.1530 C.3   490  LEU490      0.0001
@<TRIPOS>BOND
     1    48    49    1
     2    52    49    1
     3    52    53    1
     4    49    50    1
     5    53    54   ar
     6    53    55   ar
     7    54    56   ar
     8    50    51    2
     9    55    58   ar
    10    55    57   ar
    11    56    57   ar
    12    58    60   ar
    13    57    59   ar
    14     1     2    1
    15    60    61   ar
    16    59    61   ar
    17     6     8    1
    18     6     5    1
    19    13    14    1
    20    13    15    1
    21    13    10    1
    22     2     5    1
    23     2     3    1
    24     9    10    1
    25     9     3   am
    26     5     7    1
    27    62    63    1
    28    10    11    1
    29     3     4    2
    30    11    12    2
    31    66    63    1
    32    63    64    1
    33    64    65    2
    34    16    17    1
    35    71    68    1
    36    67    68    1
    37    22    20    1
    38    17    20    1
    39    17    18    1
    40    20    21    1
    41    68    69    1
    42    18    19    2
    43    44    43    2
    44    72    69   am
    45    72    73    1
    46    69    70    2
    47    43    42    1
    48    76    73    1
    49    46    45    1
    50    73    74    1
    51    42    45    1
    52    42    41    1
    53    45    47    1
    54    84    82    1
    55    74    75    2
    56    82    81    1
    57    81    83    1
    58    81    78    1
    59    92    90    1
    60    77    78    1
    61    37    36    2
    62    90    89    1
    63    78    79    1
    64    85    79   am
    65    85    86    1
    66    36    35    1
    67    79    80    2
    68    89    86    1
    69    89    91    1
    70    39    38    1
    71    86    87    1
    72    35    38    1
    73    35    34    1
    74   102   100   ar
    75   102   103   ar
    76    38    40    1
    77   100    98   ar
    78   103   101   ar
    79    87    88    2
    80    98    97    1
    81    98    99   ar
    82   101    99   ar
    83    97    94    1
    84    93    94    1
    85   110   109    1
    86    26    25    2
    87    94    95    1
    88   109   108    1
    89   109   111    1
    90   104    95   am
    91   104   105    1
    92   108   105    1
    93    95    96    2
    94    25    24    1
    95   105   106    1
    96    24    23    1
    97    24    27    1
    98    28    27    1
    99    28    29    1
   100   106   107    2
   101    30    29    1
   102    30    31    2
   103    33    31    1
   104    31    32    1
