@<TRIPOS>MOLECULE
tmp/5ws4B00.pdb
 76 74 0 0 0
SMALL
GASTEIGER

@<TRIPOS>ATOM
      1  N         44.4540   38.5050   19.1020 N.3    14  PHE14      -0.1228
      2  CA        45.5940   39.0580   19.8080 C.3    14  PHE14       0.1721
      3  C         46.8460   38.3740   19.2810 C.2    14  PHE14       0.2437
      4  O         46.8270   37.1650   19.0240 O.2    14  PHE14      -0.2733
      5  CB        45.4900   38.8380   21.3290 C.3    14  PHE14       0.0547
      6  CG        44.4100   39.6420   22.0000 C.ar   14  PHE14      -0.0202
      7  CD1       43.0930   39.2190   21.9810 C.ar   14  PHE14      -0.0042
      8  CD2       44.7220   40.8070   22.6810 C.ar   14  PHE14      -0.0042
      9  CE1       42.1030   39.9560   22.6100 C.ar   14  PHE14      -0.0003
     10  CE2       43.7370   41.5460   23.3110 C.ar   14  PHE14      -0.0003
     11  CZ        42.4260   41.1190   23.2760 C.ar   14  PHE14      -0.0000
     12  N         47.9420   39.1050   19.1110 N.am   15  PRO15      -0.2729
     13  CA        49.1750   38.4560   18.6560 C.3    15  PRO15       0.1401
     14  C         49.7880   37.6060   19.7570 C.2    15  PRO15       0.2269
     15  O         49.8110   37.9940   20.9280 O.2    15  PRO15      -0.2865
     16  CB        50.0790   39.6350   18.2790 C.3    15  PRO15       0.0296
     17  CG        49.5780   40.7610   19.1290 C.3    15  PRO15       0.0237
     18  CD        48.0940   40.5630   19.2350 C.3    15  PRO15       0.0939
     19  N         40.2200   35.2100   19.9160 N.3    23  ILE23      -0.1245
     20  CA        39.5850   35.0760   21.2180 C.3    23  ILE23       0.1561
     21  C         38.0680   35.0660   21.0960 C.2    23  ILE23       0.2260
     22  O         37.3960   34.3180   21.8050 O.2    23  ILE23      -0.2867
     23  CB        40.0700   36.1890   22.1700 C.3    23  ILE23       0.0252
     24  CG1       41.5890   36.1100   22.3510 C.3    23  ILE23       0.0019
     25  CG2       39.3770   36.0920   23.5210 C.3    23  ILE23       0.0019
     26  CD1       42.0760   34.7680   22.8660 C.3    23  ILE23       0.0001
     27  N         37.2480   30.2970   32.3010 N.3    43  SER43      -0.1202
     28  CA        38.4260   31.0300   31.8570 C.3    43  SER43       0.2020
     29  C         38.8590   30.5520   30.4760 C.2    43  SER43       0.2619
     30  O         38.9910   29.3480   30.2330 O.2    43  SER43      -0.2717
     31  CB        39.5640   30.8600   32.8620 C.3    43  SER43       0.2103
     32  OG        40.7450   31.4960   32.4080 O.3    43  SER43      -0.2182
     33  N         39.0860   31.5050   29.5710 N.am   44  GLY44      -0.1942
     34  CA        39.3860   31.2120   28.1850 C.3    44  GLY44       0.2014
     35  C         38.2100   31.3400   27.2410 C.2    44  GLY44       0.2640
     36  O         38.4130   31.3230   26.0190 O.2    44  GLY44      -0.2714
     37  N         36.9920   31.4850   27.7670 N.am   45  SER45      -0.1935
     38  CA        35.8090   31.4680   26.9150 C.3    45  SER45       0.2055
     39  C         35.7260   32.6890   26.0020 C.2    45  SER45       0.2644
     40  O         35.2660   32.5690   24.8610 O.2    45  SER45      -0.2714
     41  CB        34.5520   31.3620   27.7800 C.3    45  SER45       0.2130
     42  OG        34.3640   32.5330   28.5560 O.3    45  SER45      -0.2179
     43  N         36.1690   33.8580   26.4590 N.am   46  GLY46      -0.1939
     44  CA        35.9640   35.0770   25.7010 C.3    46  GLY46       0.2014
     45  C         34.8550   35.9660   26.2200 C.2    46  GLY46       0.2639
     46  O         34.5840   37.0110   25.6120 O.2    46  GLY46      -0.2714
     47  N         34.1910   35.5690   27.3080 N.am   47  LYS47      -0.1963
     48  CA        33.0520   36.3230   27.8230 C.3    47  LYS47       0.1728
     49  C         33.4270   37.7460   28.2250 C.2    47  LYS47       0.2617
     50  O         32.6890   38.6940   27.9300 O.2    47  LYS47      -0.2715
     51  CB        32.4500   35.5540   28.9990 C.3    47  LYS47       0.0311
     52  CG        33.4040   35.3720   30.1670 C.3    47  LYS47       0.0038
     53  CD        32.8000   34.5460   31.2850 C.3    47  LYS47       0.0206
     54  CE        33.7130   34.5500   32.5060 C.3    47  LYS47       0.1093
     55  NZ        34.9510   33.7420   32.2790 N.3    47  LYS47      -0.1314
     56  N         34.5740   37.9250   28.8770 N.am   48  SER48      -0.1936
     57  CA        35.0280   39.2710   29.2000 C.3    48  SER48       0.2055
     58  C         35.3230   40.0570   27.9310 C.2    48  SER48       0.2643
     59  O         34.8260   41.1660   27.7570 O.2    48  SER48      -0.2714
     60  CB        36.2510   39.2290   30.0970 C.3    48  SER48       0.2130
     61  OG        37.2970   38.6350   29.3850 O.3    48  SER48      -0.2179
     62  N         36.1990   39.5280   27.0700 N.am   49  THR49      -0.1950
     63  CA        36.5060   40.1960   25.8070 C.3    49  THR49       0.1897
     64  C         35.2300   40.6700   25.1210 C.2    49  THR49       0.2313
     65  O         35.0990   41.8450   24.7430 O.2    49  THR49      -0.2863
     66  CB        37.2690   39.2410   24.8890 C.3    49  THR49       0.1794
     67  OG1       38.4740   38.8100   25.5370 O.3    49  THR49      -0.2208
     68  CG2       37.6210   39.9370   23.5840 C.3    49  THR49       0.0378
     69  N         30.3550   42.6110   35.5880 N.3   169  ASP169     -0.1239
     70  CA        31.3570   41.5630   35.4050 C.3   169  ASP169      0.1674
     71  C         31.5310   40.8430   36.7340 C.2   169  ASP169      0.2266
     72  O         32.2020   41.3430   37.6410 O.2   169  ASP169     -0.2867
     73  CB        32.6750   42.1470   34.9120 C.3   169  ASP169      0.1410
     74  CG        33.7320   41.0810   34.6430 C.2   169  ASP169      0.3668
     75  OD1       33.4130   39.8740   34.7240 O.co2 169  ASP169     -0.2456
     76  OD2       34.8860   41.4540   34.3510 O.co2 169  ASP169     -0.2456
@<TRIPOS>BOND
     1    16    13    1
     2    16    17    1
     3    13    12    1
     4    13    14    1
     5     4     3    2
     6     1     2    1
     7    12    18    1
     8    12     3   am
     9    17    18    1
    10     3     2    1
    11    14    15    2
    12     2     5    1
    13    19    20    1
    14    21    20    1
    15    21    22    2
    16    20    23    1
    17     5     6    1
    18     7     6   ar
    19     7     9   ar
    20     6     8   ar
    21    23    24    1
    22    23    25    1
    23    24    26    1
    24     9    11   ar
    25     8    10   ar
    26    11    10   ar
    27    68    66    1
    28    65    64    2
    29    40    39    2
    30    66    67    1
    31    66    63    1
    32    64    63    1
    33    46    45    2
    34    44    45    1
    35    44    43    1
    36    63    62    1
    37    39    43   am
    38    39    38    1
    39    36    35    2
    40    45    47   am
    41    38    37    1
    42    38    41    1
    43    62    58   am
    44    35    37   am
    45    35    34    1
    46    47    48    1
    47    59    58    2
    48    41    42    1
    49    48    49    1
    50    48    51    1
    51    50    49    2
    52    58    57    1
    53    34    33    1
    54    49    56   am
    55    56    57    1
    56    51    52    1
    57    57    60    1
    58    61    60    1
    59    33    29   am
    60    52    53    1
    61    30    29    2
    62    29    28    1
    63    53    54    1
    64    28    27    1
    65    28    31    1
    66    55    54    1
    67    32    31    1
    68    76    74   ar
    69    74    75   ar
    70    74    73    1
    71    73    70    1
    72    70    69    1
    73    70    71    1
    74    71    72    2
