@<TRIPOS>MOLECULE
tmp/5ws9B01.pdb
 165 155 0 0 0
SMALL
GASTEIGER

@<TRIPOS>ATOM
      1  N         78.8370   90.6690   23.8780 N.3     9  THR9       -0.1203
      2  CA        79.3300   91.9570   24.2650 C.3     9  THR9        0.1994
      3  C         78.2200   92.7770   24.8960 C.2     9  THR9        0.2618
      4  O         77.0920   92.8620   24.3680 O.2     9  THR9       -0.2717
      5  CB        79.8900   92.6990   23.0340 C.3     9  THR9        0.1784
      6  OG1       80.8770   91.8710   22.4100 O.3     9  THR9       -0.2211
      7  CG2       80.4950   94.0590   23.4380 C.3     9  THR9        0.0376
      8  N         78.5270   93.3730   26.0460 N.am   10  LEU10      -0.1965
      9  CA        77.5950   94.2190   26.7320 C.3    10  LEU10       0.1728
     10  C         77.6460   95.6410   26.2150 C.2    10  LEU10       0.2617
     11  O         78.6980   96.1340   25.7900 O.2    10  LEU10      -0.2715
     12  CB        77.9070   94.2130   28.2240 C.3    10  LEU10       0.0311
     13  CG        77.9930   92.8160   28.8670 C.3    10  LEU10       0.0022
     14  CD1       78.1970   92.9580   30.3620 C.3    10  LEU10       0.0001
     15  CD2       76.7360   92.0020   28.6090 C.3    10  LEU10       0.0001
     16  N         76.5160   96.3120   26.2900 N.am   11  GLY11      -0.1941
     17  CA        76.4380   97.7190   25.9820 C.3    11  GLY11       0.1998
     18  C         75.0380   98.2690   26.1350 C.2    11  GLY11       0.2480
     19  O         74.2120   97.6680   26.8100 O.2    11  GLY11      -0.2729
     20  N         74.7400   99.3770   25.4400 N.am   12  PRO12      -0.2726
     21  CA        73.4630  100.0680   25.6400 C.3    12  PRO12       0.1402
     22  C         72.2470   99.1420   25.5200 C.2    12  PRO12       0.2269
     23  O         71.2810   99.2990   26.2590 O.2    12  PRO12      -0.2865
     24  CB        73.4650  101.1310   24.5460 C.3    12  PRO12       0.0296
     25  CG        74.9170  101.4220   24.2900 C.3    12  PRO12       0.0237
     26  CD        75.6780  100.1490   24.6000 C.3    12  PRO12       0.0939
     27  N         81.6670   90.1230   27.3980 N.3    32  ARG32      -0.1245
     28  CA        82.7610   91.0030   26.9980 C.3    32  ARG32       0.1563
     29  C         82.4110   92.4410   27.3410 C.2    32  ARG32       0.2260
     30  O         81.3480   92.9740   26.9220 O.2    32  ARG32      -0.2867
     31  CB        83.0070   90.8660   25.4700 C.3    32  ARG32       0.0307
     32  CG        84.0590   91.7650   24.8670 C.3    32  ARG32       0.0489
     33  CD        84.0080   91.6410   23.3440 C.3    32  ARG32       0.2205
     34  NE        84.7950   92.6700   22.7130 N.pl3  32  ARG32      -0.0865
     35  CZ        84.3690   93.5680   21.8550 C.cat  32  ARG32       0.5346
     36  NH1       83.0950   93.6220   21.4140 N.pl3  32  ARG32       0.1354
     37  NH2       85.2530   94.4340   21.4220 N.pl3  32  ARG32       0.1354
     38  N         83.6870   96.0300   26.5680 N.3    34  ASN34      -0.1240
     39  CA        84.5340   96.6940   25.5400 C.3    34  ASN34       0.1653
     40  C         84.9070   98.0600   25.9860 C.2    34  ASN34       0.2266
     41  O         84.0580   98.9800   26.0230 O.2    34  ASN34      -0.2867
     42  CB        83.8030   96.7670   24.2020 C.3    34  ASN34       0.1155
     43  CG        84.6170   97.4580   23.1270 C.2    34  ASN34       0.2627
     44  OD1       85.8190   97.7510   23.3190 O.2    34  ASN34      -0.2716
     45  ND2       83.9890   97.6840   21.9630 N.am   34  ASN34      -0.0877
     46  N         86.4810  100.3790   24.6510 N.3    36  SER36      -0.1202
     47  CA        86.3960  101.4690   23.6530 C.3    36  SER36       0.2020
     48  C         85.2160  102.4200   23.9050 C.2    36  SER36       0.2619
     49  O         85.2140  103.5420   23.4140 O.2    36  SER36      -0.2717
     50  CB        86.3140  100.8910   22.2380 C.3    36  SER36       0.2103
     51  OG        87.5460  100.2010   21.9820 O.3    36  SER36      -0.2182
     52  N         84.2080  101.9560   24.6440 N.am   37  HIS37      -0.1961
     53  CA        83.0150  102.7520   24.9160 C.3    37  HIS37       0.1787
     54  C         82.6340  102.6550   26.3820 C.2    37  HIS37       0.2620
     55  O         83.1370  101.8130   27.0960 O.2    37  HIS37      -0.2715
     56  CB        81.8220  102.2700   24.0690 C.3    37  HIS37       0.0785
     57  CG        82.1140  102.1440   22.5980 C.ar   37  HIS37       0.0821
     58  ND1       82.1440  103.2300   21.7480 N.ar   37  HIS37      -0.2267
     59  CD2       82.3580  101.0540   21.8250 C.ar   37  HIS37       0.1154
     60  CE1       82.4030  102.8210   20.5210 C.ar   37  HIS37       0.1986
     61  NE2       82.5520  101.5080   20.5410 N.ar   37  HIS37      -0.2212
     62  N         81.7560  103.5540   26.8260 N.am   38  GLY38      -0.1954
     63  CA        81.2320  103.5190   28.1660 C.3    38  GLY38       0.1869
     64  C         82.1810  104.1370   29.1750 C.2    38  GLY38       0.2309
     65  O         83.3740  104.2850   28.9060 O.2    38  GLY38      -0.2863
     66  N         92.4520  107.2470   15.6710 N.3    73  ARG73      -0.1245
     67  CA        91.1760  107.8730   15.5630 C.3    73  ARG73       0.1563
     68  C         91.2830  109.2630   14.9710 C.2    73  ARG73       0.2260
     69  O         92.2880  109.9230   15.1200 O.2    73  ARG73      -0.2867
     70  CB        90.5310  107.9750   16.9570 C.3    73  ARG73       0.0307
     71  CG        90.1740  106.6190   17.5800 C.3    73  ARG73       0.0489
     72  CD        89.3560  106.8040   18.8810 C.3    73  ARG73       0.2205
     73  NE        88.8910  105.5040   19.3830 N.pl3  73  ARG73      -0.0865
     74  CZ        87.8530  104.8120   18.9170 C.cat  73  ARG73       0.5346
     75  NH1       87.5370  103.6270   19.4660 N.pl3  73  ARG73       0.1354
     76  NH2       87.1260  105.2730   17.9220 N.pl3  73  ARG73       0.1354
     77  N         86.2700  104.0360    9.8990 N.3   124  ASP124     -0.1225
     78  CA        85.1140  103.2700   10.4180 C.3   124  ASP124      0.1805
     79  C         85.1590  101.8540    9.8630 C.2   124  ASP124      0.2597
     80  O         84.1230  101.2870    9.5290 O.2   124  ASP124     -0.2718
     81  CB        83.7840  103.9570    9.9930 C.3   124  ASP124      0.1424
     82  CG        82.5870  103.4450   10.7430 C.2   124  ASP124      0.3668
     83  OD1       81.9440  102.4640   10.2730 O.co2 124  ASP124     -0.2456
     84  OD2       82.2350  104.0520   11.7710 O.co2 124  ASP124     -0.2456
     85  N         86.3830  101.3100    9.7770 N.am  125  ASP125     -0.1974
     86  CA        86.7480  100.0970    9.0280 C.3   125  ASP125      0.1709
     87  C         86.1030   99.8900    7.6440 C.2   125  ASP125      0.2293
     88  O         85.7120   98.7830    7.2830 O.2   125  ASP125     -0.2864
     89  CB        86.7240   98.8480    9.9270 C.3   125  ASP125      0.1436
     90  CG        85.3470   98.4600   10.3690 C.2   125  ASP125      0.3671
     91  OD1       84.7830   97.5250    9.7580 O.co2 125  ASP125     -0.2456
     92  OD2       84.8440   99.0660   11.3440 O.co2 125  ASP125     -0.2456
     93  N         85.9560  108.9410   15.2090 N.3   154  LYS154     -0.1245
     94  CA        85.8460  107.6670   14.4470 C.3   154  LYS154      0.1561
     95  C         87.2230  107.0710   14.1840 C.2   154  LYS154      0.2260
     96  O         88.1840  107.7890   13.9710 O.2   154  LYS154     -0.2867
     97  CB        85.1440  107.8490   13.1110 C.3   154  LYS154      0.0271
     98  CG        83.6530  107.7430   13.1760 C.3   154  LYS154      0.0035
     99  CD        83.2210  106.3240   13.5180 C.3   154  LYS154      0.0206
    100  CE        81.7470  106.1150   13.1900 C.3   154  LYS154      0.1093
    101  NZ        80.8900  106.0870   14.4040 N.3   154  LYS154     -0.1314
    102  N         83.1710   88.7170   15.3270 N.3   275  THR275     -0.1203
    103  CA        82.8450   89.8960   14.5760 C.3   275  THR275      0.1994
    104  C         82.0580   89.6000   13.3240 C.2   275  THR275      0.2617
    105  O         82.5180   88.8880   12.4310 O.2   275  THR275     -0.2717
    106  CB        84.0700   90.7900   14.2880 C.3   275  THR275      0.1784
    107  OG1       84.7170   91.1070   15.5320 O.3   275  THR275     -0.2211
    108  CG2       83.6330   92.0750   13.6300 C.3   275  THR275      0.0376
    109  N         80.8600   90.1900   13.2850 N.am  276  GLN276     -0.1979
    110  CA        79.9060   90.0940   12.1850 C.3   276  GLN276      0.1601
    111  C         79.3560   88.7080   11.9040 C.2   276  GLN276      0.2287
    112  O         78.7630   88.4780   10.8390 O.2   276  GLN276     -0.2864
    113  CB        80.4640   90.7280   10.9050 C.3   276  GLN276      0.0394
    114  CG        80.6440   92.2260   10.9970 C.3   276  GLN276      0.0908
    115  CD        81.0450   92.8420    9.6870 C.2   276  GLN276      0.2608
    116  OE1       81.7700   92.2490    8.9080 O.2   276  GLN276     -0.2717
    117  NE2       80.4900   94.0290    9.3960 N.am  276  GLN276     -0.0878
    118  N         75.7720   89.6180   11.8750 N.3   279  ASP279     -0.1239
    119  CA        75.7260   91.0960   11.7940 C.3   279  ASP279      0.1674
    120  C         74.3070   91.6450   11.4750 C.2   279  ASP279      0.2266
    121  O         73.8840   92.6340   12.0520 O.2   279  ASP279     -0.2867
    122  CB        76.7060   91.5900   10.7070 C.3   279  ASP279      0.1410
    123  CG        76.8560   93.1160   10.6850 C.2   279  ASP279      0.3668
    124  OD1       77.4130   93.6610   11.6330 O.co2 279  ASP279     -0.2456
    125  OD2       76.3760   93.7600    9.7230 O.co2 279  ASP279     -0.2456
    126  N         71.5900   92.8490   13.9870 N.3   282  ILE282     -0.1245
    127  CA        71.5190   94.1800   14.5840 C.3   282  ILE282      0.1561
    128  C         70.1830   94.8450   14.2530 C.2   282  ILE282      0.2260
    129  O         69.6070   95.5480   15.1150 O.2   282  ILE282     -0.2867
    130  CB        72.7170   95.0760   14.1560 C.3   282  ILE282      0.0252
    131  CG1       73.9730   94.5770   14.8560 C.3   282  ILE282      0.0019
    132  CG2       72.4330   96.5580   14.4950 C.3   282  ILE282      0.0019
    133  CD1       75.2590   95.0410   14.2490 C.3   282  ILE282      0.0001
    134  N         79.1450   90.8190   18.8740 N.3   309  SER309     -0.1202
    135  CA        79.5010   92.1820   19.2450 C.3   309  SER309      0.2020
    136  C         78.2830   93.1020   19.2020 C.2   309  SER309      0.2619
    137  O         77.5370   93.1540   20.1660 O.2   309  SER309     -0.2717
    138  CB        80.6610   92.6950   18.3740 C.3   309  SER309      0.2103
    139  OG        81.7930   91.8340   18.5510 O.3   309  SER309     -0.2182
    140  N         78.0900   93.8580   18.1160 N.am  310  GLY310     -0.1942
    141  CA        76.9800   94.7580   18.0340 C.3   310  GLY310      0.2014
    142  C         75.6140   94.0700   18.0960 C.2   310  GLY310      0.2638
    143  O         74.6130   94.6740   18.5220 O.2   310  GLY310     -0.2714
    144  N         75.5680   92.8110   17.6960 N.am  311  GLU311     -0.1977
    145  CA        74.3410   92.0130   17.7640 C.3   311  GLU311      0.1602
    146  C         73.7310   92.0060   19.1650 C.2   311  GLU311      0.2287
    147  O         72.4880   91.9550   19.3090 O.2   311  GLU311     -0.2864
    148  CB        74.6050   90.5770   17.3020 C.3   311  GLU311      0.0415
    149  CG        75.1640   90.4800   15.8950 C.3   311  GLU311      0.1163
    150  CD        76.6830   90.2680   15.8580 C.2   311  GLU311      0.3649
    151  OE1       77.4070   90.9660   16.6060 O.co2 311  GLU311     -0.2457
    152  OE2       77.1520   89.3950   15.0860 O.co2 311  GLU311     -0.2457
    153  N         75.4300   94.1980   21.8250 N.3   313  SER313     -0.1202
    154  CA        75.7660   95.4440   22.5420 C.3   313  SER313      0.2020
    155  C         74.8720   96.6420   22.1480 C.2   313  SER313      0.2618
    156  O         74.5480   97.4670   23.0010 O.2   313  SER313     -0.2717
    157  CB        77.2480   95.7820   22.3520 C.3   313  SER313      0.2103
    158  OG        77.4890   96.2310   21.0130 O.3   313  SER313     -0.2182
    159  N         74.5020   96.7550   20.8570 N.am  314  VAL314     -0.1979
    160  CA        73.6810   97.8880   20.4010 C.3   314  VAL314      0.1595
    161  C         72.4350   97.4710   19.6080 C.2   314  VAL314      0.2287
    162  O         71.5620   98.3110   19.3310 O.2   314  VAL314     -0.2864
    163  CB        74.4800   98.9050   19.5740 C.3   314  VAL314      0.0276
    164  CG1       75.6010   99.5110   20.4230 C.3   314  VAL314      0.0022
    165  CG2       75.0360   98.2690   18.2960 C.3   314  VAL314      0.0022
@<TRIPOS>BOND
     1    88    87    2
     2    87    86    1
     3   116   115    2
     4    86    85    1
     5    86    89    1
     6   117   115   am
     7    80    79    2
     8   115   114    1
     9   125   123   ar
    10    91    90   ar
    11    85    79   am
    12    79    78    1
    13    77    78    1
    14    89    90    1
    15    81    78    1
    16    81    82    1
    17    83    82   ar
    18    90    92   ar
    19   123   122    1
    20   123   124   ar
    21   122   119    1
    22    82    84   ar
    23   112   111    2
    24   113   114    1
    25   113   110    1
    26   120   119    1
    27   120   121    2
    28   119   118    1
    29   111   110    1
    30   110   109    1
    31   105   104    2
    32    97    98    1
    33    97    94    1
    34    98    99    1
    35   100    99    1
    36   100   101    1
    37   109   104   am
    38   104   103    1
    39   108   106    1
    40    96    95    2
    41   126   127    1
    42   130   132    1
    43   130   127    1
    44   130   131    1
    45    95    94    1
    46   133   131    1
    47   128   127    1
    48   128   129    2
    49   106   103    1
    50   106   107    1
    51    94    93    1
    52   103   102    1
    53    68    69    2
    54    68    67    1
    55   152   150   ar
    56    67    66    1
    57    67    70    1
    58   150   149    1
    59   150   151   ar
    60   149   148    1
    61    70    71    1
    62   148   145    1
    63    71    72    1
    64   144   145    1
    65   144   142   am
    66   145   146    1
    67    76    74    1
    68   141   142    1
    69   141   140    1
    70   142   143    2
    71   140   136   am
    72   165   163    1
    73   138   139    1
    74   138   135    1
    75   134   135    1
    76    72    73    1
    77    74    73    2
    78    74    75    1
    79   146   147    2
    80   136   135    1
    81   136   137    2
    82   162   161    2
    83   163   160    1
    84   163   164    1
    85   161   160    1
    86   160   159    1
    87    60    61   ar
    88    60    58   ar
    89    61    59   ar
    90   159   155   am
    91   158   157    1
    92    36    35    1
    93    37    35    1
    94    58    57   ar
    95    59    57   ar
    96   153   154    1
    97    35    34    2
    98    45    43   am
    99    51    50    1
   100   155   154    1
   101   155   156    2
   102    50    47    1
   103   157   154    1
   104     6     5    1
   105    57    56    1
   106    34    33    1
   107     5     7    1
   108     5     2    1
   109    43    44    2
   110    43    42    1
   111    33    32    1
   112    49    48    2
   113    47    48    1
   114    47    46    1
   115     1     2    1
   116    48    52   am
   117    56    53    1
   118    42    39    1
   119     2     3    1
   120    25    24    1
   121    25    26    1
   122     4     3    2
   123    24    21    1
   124    26    20    1
   125    52    53    1
   126    32    31    1
   127     3     8   am
   128    53    54    1
   129    20    21    1
   130    20    18   am
   131    31    28    1
   132    22    21    1
   133    22    23    2
   134    39    40    1
   135    39    38    1
   136    11    10    2
   137    17    18    1
   138    17    16    1
   139    40    41    2
   140     8     9    1
   141    18    19    2
   142    10    16   am
   143    10     9    1
   144    54    62   am
   145    54    55    2
   146     9    12    1
   147    62    63    1
   148    30    29    2
   149    28    29    1
   150    28    27    1
   151    63    64    1
   152    12    13    1
   153    15    13    1
   154    13    14    1
   155    65    64    2
