@<TRIPOS>MOLECULE
tmp/5wscB00.pdb
 179 177 0 0 0
SMALL
GASTEIGER

@<TRIPOS>ATOM
      1  N        -19.7510  -18.8640  -17.3680 N.3   350  ARG350     -0.1245
      2  CA       -20.1210  -20.2420  -17.5140 C.3   350  ARG350      0.1563
      3  C        -20.6660  -20.8190  -16.2460 C.2   350  ARG350      0.2260
      4  O        -21.5460  -21.7050  -16.2750 O.2   350  ARG350     -0.2867
      5  CB       -18.9350  -21.0670  -18.0200 C.3   350  ARG350      0.0307
      6  CG       -18.8000  -21.0020  -19.5290 C.3   350  ARG350      0.0489
      7  CD       -17.5430  -21.7080  -19.9690 C.3   350  ARG350      0.2205
      8  NE       -16.3490  -20.9710  -19.5670 N.pl3 350  ARG350     -0.0865
      9  CZ       -15.1210  -21.3270  -19.9140 C.cat 350  ARG350      0.5346
     10  NH1      -14.9280  -22.3840  -20.6730 N.pl3 350  ARG350      0.1354
     11  NH2      -14.0870  -20.6320  -19.5130 N.pl3 350  ARG350      0.1354
     12  N        -23.8790  -28.0180  -23.8780 N.3   372  PHE372     -0.1227
     13  CA       -22.8740  -28.1620  -24.9310 C.3   372  PHE372      0.1736
     14  C        -21.5390  -27.7260  -24.4010 C.2   372  PHE372      0.2596
     15  O        -21.4490  -26.6720  -23.8300 O.2   372  PHE372     -0.2718
     16  CB       -23.2510  -27.3600  -26.1870 C.3   372  PHE372      0.0547
     17  CG       -24.1910  -28.0920  -27.0980 C.ar  372  PHE372     -0.0202
     18  CD1      -25.5400  -28.1390  -26.8200 C.ar  372  PHE372     -0.0042
     19  CD2      -23.7160  -28.7480  -28.2220 C.ar  372  PHE372     -0.0042
     20  CE1      -26.4170  -28.8240  -27.6500 C.ar  372  PHE372     -0.0003
     21  CE2      -24.5640  -29.4550  -29.0330 C.ar  372  PHE372     -0.0003
     22  CZ       -25.9310  -29.4900  -28.7380 C.ar  372  PHE372     -0.0000
     23  N        -20.5060  -28.5410  -24.6080 N.am  373  THR373     -0.1939
     24  CA       -19.1830  -28.2150  -24.1250 C.3   373  THR373      0.2028
     25  C        -18.0470  -28.7210  -25.0450 C.2   373  THR373      0.2642
     26  O        -18.0420  -29.8440  -25.5480 O.2   373  THR373     -0.2714
     27  CB       -18.9600  -28.7400  -22.7040 C.3   373  THR373      0.1808
     28  OG1      -17.7990  -28.1120  -22.1420 O.3   373  THR373     -0.2208
     29  CG2      -18.7850  -30.2580  -22.7420 C.3   373  THR373      0.0379
     30  N        -17.0760  -27.8580  -25.2270 N.am  374  GLN374     -0.1963
     31  CA       -15.9800  -28.0800  -26.1130 C.3   374  GLN374      0.1733
     32  C        -14.7110  -28.5000  -25.3570 C.2   374  GLN374      0.2617
     33  O        -13.9090  -29.2650  -25.8620 O.2   374  GLN374     -0.2715
     34  CB       -15.7140  -26.7820  -26.8130 C.3   374  GLN374      0.0408
     35  CG       -14.5600  -26.8100  -27.7570 C.3   374  GLN374      0.0908
     36  CD       -14.7750  -25.8270  -28.8570 C.2   374  GLN374      0.2608
     37  OE1      -15.9210  -25.5240  -29.1940 O.2   374  GLN374     -0.2717
     38  NE2      -13.6790  -25.3250  -29.4570 N.am  374  GLN374     -0.0878
     39  N        -14.5470  -27.9670  -24.1580 N.am  375  SER375     -0.1936
     40  CA       -13.4590  -28.3630  -23.2660 C.3   375  SER375      0.2055
     41  C        -13.9870  -29.1070  -22.0410 C.2   375  SER375      0.2644
     42  O        -13.2010  -29.6200  -21.2620 O.2   375  SER375     -0.2714
     43  CB       -12.7070  -27.1120  -22.7730 C.3   375  SER375      0.2130
     44  OG       -13.4770  -26.4590  -21.7880 O.3   375  SER375     -0.2179
     45  N        -15.3040  -29.1040  -21.8360 N.am  376  GLY376     -0.1939
     46  CA       -15.9140  -29.7210  -20.6430 C.3   376  GLY376      0.2014
     47  C        -16.2720  -28.7360  -19.5220 C.2   376  GLY376      0.2639
     48  O        -17.0080  -29.0830  -18.5850 O.2   376  GLY376     -0.2714
     49  N        -15.7520  -27.5140  -19.6080 N.am  377  ASP377     -0.1957
     50  CA       -15.8260  -26.5650  -18.4840 C.3   377  ASP377      0.1840
     51  C        -17.2570  -26.2690  -18.1060 C.2   377  ASP377      0.2622
     52  O        -17.6530  -26.4380  -16.9590 O.2   377  ASP377     -0.2715
     53  CB       -15.0830  -25.2720  -18.8360 C.3   377  ASP377      0.1450
     54  CG       -15.1720  -24.2500  -17.7490 C.2   377  ASP377      0.3671
     55  OD1      -16.2130  -23.5590  -17.6940 O.co2 377  ASP377     -0.2456
     56  OD2      -14.2160  -24.1620  -16.9160 O.co2 377  ASP377     -0.2456
     57  N        -18.0490  -25.8690  -19.0870 N.am  378  THR378     -0.1951
     58  CA       -19.4560  -25.4940  -18.8460 C.3   378  THR378      0.1897
     59  C        -20.1880  -26.6220  -18.1260 C.2   378  THR378      0.2313
     60  O        -20.9590  -26.3670  -17.2070 O.2   378  THR378     -0.2863
     61  CB       -20.1840  -25.1460  -20.1770 C.3   378  THR378      0.1794
     62  OG1      -19.5920  -23.9920  -20.7580 O.3   378  THR378     -0.2208
     63  CG2      -21.6010  -24.8350  -19.9330 C.3   378  THR378      0.0378
     64  N        -20.9950  -32.8070  -27.0840 N.3   395  THR395     -0.1203
     65  CA       -19.7320  -32.3020  -27.5680 C.3   395  THR395      0.1994
     66  C        -19.4730  -32.8550  -28.9580 C.2   395  THR395      0.2618
     67  O        -20.0960  -33.8580  -29.3610 O.2   395  THR395     -0.2717
     68  CB       -18.5990  -32.6900  -26.5940 C.3   395  THR395      0.1784
     69  OG1      -17.4070  -31.9750  -26.9080 O.3   395  THR395     -0.2211
     70  CG2      -18.3160  -34.1820  -26.6520 C.3   395  THR395      0.0376
     71  N        -18.5890  -32.2010  -29.7090 N.am  396  ALA396     -0.1965
     72  CA       -18.0770  -32.7720  -30.9730 C.3   396  ALA396      0.1728
     73  C        -16.6950  -33.3800  -30.8300 C.2   396  ALA396      0.2616
     74  O        -16.1820  -33.9790  -31.7940 O.2   396  ALA396     -0.2715
     75  CB       -18.0250  -31.7370  -32.0730 C.3   396  ALA396      0.0334
     76  N        -16.0930  -33.2520  -29.6450 N.am  397  TRP397     -0.1974
     77  CA       -14.7570  -33.7880  -29.4150 C.3   397  TRP397      0.1640
     78  C        -14.8390  -35.0400  -28.5370 C.2   397  TRP397      0.2290
     79  O        -15.1540  -34.9710  -27.3310 O.2   397  TRP397     -0.2864
     80  CB       -13.8430  -32.6950  -28.8510 C.3   397  TRP397      0.0576
     81  CG       -13.7520  -31.5540  -29.8310 C.ar  397  TRP397      0.0006
     82  CD1      -12.7830  -31.3650  -30.8070 C.ar  397  TRP397      0.0946
     83  CD2      -14.7090  -30.4980  -30.0110 C.ar  397  TRP397      0.0152
     84  NE1      -13.0830  -30.2400  -31.5510 N.ar  397  TRP397     -0.2442
     85  CE2      -14.2550  -29.6930  -31.0820 C.ar  397  TRP397      0.0810
     86  CE3      -15.9220  -30.1750  -29.3960 C.ar  397  TRP397      0.0012
     87  CZ2      -14.9740  -28.5800  -31.5400 C.ar  397  TRP397      0.0191
     88  CZ3      -16.6280  -29.0430  -29.8350 C.ar  397  TRP397      0.0001
     89  CH2      -16.1440  -28.2540  -30.8840 C.ar  397  TRP397      0.0015
     90  N        -21.7050  -35.4170  -31.1560 N.3   415  VAL415     -0.1231
     91  CA       -22.4720  -35.0350  -32.3360 C.3   415  VAL415      0.1678
     92  C        -21.5340  -34.2380  -33.2570 C.2   415  VAL415      0.2434
     93  O        -20.4410  -33.8430  -32.8320 O.2   415  VAL415     -0.2733
     94  CB       -23.6730  -34.1340  -31.9540 C.3   415  VAL415      0.0265
     95  CG1      -24.6410  -34.8840  -31.0630 C.3   415  VAL415      0.0020
     96  CG2      -23.1940  -32.8630  -31.2250 C.3   415  VAL415      0.0020
     97  N        -21.9560  -33.9920  -34.5080 N.am  416  PRO416     -0.2718
     98  CA       -21.1810  -33.1790  -35.4120 C.3   416  PRO416      0.1535
     99  C        -20.9030  -31.8000  -34.8800 C.2   416  PRO416      0.2598
    100  O        -21.6630  -31.2710  -34.0400 O.2   416  PRO416     -0.2715
    101  CB       -22.0830  -33.0970  -36.6350 C.3   416  PRO416      0.0310
    102  CG       -22.7940  -34.4180  -36.6550 C.3   416  PRO416      0.0237
    103  CD       -23.1080  -34.6210  -35.1960 C.3   416  PRO416      0.0939
    104  N        -19.8050  -31.2210  -35.3230 N.am  417  LYS417     -0.1964
    105  CA       -19.5450  -29.8070  -35.0260 C.3   417  LYS417      0.1728
    106  C        -20.4970  -28.9660  -35.8640 C.2   417  LYS417      0.2616
    107  O        -20.4410  -29.0200  -37.0500 O.2   417  LYS417     -0.2715
    108  CB       -18.0910  -29.4070  -35.3110 C.3   417  LYS417      0.0311
    109  CG       -17.8030  -27.9820  -34.8470 C.3   417  LYS417      0.0038
    110  CD       -16.3310  -27.6210  -34.9480 C.3   417  LYS417      0.0206
    111  CE       -16.0770  -26.4860  -35.9170 C.3   417  LYS417      0.1093
    112  NZ       -15.1400  -25.5020  -35.3160 N.3   417  LYS417     -0.1314
    113  N        -21.3670  -28.2070  -35.2080 N.am  418  MET418     -0.1977
    114  CA       -22.4490  -27.4810  -35.8800 C.3   418  MET418      0.1605
    115  C        -22.0750  -26.0120  -36.0150 C.2   418  MET418      0.2287
    116  O        -21.2280  -25.4770  -35.2530 O.2   418  MET418     -0.2864
    117  CB       -23.7340  -27.5460  -35.0450 C.3   418  MET418      0.0413
    118  CG       -24.1110  -28.9250  -34.5380 C.3   418  MET418      0.0598
    119  SD       -24.3760  -30.0870  -35.8620 S.3   418  MET418     -0.1393
    120  CE       -25.7310  -29.2950  -36.7690 C.3   418  MET418      0.0692
    121  N        -27.4720  -27.0540  -33.0110 N.3   424  MET424     -0.1245
    122  CA       -27.1450  -27.7640  -31.7660 C.3   424  MET424      0.1570
    123  C        -28.4120  -28.3640  -31.1620 C.2   424  MET424      0.2261
    124  O        -28.4340  -29.5420  -30.7540 O.2   424  MET424     -0.2867
    125  CB       -26.4530  -26.8210  -30.7980 C.3   424  MET424      0.0387
    126  CG       -25.0740  -26.3610  -31.2800 C.3   424  MET424      0.0595
    127  SD       -24.2680  -25.3040  -30.0670 S.3   424  MET424     -0.1393
    128  CE       -23.4050  -24.1010  -31.0060 C.3   424  MET424      0.0692
    129  N        -26.0570  -23.5070  -24.4020 N.3   448  ALA448     -0.1231
    130  CA       -25.1530  -23.5190  -25.5160 C.3   448  ALA448      0.1694
    131  C        -24.5640  -22.1600  -25.6820 C.2   448  ALA448      0.2592
    132  O        -24.7580  -21.3050  -24.8170 O.2   448  ALA448     -0.2718
    133  CB       -25.8660  -23.9520  -26.7720 C.3   448  ALA448      0.0304
    134  N        -23.8690  -21.9260  -26.7960 N.am  449  GLY449     -0.1957
    135  CA       -23.0240  -20.7350  -26.9100 C.3   449  GLY449      0.1869
    136  C        -22.6430  -20.4250  -28.3270 C.2   449  GLY449      0.2309
    137  O        -22.4680  -21.3240  -29.1280 O.2   449  GLY449     -0.2863
    138  N        -20.2300  -20.5190  -32.3930 N.3   452  PRO452     -0.2102
    139  CA       -20.1850  -21.9650  -32.2090 C.3   452  PRO452      0.1504
    140  C        -18.8230  -22.5120  -32.3800 C.2   452  PRO452      0.2576
    141  O        -18.0320  -21.9550  -33.1290 O.2   452  PRO452     -0.2718
    142  CB       -21.0990  -22.4950  -33.3150 C.3   452  PRO452      0.0282
    143  CG       -21.9500  -21.3460  -33.6890 C.3   452  PRO452      0.0208
    144  CD       -21.0690  -20.1400  -33.5320 C.3   452  PRO452      0.0893
    145  N        -18.5250  -23.6070  -31.6880 N.am  453  GLY453     -0.1943
    146  CA       -17.1860  -24.1510  -31.7370 C.3   453  GLY453      0.2014
    147  C        -16.1070  -23.2200  -31.2020 C.2   453  GLY453      0.2640
    148  O        -14.9900  -23.3240  -31.6110 O.2   453  GLY453     -0.2714
    149  N        -16.4210  -22.3520  -30.2470 N.am  454  THR454     -0.1936
    150  CA       -15.4170  -21.4840  -29.5900 C.3   454  THR454      0.2028
    151  C        -15.4490  -21.7140  -28.0590 C.2   454  THR454      0.2642
    152  O        -16.4930  -21.5560  -27.4220 O.2   454  THR454     -0.2714
    153  CB       -15.7040  -19.9880  -29.9230 C.3   454  THR454      0.1808
    154  OG1      -15.6980  -19.8050  -31.3540 O.3   454  THR454     -0.2208
    155  CG2      -14.6540  -19.0200  -29.2770 C.3   454  THR454      0.0379
    156  N        -14.3300  -22.1080  -27.4520 N.am  455  VAL455     -0.1963
    157  CA       -14.3710  -22.4370  -26.0320 C.3   455  VAL455      0.1727
    158  C        -14.7900  -21.1940  -25.2290 C.2   455  VAL455      0.2617
    159  O        -14.4040  -20.0500  -25.5440 O.2   455  VAL455     -0.2715
    160  CB       -13.0450  -22.9870  -25.4820 C.3   455  VAL455      0.0290
    161  CG1      -12.7420  -24.3330  -26.0970 C.3   455  VAL455      0.0023
    162  CG2      -11.9130  -21.9830  -25.6710 C.3   455  VAL455      0.0023
    163  N        -15.6490  -21.4190  -24.2510 N.am  456  GLY456     -0.1940
    164  CA       -16.0980  -20.3640  -23.3430 C.3   456  GLY456      0.2014
    165  C        -17.1000  -19.3840  -23.8910 C.2   456  GLY456      0.2640
    166  O        -17.2980  -18.3270  -23.3080 O.2   456  GLY456     -0.2714
    167  N        -17.7410  -19.7220  -25.0000 N.am  457  SER457     -0.1935
    168  CA       -18.6590  -18.7940  -25.6330 C.3   457  SER457      0.2055
    169  C        -20.0500  -19.0070  -25.0610 C.2   457  SER457      0.2643
    170  O        -20.9920  -18.2660  -25.3930 O.2   457  SER457     -0.2714
    171  CB       -18.6730  -18.9870  -27.1510 C.3   457  SER457      0.2130
    172  OG       -19.1080  -20.2950  -27.4700 O.3   457  SER457     -0.2179
    173  N        -20.1850  -20.0060  -24.1870 N.am  458  THR458     -0.1950
    174  CA       -21.4630  -20.3030  -23.5570 C.3   458  THR458      0.1897
    175  C        -22.2470  -19.0330  -23.2320 C.2   458  THR458      0.2313
    176  O        -21.7740  -18.1870  -22.4540 O.2   458  THR458     -0.2863
    177  CB       -21.2430  -21.1160  -22.3090 C.3   458  THR458      0.1794
    178  OG1      -20.5780  -22.3520  -22.6650 O.3   458  THR458     -0.2208
    179  CG2      -22.5560  -21.4340  -21.6420 C.3   458  THR458      0.0378
@<TRIPOS>BOND
     1   107   106    2
     2   120   119    1
     3   102   101    1
     4   102   103    1
     5   101    98    1
     6   115   114    1
     7   115   116    2
     8   111   112    1
     9   111   110    1
    10   114   113    1
    11   114   117    1
    12   106   113   am
    13   106   105    1
    14   119   118    1
    15    98    99    1
    16    98    97    1
    17   104   105    1
    18   104    99   am
    19   108   105    1
    20   108   109    1
    21   103    97    1
    22   117   118    1
    23   110   109    1
    24    99   100    2
    25    97    92   am
    26   143   144    1
    27   143   142    1
    28   144   138    1
    29   142   139    1
    30    92    93    2
    31    92    91    1
    32   141   140    2
    33   121   122    1
    34   138   139    1
    35   140   139    1
    36   140   145   am
    37    91    94    1
    38    91    90    1
    39    75    72    1
    40    94    96    1
    41    94    95    1
    42    74    73    2
    43   122   123    1
    44   122   125    1
    45   146   145    1
    46   146   147    1
    47   148   147    2
    48    84    85   ar
    49    84    82   ar
    50    87    85   ar
    51    87    89   ar
    52   154   153    1
    53   126   125    1
    54   126   127    1
    55   147   149   am
    56   123   124    2
    57    85    83   ar
    58   128   127    1
    59    72    73    1
    60    72    71    1
    61    89    88   ar
    62    73    76   am
    63    82    81   ar
    64   149   150    1
    65    83    81   ar
    66    83    86   ar
    67   153   150    1
    68   153   155    1
    69    88    86   ar
    70    81    80    1
    71    71    66   am
    72    76    77    1
    73   150   151    1
    74    38    36   am
    75    77    80    1
    76    77    78    1
    77    67    66    2
    78    37    36    2
    79   137   136    2
    80    21    22   ar
    81    21    19   ar
    82    66    65    1
    83    36    35    1
    84    22    20   ar
    85    78    79    2
    86   136   135    1
    87    19    17   ar
    88   151   156   am
    89   151   152    2
    90    35    34    1
    91    20    18   ar
    92    65    64    1
    93    65    68    1
    94   172   171    1
    95   156   157    1
    96   171   168    1
    97    17    18   ar
    98    17    16    1
    99   135   134    1
   100    69    68    1
   101    34    31    1
   102   134   131   am
   103   133   130    1
   104    70    68    1
   105    16    13    1
   106    31    32    1
   107    31    30    1
   108   161   160    1
   109   157   160    1
   110   157   158    1
   111    33    32    2
   112   131   130    1
   113   131   132    2
   114   162   160    1
   115   168   169    1
   116   168   167    1
   117    26    25    2
   118   159   158    2
   119   130   129    1
   120   170   169    2
   121    32    39   am
   122   158   163   am
   123    30    25   am
   124   169   173   am
   125    25    24    1
   126   167   165   am
   127    13    14    1
   128    13    12    1
   129    23    14   am
   130    23    24    1
   131    14    15    2
   132   163   164    1
   133   173   174    1
   134    39    40    1
   135    24    27    1
   136   165   164    1
   137   165   166    2
   138   174   175    1
   139   174   177    1
   140    40    43    1
   141    40    41    1
   142   175   176    2
   143    43    44    1
   144    29    27    1
   145    27    28    1
   146   178   177    1
   147   177   179    1
   148    41    45   am
   149    41    42    2
   150    45    46    1
   151    62    61    1
   152    10     9    1
   153    46    47    1
   154    61    63    1
   155    61    58    1
   156     7     8    1
   157     7     6    1
   158     9     8    2
   159     9    11    1
   160    49    47   am
   161    49    50    1
   162     6     5    1
   163    47    48    2
   164    57    58    1
   165    57    51   am
   166    58    59    1
   167    53    50    1
   168    53    54    1
   169    50    51    1
   170    59    60    2
   171    51    52    2
   172     5     2    1
   173    54    55   ar
   174    54    56   ar
   175     2     1    1
   176     2     3    1
   177     4     3    2
