@<TRIPOS>MOLECULE
tmp/5wscB01.pdb
 95 89 0 0 0
SMALL
GASTEIGER

@<TRIPOS>ATOM
      1  N         -6.0250  -24.9230   -8.9390 N.3   232  LEU232     -0.1245
      2  CA        -6.1810  -23.9600  -10.0500 C.3   232  LEU232      0.1561
      3  C         -5.2270  -24.2520  -11.2050 C.2   232  LEU232      0.2260
      4  O         -5.5730  -24.0350  -12.3870 O.2   232  LEU232     -0.2867
      5  CB        -5.9640  -22.5170   -9.5700 C.3   232  LEU232      0.0270
      6  CG        -7.0940  -21.9020   -8.7360 C.3   232  LEU232      0.0019
      7  CD1       -6.5910  -20.7190   -7.9120 C.3   232  LEU232      0.0001
      8  CD2       -8.2320  -21.4850   -9.6430 C.3   232  LEU232      0.0001
      9  N        -15.3680  -25.8890   -5.6800 N.3   266  GLU266     -0.1231
     10  CA       -15.4780  -24.4190   -5.6970 C.3   266  GLU266      0.1699
     11  C        -14.9340  -23.9130   -7.0370 C.2   266  GLU266      0.2592
     12  O        -15.4340  -22.9280   -7.5950 O.2   266  GLU266     -0.2718
     13  CB       -14.6890  -23.7580   -4.5640 C.3   266  GLU266      0.0402
     14  CG       -15.2260  -23.9510   -3.1250 C.3   266  GLU266      0.1161
     15  CD       -16.4220  -23.0930   -2.7740 C.2   266  GLU266      0.3649
     16  OE1      -17.0510  -23.3910   -1.7410 O.co2 266  GLU266     -0.2457
     17  OE2      -16.7370  -22.1200   -3.5110 O.co2 266  GLU266     -0.2457
     18  N        -13.9060  -24.5860   -7.5490 N.am  267  ASN267     -0.1974
     19  CA       -13.2470  -24.1510   -8.7710 C.3   267  ASN267      0.1688
     20  C        -13.5710  -25.0610   -9.9710 C.2   267  ASN267      0.2292
     21  O        -12.9170  -24.9710  -11.0220 O.2   267  ASN267     -0.2864
     22  CB       -11.7460  -24.0910   -8.5570 C.3   267  ASN267      0.1181
     23  CG       -11.3350  -23.0720   -7.5210 C.2   267  ASN267      0.2629
     24  OD1      -11.4170  -21.8680   -7.7370 O.2   267  ASN267     -0.2716
     25  ND2      -10.8590  -23.5480   -6.4120 N.am  267  ASN267     -0.0877
     26  N        -13.3170  -28.3780  -10.6780 N.3   269  LYS269     -0.1245
     27  CA       -12.3380  -29.3500  -11.1130 C.3   269  LYS269      0.1561
     28  C        -12.7610  -30.6640  -10.5280 C.2   269  LYS269      0.2260
     29  O        -13.1700  -30.7290   -9.3740 O.2   269  LYS269     -0.2867
     30  CB       -10.9440  -29.0010  -10.5800 C.3   269  LYS269      0.0271
     31  CG       -10.4700  -27.5870  -10.8960 C.3   269  LYS269      0.0035
     32  CD       -10.4890  -27.2840  -12.3840 C.3   269  LYS269      0.0206
     33  CE        -9.8710  -25.9480  -12.7080 C.3   269  LYS269      0.1093
     34  NZ        -8.4380  -25.9860  -12.3530 N.3   269  LYS269     -0.1314
     35  N        -19.2980  -19.4290   -2.3790 N.3   344  HIS344     -0.1241
     36  CA       -19.5130  -18.1980   -3.1430 C.3   344  HIS344      0.1621
     37  C        -20.6090  -18.3240   -4.1830 C.2   344  HIS344      0.2264
     38  O        -20.9530  -19.4300   -4.6190 O.2   344  HIS344     -0.2867
     39  CB       -18.2220  -17.7700   -3.8410 C.3   344  HIS344      0.0745
     40  CG       -17.7740  -18.7190   -4.9190 C.ar  344  HIS344      0.0817
     41  ND1      -16.9780  -19.8090   -4.6570 N.ar  344  HIS344     -0.2268
     42  CD2      -18.0240  -18.7450   -6.2500 C.ar  344  HIS344      0.1154
     43  CE1      -16.7400  -20.4570   -5.7860 C.ar  344  HIS344      0.1986
     44  NE2      -17.3610  -19.8290   -6.7630 N.ar  344  HIS344     -0.2212
     45  N        -21.4320  -17.9140   -7.9450 N.3   346  PRO346     -0.2102
     46  CA       -20.5670  -17.9780   -9.1470 C.3   346  PRO346      0.1504
     47  C        -20.4240  -16.6150   -9.8540 C.2   346  PRO346      0.2576
     48  O        -21.3930  -15.8170   -9.9110 O.2   346  PRO346     -0.2718
     49  CB       -21.2570  -18.9980  -10.0380 C.3   346  PRO346      0.0282
     50  CG       -22.1650  -19.7910   -9.1280 C.3   346  PRO346      0.0208
     51  CD       -22.4930  -18.9370   -7.9460 C.3   346  PRO346      0.0893
     52  N        -19.2340  -16.3510  -10.3700 N.am  347  ARG347     -0.1966
     53  CA       -18.9050  -15.0450  -10.9990 C.3   347  ARG347      0.1729
     54  C        -18.5480  -15.1360  -12.4960 C.2   347  ARG347      0.2616
     55  O        -18.7010  -14.1500  -13.2280 O.2   347  ARG347     -0.2715
     56  CB       -17.7420  -14.3840  -10.2530 C.3   347  ARG347      0.0348
     57  CG       -17.4700  -12.9500  -10.7100 C.3   347  ARG347      0.0492
     58  CD       -18.6970  -12.0290  -10.5250 C.3   347  ARG347      0.2205
     59  NE       -19.1240  -11.9240   -9.1160 N.pl3 347  ARG347     -0.0865
     60  CZ       -20.1100  -12.6140   -8.5300 C.cat 347  ARG347      0.5346
     61  NH1      -20.8650  -13.4740   -9.2000 N.pl3 347  ARG347      0.1354
     62  NH2      -20.3500  -12.4000   -7.2370 N.pl3 347  ARG347      0.1354
     63  N        -18.0410  -16.2940  -12.9340 N.am  348  THR348     -0.1951
     64  CA       -17.7640  -16.5110  -14.3480 C.3   348  THR348      0.1897
     65  C        -19.0500  -16.7450  -15.1020 C.2   348  THR348      0.2313
     66  O        -20.0170  -17.3370  -14.5860 O.2   348  THR348     -0.2863
     67  CB       -16.8810  -17.7460  -14.6180 C.3   348  THR348      0.1794
     68  OG1      -17.6270  -18.9690  -14.3830 O.3   348  THR348     -0.2208
     69  CG2      -15.6080  -17.6700  -13.8080 C.3   348  THR348      0.0378
     70  N        -20.1530  -20.3150  -15.1260 N.3   351  GLY351     -0.1225
     71  CA       -20.6300  -20.7120  -13.8330 C.3   351  GLY351      0.1811
     72  C        -21.9970  -20.1260  -13.5360 C.2   351  GLY351      0.2280
     73  O        -22.8750  -20.8140  -12.9800 O.2   351  GLY351     -0.2866
     74  N        -19.1140  -27.0400  -14.3380 N.3   381  ARG381     -0.1245
     75  CA       -19.6650  -26.0360  -13.4660 C.3   381  ARG381      0.1563
     76  C        -21.0860  -26.3390  -13.0980 C.2   381  ARG381      0.2260
     77  O        -21.5770  -25.8570  -12.0550 O.2   381  ARG381     -0.2867
     78  CB       -19.5770  -24.6590  -14.1020 C.3   381  ARG381      0.0307
     79  CG       -18.1650  -24.3080  -14.4280 C.3   381  ARG381      0.0489
     80  CD       -17.9360  -22.8240  -14.5740 C.3   381  ARG381      0.2205
     81  NE       -16.5640  -22.6940  -14.9760 N.pl3 381  ARG381     -0.0865
     82  CZ       -15.5570  -22.4380  -14.1580 C.cat 381  ARG381      0.5346
     83  NH1      -15.7840  -22.1590  -12.8920 N.pl3 381  ARG381      0.1354
     84  NH2      -14.3170  -22.3980  -14.6470 N.pl3 381  ARG381      0.1354
     85  N        -20.8500  -29.8660  -10.5750 N.3   384  ARG384     -0.1245
     86  CA       -20.4200  -29.6220   -9.2040 C.3   384  ARG384      0.1563
     87  C        -21.5760  -29.2390   -8.3040 C.2   384  ARG384      0.2260
     88  O        -21.4660  -29.3280   -7.0740 O.2   384  ARG384     -0.2867
     89  CB       -19.3940  -28.4980   -9.1460 C.3   384  ARG384      0.0307
     90  CG       -19.9890  -27.1230   -9.3850 C.3   384  ARG384      0.0489
     91  CD       -18.9220  -26.0860   -9.6260 C.3   384  ARG384      0.2205
     92  NE       -19.4970  -24.8460  -10.1560 N.pl3 384  ARG384     -0.0865
     93  CZ       -18.9330  -23.6320  -10.0530 C.cat 384  ARG384      0.5346
     94  NH1      -17.7870  -23.4600   -9.4010 N.pl3 384  ARG384      0.1354
     95  NH2      -19.5420  -22.5550  -10.5830 N.pl3 384  ARG384      0.1354
@<TRIPOS>BOND
     1    70    71    1
     2    65    66    2
     3    65    64    1
     4    81    80    1
     5    81    82    2
     6    84    82    1
     7    67    68    1
     8    67    64    1
     9    67    69    1
    10    80    79    1
    11    79    78    1
    12    64    63    1
    13    74    75    1
    14    82    83    1
    15    78    75    1
    16    71    72    1
    17    72    73    2
    18    75    76    1
    19    55    54    2
    20    76    77    2
    21    63    54   am
    22    33    32    1
    23    33    34    1
    24    54    53    1
    25     4     3    2
    26    32    31    1
    27     3     2    1
    28    27    26    1
    29    27    30    1
    30    27    28    1
    31    21    20    2
    32    53    52    1
    33    53    56    1
    34    31    30    1
    35    57    58    1
    36    57    56    1
    37    95    93    1
    38    85    86    1
    39    28    29    2
    40    58    59    1
    41    52    47   am
    42    92    93    2
    43    92    91    1
    44    93    94    1
    45     2     5    1
    46     2     1    1
    47    49    46    1
    48    49    50    1
    49    20    19    1
    50    48    47    2
    51    47    46    1
    52     8     6    1
    53    91    90    1
    54     5     6    1
    55    90    89    1
    56    86    89    1
    57    86    87    1
    58    61    60    1
    59    46    45    1
    60    50    51    1
    61    59    60    2
    62    19    22    1
    63    19    18    1
    64     6     7    1
    65    22    23    1
    66    60    62    1
    67    87    88    2
    68    51    45    1
    69    24    23    2
    70    12    11    2
    71    18    11   am
    72    23    25   am
    73    11    10    1
    74    44    42   ar
    75    44    43   ar
    76    42    40   ar
    77    43    41   ar
    78    10     9    1
    79    10    13    1
    80    40    41   ar
    81    40    39    1
    82    38    37    2
    83    13    14    1
    84    37    36    1
    85    39    36    1
    86    17    15   ar
    87    36    35    1
    88    14    15    1
    89    15    16   ar
