@<TRIPOS>MOLECULE
tmp/5wshB00.pdb
 90 91 0 0 0
SMALL
GASTEIGER

@<TRIPOS>ATOM
      1  N        -37.1360   -1.1810  -14.7400 N.3     9  GLN9       -0.1231
      2  CA       -37.5460   -2.5670  -14.5300 C.3     9  GLN9        0.1698
      3  C        -38.3570   -2.6780  -13.2410 C.2     9  GLN9        0.2592
      4  O        -37.9300   -2.1980  -12.1820 O.2     9  GLN9       -0.2718
      5  CB       -36.3370   -3.5050  -14.4700 C.3     9  GLN9        0.0381
      6  CG       -35.5740   -3.6470  -15.7710 C.3     9  GLN9        0.0905
      7  CD       -34.6300   -4.8350  -15.7430 C.2     9  GLN9        0.2608
      8  OE1      -35.0670   -5.9840  -15.7110 O.2     9  GLN9       -0.2717
      9  NE2      -33.3330   -4.5630  -15.7380 N.am    9  GLN9       -0.0878
     10  N        -39.5250   -3.3030  -13.3340 N.am   10  VAL10      -0.1966
     11  CA       -40.3890   -3.5170  -12.1730 C.3    10  VAL10       0.1727
     12  C        -40.5390   -5.0090  -11.9070 C.2    10  VAL10       0.2616
     13  O        -40.9220   -5.7650  -12.8020 O.2    10  VAL10      -0.2715
     14  CB       -41.7890   -2.9030  -12.3810 C.3    10  VAL10       0.0290
     15  CG1      -42.6190   -3.0500  -11.1210 C.3    10  VAL10       0.0023
     16  CG2      -41.6720   -1.4450  -12.7820 C.3    10  VAL10       0.0023
     17  N        -40.2570   -5.4300  -10.6750 N.am   11  TYR11      -0.1960
     18  CA       -40.1460   -6.8570  -10.3770 C.3    11  TYR11       0.1771
     19  C        -40.1320   -7.1290   -8.8760 C.2    11  TYR11       0.2620
     20  O        -39.8680   -6.2340   -8.0740 O.2    11  TYR11      -0.2715
     21  CB       -38.8770   -7.4390  -11.0210 C.3    11  TYR11       0.0574
     22  CG       -37.5900   -6.7580  -10.5910 C.ar   11  TYR11      -0.0198
     23  CD1      -37.2180   -5.5200  -11.1140 C.ar   11  TYR11      -0.0009
     24  CD2      -36.7490   -7.3560   -9.6640 C.ar   11  TYR11      -0.0009
     25  CE1      -36.0440   -4.8970  -10.7180 C.ar   11  TYR11       0.0417
     26  CE2      -35.5780   -6.7380   -9.2590 C.ar   11  TYR11       0.0417
     27  CZ       -35.2310   -5.5110   -9.7880 C.ar   11  TYR11       0.1957
     28  OH       -34.0550   -4.9160   -9.3840 O.3    11  TYR11      -0.2866
     29  N        -40.4220   -8.3690   -8.5020 N.am   12  SER12      -0.1950
     30  CA       -40.3510   -8.7630   -7.1060 C.3    12  SER12       0.1924
     31  C        -39.0030   -9.4040   -6.8310 C.2    12  SER12       0.2314
     32  O        -38.3830   -9.9730   -7.7290 O.2    12  SER12      -0.2863
     33  CB       -41.4890   -9.7220   -6.7410 C.3    12  SER12       0.2116
     34  OG       -41.4900  -10.8450   -7.6020 O.3    12  SER12      -0.2180
     35  N        -39.8270  -14.9140   -6.5900 N.3    15  PRO15      -0.2116
     36  CA       -41.0030  -15.3690   -7.3380 C.3    15  PRO15       0.1372
     37  C        -42.2510  -15.1890   -6.4900 C.2    15  PRO15       0.2244
     38  O        -42.2600  -15.5850   -5.3240 O.2    15  PRO15      -0.2868
     39  CB       -40.7040  -16.8490   -7.5970 C.3    15  PRO15       0.0268
     40  CG       -39.2120  -16.9060   -7.6620 C.3    15  PRO15       0.0207
     41  CD       -38.7190  -15.8870   -6.6590 C.3    15  PRO15       0.0892
     42  N        -46.1390   -3.7740  -12.9370 N.3    96  TRP96      -0.1227
     43  CA       -45.5100   -5.0250  -12.5440 C.3    96  TRP96       0.1737
     44  C        -46.2020   -6.1820  -13.2470 C.2    96  TRP96       0.2595
     45  O        -47.4100   -6.3780  -13.1200 O.2    96  TRP96      -0.2718
     46  CB       -45.5590   -5.2120  -11.0250 C.3    96  TRP96       0.0564
     47  CG       -44.9960   -6.5240  -10.5530 C.ar   96  TRP96       0.0003
     48  CD1      -43.7970   -7.0820  -10.9040 C.ar   96  TRP96       0.0946
     49  CD2      -45.5990   -7.4250   -9.6180 C.ar   96  TRP96       0.0152
     50  NE1      -43.6270   -8.2840  -10.2510 N.ar   96  TRP96      -0.2442
     51  CE2      -44.7170   -8.5140   -9.4550 C.ar   96  TRP96       0.0810
     52  CE3      -46.8050   -7.4220   -8.9110 C.ar   96  TRP96       0.0012
     53  CZ2      -45.0050   -9.5930   -8.6110 C.ar   96  TRP96       0.0191
     54  CZ3      -47.0900   -8.4900   -8.0750 C.ar   96  TRP96       0.0001
     55  CH2      -46.1940   -9.5610   -7.9330 C.ar   96  TRP96       0.0015
     56  N        -45.4230   -6.9290  -14.0130 N.am   97  ASP97      -0.1960
     57  CA       -45.8990   -8.1280  -14.6840 C.3    97  ASP97       0.1840
     58  C        -45.3000   -9.3340  -13.9750 C.2    97  ASP97       0.2622
     59  O        -44.0790   -9.4860  -13.9610 O.2    97  ASP97      -0.2715
     60  CB       -45.4940   -8.1120  -16.1630 C.3    97  ASP97       0.1450
     61  CG       -46.1200   -9.2440  -16.9640 C.2    97  ASP97       0.3671
     62  OD1      -46.4950  -10.2820  -16.3720 O.co2  97  ASP97      -0.2456
     63  OD2      -46.2350   -9.0910  -18.1980 O.co2  97  ASP97      -0.2456
     64  N        -46.1540  -10.1770  -13.3950 N.am   98  ARG98      -0.1963
     65  CA       -45.7290  -11.4120  -12.7330 C.3    98  ARG98       0.1729
     66  C        -44.6040  -12.1210  -13.4790 C.2    98  ARG98       0.2616
     67  O        -43.6260  -12.5710  -12.8780 O.2    98  ARG98      -0.2715
     68  CB       -46.9130  -12.3720  -12.5900 C.3    98  ARG98       0.0348
     69  CG       -48.0320  -11.8700  -11.7050 C.3    98  ARG98       0.0492
     70  CD       -47.5740  -11.7440  -10.2710 C.3    98  ARG98       0.2205
     71  NE       -48.6870  -11.4850   -9.3620 N.pl3  98  ARG98      -0.0865
     72  CZ       -49.1000  -12.3300   -8.4210 C.cat  98  ARG98       0.5346
     73  NH1      -48.4880  -13.4940   -8.2550 N.pl3  98  ARG98       0.1354
     74  NH2      -50.1210  -12.0070   -7.6380 N.pl3  98  ARG98       0.1354
     75  N        -44.7480  -12.1960  -14.7970 N.am   99  ASP99      -0.1957
     76  CA       -43.7940  -12.9120  -15.6280 C.3    99  ASP99       0.1840
     77  C        -42.8340  -11.9900  -16.3860 C.2    99  ASP99       0.2621
     78  O        -41.6240  -12.0770  -16.2060 O.2    99  ASP99      -0.2715
     79  CB       -44.5370  -13.8160  -16.6110 C.3    99  ASP99       0.1450
     80  CG       -46.0190  -13.5010  -16.6960 C.2    99  ASP99       0.3671
     81  OD1      -46.5050  -13.2580  -17.8200 O.co2  99  ASP99      -0.2456
     82  OD2      -46.6980  -13.5110  -15.6460 O.co2  99  ASP99      -0.2456
     83  N        -43.3660  -11.1180  -17.2380 N.am  100  MET100     -0.1977
     84  CA       -42.5150  -10.2480  -18.0490 C.3   100  MET100      0.1605
     85  C        -41.7460   -9.2580  -17.1900 C.2   100  MET100      0.2287
     86  O        -40.6320   -8.8790  -17.5390 O.2   100  MET100     -0.2864
     87  CB       -43.3420   -9.4950  -19.0970 C.3   100  MET100      0.0413
     88  CG       -42.5670   -8.4480  -19.8930 C.3   100  MET100      0.0598
     89  SD       -43.3350   -8.0890  -21.4790 S.3   100  MET100     -0.1393
     90  CE       -43.3390   -9.7180  -22.1900 C.3   100  MET100      0.0692
@<TRIPOS>BOND
     1    90    89    1
     2    89    88    1
     3    88    87    1
     4    87    84    1
     5    63    61   ar
     6    84    83    1
     7    84    85    1
     8    81    80   ar
     9    86    85    2
    10    83    77   am
    11    61    62   ar
    12    61    60    1
    13    80    79    1
    14    80    82   ar
    15    79    76    1
    16    77    78    2
    17    77    76    1
    18    60    57    1
    19     6     7    1
    20     6     5    1
    21     7     9   am
    22     7     8    2
    23    76    75    1
    24    75    66   am
    25     1     2    1
    26    57    56    1
    27    57    58    1
    28     2     5    1
    29     2     3    1
    30    56    44   am
    31    58    59    2
    32    58    64   am
    33    66    67    2
    34    66    65    1
    35    64    65    1
    36    10     3   am
    37    10    11    1
    38    44    45    2
    39    44    43    1
    40     3     4    2
    41    42    43    1
    42    13    12    2
    43    16    14    1
    44    65    68    1
    45    68    69    1
    46    43    46    1
    47    14    11    1
    48    14    15    1
    49    11    12    1
    50    12    17   am
    51    69    70    1
    52    23    25   ar
    53    23    22   ar
    54    46    47    1
    55    21    22    1
    56    21    18    1
    57    48    47   ar
    58    48    50   ar
    59    25    27   ar
    60    17    18    1
    61    22    24   ar
    62    47    49   ar
    63    18    19    1
    64    70    71    1
    65    50    51   ar
    66    27    28    1
    67    27    26   ar
    68    24    26   ar
    69    49    51   ar
    70    49    52   ar
    71    51    53   ar
    72    71    72    2
    73    52    54   ar
    74    19    29   am
    75    19    20    2
    76    53    55   ar
    77    29    30    1
    78    72    73    1
    79    72    74    1
    80    54    55   ar
    81    32    31    2
    82    40    39    1
    83    40    41    1
    84    34    33    1
    85    39    36    1
    86    36    35    1
    87    36    37    1
    88    30    31    1
    89    30    33    1
    90    41    35    1
    91    37    38    2
