@<TRIPOS>MOLECULE
tmp/5wsyB00.pdb
 88 84 0 0 0
SMALL
GASTEIGER

@<TRIPOS>ATOM
      1  N        -23.0510  -27.2180  -39.0590 N.3    19  TYR19      -0.1241
      2  CA       -23.7380  -26.9140  -37.7990 C.3    19  TYR19       0.1605
      3  C        -24.8750  -27.9560  -37.5930 C.2    19  TYR19       0.2264
      4  O        -25.5200  -28.4620  -38.5550 O.2    19  TYR19      -0.2867
      5  CB       -24.2860  -25.5010  -37.7440 C.3    19  TYR19       0.0534
      6  CG       -23.2070  -24.5020  -37.7380 C.ar   19  TYR19      -0.0201
      7  CD1      -22.5680  -24.1880  -36.5480 C.ar   19  TYR19      -0.0009
      8  CD2      -22.6910  -23.9590  -38.9260 C.ar   19  TYR19      -0.0009
      9  CE1      -21.4640  -23.3620  -36.5180 C.ar   19  TYR19       0.0417
     10  CE2      -21.6020  -23.0800  -38.8890 C.ar   19  TYR19       0.0417
     11  CZ       -21.0040  -22.7950  -37.6850 C.ar   19  TYR19       0.1957
     12  OH       -19.9480  -21.9420  -37.5970 O.3    19  TYR19      -0.2866
     13  N        -20.8850  -15.6550  -30.2140 N.3    62  ASN62      -0.1225
     14  CA       -19.7370  -16.2170  -30.9340 C.3    62  ASN62       0.1785
     15  C        -20.2030  -17.2240  -31.9840 C.2    62  ASN62       0.2597
     16  O        -19.7030  -17.2720  -33.1100 O.2    62  ASN62      -0.2718
     17  CB       -18.8040  -16.8210  -29.8660 C.3    62  ASN62       0.1169
     18  CG       -17.3860  -17.1710  -30.3630 C.2    62  ASN62       0.2627
     19  OD1      -16.5530  -17.4370  -29.5470 O.2    62  ASN62      -0.2716
     20  ND2      -17.1450  -17.2290  -31.6470 N.am   62  ASN62      -0.0877
     21  N        -21.1890  -18.0270  -31.6630 N.am   63  ILE63      -0.1980
     22  CA       -21.6790  -19.0420  -32.6490 C.3    63  ILE63       0.1595
     23  C        -22.2940  -18.2680  -33.7890 C.2    63  ILE63       0.2287
     24  O        -22.0890  -18.6000  -34.9720 O.2    63  ILE63      -0.2864
     25  CB       -22.7350  -20.0180  -32.0670 C.3    63  ILE63       0.0276
     26  CG1      -22.0660  -20.9750  -31.0610 C.3    63  ILE63       0.0022
     27  CG2      -23.3360  -20.8970  -33.1610 C.3    63  ILE63       0.0022
     28  CD1      -23.0600  -21.7960  -30.2100 C.3    63  ILE63       0.0001
     29  N        -19.7260  -16.6860  -36.0760 N.3    66  ASN66      -0.1296
     30  CA       -19.1580  -17.6960  -36.9640 C.3    66  ASN66       0.1339
     31  C        -20.0020  -18.0280  -38.1720 C.3    66  ASN66       0.2014
     32  O        -19.4680  -18.0900  -39.3400 O.3    66  ASN66      -0.2188
     33  CB       -18.8480  -18.9590  -36.1940 C.3    66  ASN66       0.1102
     34  CG       -17.8070  -18.7550  -35.1150 C.2    66  ASN66       0.2623
     35  OD1      -17.1260  -17.7230  -35.0730 O.2    66  ASN66      -0.2716
     36  ND2      -17.6700  -19.7460  -34.2460 N.am   66  ASN66      -0.0877
     37  N        -20.0770  -14.8760  -40.3810 N.3    69  MET69      -0.1230
     38  CA       -18.7970  -14.6830  -41.0340 C.3    69  MET69       0.1702
     39  C        -18.5770  -15.6940  -42.1270 C.2    69  MET69       0.2592
     40  O        -18.1380  -15.3460  -43.2370 O.2    69  MET69      -0.2718
     41  CB       -17.6590  -14.7620  -40.0230 C.3    69  MET69       0.0401
     42  CG       -16.2180  -14.6830  -40.6070 C.3    69  MET69       0.0596
     43  SD       -15.5350  -16.2710  -41.1650 S.3    69  MET69      -0.1393
     44  CE       -15.4440  -17.2400  -39.6540 C.3    69  MET69       0.0692
     45  N        -18.9610  -16.9380  -41.8900 N.am   70  TYR70      -0.1976
     46  CA       -18.8380  -17.9660  -42.9620 C.3    70  TYR70       0.1639
     47  C        -19.6980  -17.6320  -44.1430 C.2    70  TYR70       0.2290
     48  O        -19.2590  -17.7650  -45.3170 O.2    70  TYR70      -0.2864
     49  CB       -19.2110  -19.3270  -42.4490 C.3    70  TYR70       0.0560
     50  CG       -18.2110  -20.1650  -41.6350 C.ar   70  TYR70      -0.0198
     51  CD1      -16.8730  -20.1720  -41.9050 C.ar   70  TYR70      -0.0009
     52  CD2      -18.6780  -21.0470  -40.6680 C.ar   70  TYR70      -0.0009
     53  CE1      -16.0160  -21.0280  -41.2630 C.ar   70  TYR70       0.0417
     54  CE2      -17.8360  -21.9140  -40.0180 C.ar   70  TYR70       0.0417
     55  CZ       -16.4750  -21.9020  -40.3370 C.ar   70  TYR70       0.1957
     56  OH       -15.5890  -22.7680  -39.7250 O.3    70  TYR70      -0.2866
     57  N        -13.9560  -25.5210  -42.2410 N.3    98  LEU98      -0.1245
     58  CA       -13.7610  -26.0310  -40.8920 C.3    98  LEU98       0.1561
     59  C        -12.2910  -26.0680  -40.4130 C.2    98  LEU98       0.2260
     60  O        -11.9850  -25.5350  -39.3340 O.2    98  LEU98      -0.2867
     61  CB       -14.3280  -27.4670  -40.7890 C.3    98  LEU98       0.0270
     62  CG       -15.8360  -27.5920  -40.8740 C.3    98  LEU98       0.0019
     63  CD1      -16.3140  -29.0190  -40.6310 C.3    98  LEU98       0.0001
     64  CD2      -16.5220  -26.5940  -39.9360 C.3    98  LEU98       0.0001
     65  N        -10.0940  -22.0680  -41.2620 N.3   101  ILE101     -0.1231
     66  CA       -10.5650  -20.7300  -40.9410 C.3   101  ILE101      0.1692
     67  C        -10.5610  -20.6290  -39.4240 C.2   101  ILE101      0.2592
     68  O        -11.3280  -21.3020  -38.7820 O.2   101  ILE101     -0.2718
     69  CB       -11.9490  -20.4560  -41.5450 C.3   101  ILE101      0.0266
     70  CG1      -11.9050  -20.5830  -43.0940 C.3   101  ILE101      0.0019
     71  CG2      -12.4340  -19.0470  -41.1200 C.3   101  ILE101      0.0020
     72  CD1      -13.1300  -20.0680  -43.8260 C.3   101  ILE101      0.0001
     73  N         -9.6390  -19.8370  -38.8800 N.am  102  LEU102     -0.1966
     74  CA        -9.3380  -19.8000  -37.4490 C.3   102  LEU102      0.1728
     75  C         -9.6340  -18.4500  -36.8990 C.2   102  LEU102      0.2616
     76  O         -9.5080  -17.4770  -37.6010 O.2   102  LEU102     -0.2715
     77  CB        -7.8540  -20.0260  -37.2380 C.3   102  LEU102      0.0311
     78  CG        -7.2770  -21.2120  -37.9770 C.3   102  LEU102      0.0022
     79  CD1       -5.7800  -21.3620  -37.6230 C.3   102  LEU102      0.0001
     80  CD2       -8.0340  -22.4670  -37.7130 C.3   102  LEU102      0.0001
     81  N        -10.0690  -18.4160  -35.6480 N.am  103  ILE103     -0.1977
     82  CA       -10.1950  -17.1930  -34.8870 C.3   103  ILE103      0.1596
     83  C         -8.9240  -17.0650  -34.0560 C.2   103  ILE103      0.2287
     84  O         -8.5780  -17.9590  -33.2400 O.2   103  ILE103     -0.2864
     85  CB       -11.4960  -17.2060  -34.0360 C.3   103  ILE103      0.0276
     86  CG1      -12.6940  -16.9900  -35.0050 C.3   103  ILE103      0.0022
     87  CG2      -11.4530  -16.1540  -32.9570 C.3   103  ILE103      0.0022
     88  CD1      -14.0230  -17.3270  -34.4170 C.3   103  ILE103      0.0001
@<TRIPOS>BOND
     1    48    47    2
     2    47    46    1
     3    72    70    1
     4    40    39    2
     5    70    69    1
     6    46    49    1
     7    46    45    1
     8    49    50    1
     9    57    58    1
    10    39    45   am
    11    39    38    1
    12    51    50   ar
    13    51    53   ar
    14    50    52   ar
    15    69    71    1
    16    69    66    1
    17    53    55   ar
    18    65    66    1
    19    43    42    1
    20    43    44    1
    21    38    37    1
    22    38    41    1
    23    66    67    1
    24    58    61    1
    25    58    59    1
    26    62    61    1
    27    62    63    1
    28    62    64    1
    29    52    54   ar
    30    42    41    1
    31    59    60    2
    32    55    54   ar
    33    55    56    1
    34    67    73   am
    35    67    68    2
    36    32    31    1
    37     1     2    1
    38     8    10   ar
    39     8     6   ar
    40    10    11   ar
    41    73    74    1
    42     4     3    2
    43    31    30    1
    44    78    80    1
    45    78    79    1
    46    78    77    1
    47     2     5    1
    48     2     3    1
    49     5     6    1
    50     6     7   ar
    51    11    12    1
    52    11     9   ar
    53    76    75    2
    54    74    77    1
    55    74    75    1
    56    30    33    1
    57    30    29    1
    58    75    81   am
    59     7     9   ar
    60    33    34    1
    61    81    82    1
    62    34    35    2
    63    34    36   am
    64    86    88    1
    65    86    85    1
    66    24    23    2
    67    82    83    1
    68    82    85    1
    69    83    84    2
    70    85    87    1
    71    23    22    1
    72    27    25    1
    73    16    15    2
    74    22    25    1
    75    22    21    1
    76    25    26    1
    77    15    21   am
    78    15    14    1
    79    20    18   am
    80    26    28    1
    81    14    13    1
    82    14    17    1
    83    18    17    1
    84    18    19    2
