@<TRIPOS>MOLECULE
tmp/5wt1C00.pdb
 213 209 0 0 0
SMALL
GASTEIGER

@<TRIPOS>ATOM
      1  N         74.4050 -160.3940  386.1330 N.3   129  LEU129     -0.1231
      2  CA        74.6880 -159.2030  385.3470 C.3   129  LEU129      0.1693
      3  C         73.9950 -159.2480  384.0030 C.2   129  LEU129      0.2592
      4  O         74.0800 -158.2790  383.2400 O.2   129  LEU129     -0.2718
      5  CB        76.1940 -159.0440  385.0980 C.3   129  LEU129      0.0284
      6  CG        77.2430 -159.1720  386.2120 C.3   129  LEU129      0.0019
      7  CD1       78.6190 -158.7400  385.7050 C.3   129  LEU129      0.0001
      8  CD2       76.8560 -158.3660  387.4360 C.3   129  LEU129      0.0001
      9  N         73.2840 -160.3340  383.7250 N.am  130  TYR130     -0.1962
     10  CA        72.3470 -160.4050  382.6180 C.3   130  TYR130      0.1771
     11  C         70.9210 -160.1080  383.0600 C.2   130  TYR130      0.2619
     12  O         70.0050 -160.1430  382.2290 O.2   130  TYR130     -0.2715
     13  CB        72.4230 -161.7930  381.9700 C.3   130  TYR130      0.0574
     14  CG        73.8060 -162.1490  381.4570 C.ar  130  TYR130     -0.0198
     15  CD1       74.7570 -161.1650  381.2020 C.ar  130  TYR130     -0.0009
     16  CD2       74.1670 -163.4700  381.2550 C.ar  130  TYR130     -0.0009
     17  CE1       76.0230 -161.4940  380.7470 C.ar  130  TYR130      0.0417
     18  CE2       75.4240 -163.8080  380.8010 C.ar  130  TYR130      0.0417
     19  CZ        76.3490 -162.8200  380.5480 C.ar  130  TYR130      0.1957
     20  OH        77.6020 -163.1610  380.0950 O.3   130  TYR130     -0.2866
     21  N         70.7250 -159.8200  384.3480 N.am  131  ARG131     -0.1977
     22  CA        69.4200 -159.4850  384.9140 C.3   131  ARG131      0.1597
     23  C         68.3530 -160.5350  384.5840 C.2   131  ARG131      0.2287
     24  O         67.1560 -160.2310  384.5390 O.2   131  ARG131     -0.2864
     25  CB        68.9690 -158.1010  384.4390 C.3   131  ARG131      0.0334
     26  CG        70.0770 -157.0630  384.3100 C.3   131  ARG131      0.0492
     27  CD        70.7100 -156.6750  385.6300 C.3   131  ARG131      0.2205
     28  NE        69.7390 -156.3420  386.6690 N.pl3 131  ARG131     -0.0865
     29  CZ        69.6040 -157.0220  387.8000 C.cat 131  ARG131      0.5346
     30  NH1       70.3950 -158.0610  388.0430 N.pl3 131  ARG131      0.1354
     31  NH2       68.6970 -156.6400  388.6860 N.pl3 131  ARG131      0.1354
     32  N         67.5560 -164.3260  379.0960 N.3   162  VAL162     -0.1231
     33  CA        67.6070 -162.9010  378.7960 C.3   162  VAL162      0.1692
     34  C         66.6470 -162.1570  379.7150 C.2   162  VAL162      0.2592
     35  O         65.7340 -162.7420  380.3030 O.2   162  VAL162     -0.2718
     36  CB        67.2710 -162.6400  377.3050 C.3   162  VAL162      0.0266
     37  CG1       65.8520 -163.0950  376.9860 C.3   162  VAL162      0.0020
     38  CG2       67.4860 -161.1820  376.9360 C.3   162  VAL162      0.0020
     39  N         66.8800 -160.8510  379.8460 N.am  163  PHE163     -0.1962
     40  CA        65.9800 -159.9370  380.5320 C.3   163  PHE163      0.1771
     41  C         64.9660 -159.3780  379.5420 C.2   163  PHE163      0.2619
     42  O         65.3400 -158.9180  378.4560 O.2   163  PHE163     -0.2715
     43  CB        66.7720 -158.7910  381.1620 C.3   163  PHE163      0.0574
     44  CG        65.9160 -157.7620  381.8550 C.ar  163  PHE163     -0.0200
     45  CD1       65.5720 -156.5920  381.2010 C.ar  163  PHE163     -0.0042
     46  CD2       65.5030 -157.9300  383.1640 C.ar  163  PHE163     -0.0042
     47  CE1       64.8110 -155.6260  381.8200 C.ar  163  PHE163     -0.0003
     48  CE2       64.7330 -156.9630  383.7880 C.ar  163  PHE163     -0.0003
     49  CZ        64.3890 -155.8120  383.1110 C.ar  163  PHE163     -0.0000
     50  N         63.6880 -159.4200  379.9150 N.am  164  PHE164     -0.1974
     51  CA        62.6780 -158.6740  379.1750 C.3   164  PHE164      0.1639
     52  C         61.4860 -158.4360  380.0850 C.2   164  PHE164      0.2290
     53  O         61.0330 -159.3600  380.7660 O.2   164  PHE164     -0.2864
     54  CB        62.2350 -159.4110  377.9070 C.3   164  PHE164      0.0560
     55  CG        61.1580 -158.7000  377.1530 C.ar  164  PHE164     -0.0200
     56  CD1       61.4730 -157.6330  376.3290 C.ar  164  PHE164     -0.0042
     57  CD2       59.8320 -159.0770  377.2800 C.ar  164  PHE164     -0.0042
     58  CE1       60.4910 -156.9630  375.6380 C.ar  164  PHE164     -0.0003
     59  CE2       58.8450 -158.4100  376.5900 C.ar  164  PHE164     -0.0003
     60  CZ        59.1740 -157.3520  375.7670 C.ar  164  PHE164     -0.0000
     61  N         57.5080 -152.1430  380.3370 N.3   168  MET168     -0.1245
     62  CA        58.2020 -150.9570  379.8610 C.3   168  MET168      0.1570
     63  C         57.8130 -150.6050  378.4340 C.2   168  MET168      0.2261
     64  O         58.2580 -149.5610  377.9360 O.2   168  MET168     -0.2867
     65  CB        59.7180 -151.1210  379.9980 C.3   168  MET168      0.0387
     66  CG        60.1590 -151.5110  381.4140 C.3   168  MET168      0.0595
     67  SD        61.9470 -151.6760  381.6440 S.3   168  MET168     -0.1393
     68  CE        62.3390 -153.0760  380.5990 C.3   168  MET168      0.0692
     69  N         58.6910 -147.3370  376.6150 N.3   172  ARG172     -0.1245
     70  CA        59.3790 -147.3840  375.3330 C.3   172  ARG172      0.1563
     71  C         58.6380 -146.5570  374.3010 C.2   172  ARG172      0.2260
     72  O         59.2380 -145.6810  373.6580 O.2   172  ARG172     -0.2867
     73  CB        59.5340 -148.8240  374.8450 C.3   172  ARG172      0.0307
     74  CG        60.4520 -149.6910  375.6830 C.3   172  ARG172      0.0489
     75  CD        60.8510 -150.9530  374.9340 C.3   172  ARG172      0.2205
     76  NE        59.9080 -152.0410  375.1780 N.pl3 172  ARG172     -0.0865
     77  CZ        60.0520 -152.9560  376.1290 C.cat 172  ARG172      0.5346
     78  NH1       61.1020 -152.9170  376.9400 N.pl3 172  ARG172      0.1354
     79  NH2       59.1350 -153.9020  376.2790 N.pl3 172  ARG172      0.1354
     80  N         71.8560 -147.2450  372.1970 N.3   187  VAL187     -0.1245
     81  CA        71.1510 -147.8850  373.3020 C.3   187  VAL187      0.1561
     82  C         72.0900 -148.9000  373.9400 C.2   187  VAL187      0.2260
     83  O         72.1550 -150.0550  373.4930 O.2   187  VAL187     -0.2867
     84  CB        69.8450 -148.5470  372.8350 C.3   187  VAL187      0.0252
     85  CG1       69.0970 -149.1400  374.0220 C.3   187  VAL187      0.0019
     86  CG2       68.9690 -147.5410  372.1070 C.3   187  VAL187      0.0019
     87  N         73.0720 -151.5450  376.9390 N.3   189  PHE189     -0.1227
     88  CA        72.2790 -152.4680  377.7480 C.3   189  PHE189      0.1736
     89  C         70.9630 -152.7910  377.0380 C.2   189  PHE189      0.2595
     90  O         69.8810 -152.7460  377.6250 O.2   189  PHE189     -0.2718
     91  CB        72.0330 -151.8980  379.1480 C.3   189  PHE189      0.0547
     92  CG        73.2460 -151.2540  379.7620 C.ar  189  PHE189     -0.0202
     93  CD1       74.3250 -152.0200  380.1740 C.ar  189  PHE189     -0.0042
     94  CD2       73.3130 -149.8780  379.9120 C.ar  189  PHE189     -0.0042
     95  CE1       75.4430 -151.4260  380.7360 C.ar  189  PHE189     -0.0003
     96  CE2       74.4280 -149.2780  380.4710 C.ar  189  PHE189     -0.0003
     97  CZ        75.4930 -150.0520  380.8830 C.ar  189  PHE189     -0.0000
     98  N         71.0680 -153.1170  375.7490 N.am  190  ALA190     -0.1966
     99  CA        69.9090 -153.1520  374.8670 C.3   190  ALA190      0.1728
    100  C         69.1240 -154.4550  374.9450 C.2   190  ALA190      0.2617
    101  O         68.0000 -154.5040  374.4310 O.2   190  ALA190     -0.2715
    102  CB        70.3490 -152.9070  373.4220 C.3   190  ALA190      0.0334
    103  N         69.6800 -155.4960  375.5650 N.am  191  GLY191     -0.1940
    104  CA        68.9610 -156.7550  375.7100 C.3   191  GLY191      0.2014
    105  C         68.6800 -157.3750  374.3560 C.2   191  GLY191      0.2638
    106  O         69.5640 -157.4700  373.4920 O.2   191  GLY191     -0.2714
    107  N         67.4210 -157.7840  374.1580 N.am  192  VAL192     -0.1977
    108  CA        66.9620 -158.3040  372.8730 C.3   192  VAL192      0.1596
    109  C         66.4620 -157.1310  372.0340 C.2   192  VAL192      0.2287
    110  O         65.5410 -157.3030  371.2150 O.2   192  VAL192     -0.2864
    111  CB        65.8790 -159.4070  373.0070 C.3   192  VAL192      0.0276
    112  CG1       66.3910 -160.6280  373.7470 C.3   192  VAL192      0.0022
    113  CG2       64.6290 -158.8560  373.6710 C.3   192  VAL192      0.0022
    114  N         64.5110 -154.4150  372.3370 N.3   194  PRO194     -0.2102
    115  CA        63.1340 -153.8780  372.2220 C.3   194  PRO194      0.1504
    116  C         63.0940 -152.3720  372.0190 C.2   194  PRO194      0.2575
    117  O         62.2790 -151.8640  371.2230 O.2   194  PRO194     -0.2718
    118  CB        62.4600 -154.2850  373.5460 C.3   194  PRO194      0.0282
    119  CG        63.5590 -154.4880  374.4850 C.3   194  PRO194      0.0208
    120  CD        64.8070 -154.8550  373.7210 C.3   194  PRO194      0.0893
    121  N         63.9320 -151.6270  372.7610 N.am  195  TYR195     -0.1977
    122  CA        63.9750 -150.1810  372.5610 C.3   195  TYR195      0.1639
    123  C         64.3980 -149.8370  371.1200 C.2   195  TYR195      0.2290
    124  O         63.7040 -149.0390  370.4620 O.2   195  TYR195     -0.2864
    125  CB        64.9080 -149.5210  373.5910 C.3   195  TYR195      0.0560
    126  CG        64.3080 -149.1570  374.9340 C.ar  195  TYR195     -0.0198
    127  CD1       64.3310 -150.0770  375.9700 C.ar  195  TYR195     -0.0009
    128  CD2       63.7990 -147.8820  375.1990 C.ar  195  TYR195     -0.0009
    129  CE1       63.8300 -149.7820  377.2150 C.ar  195  TYR195      0.0417
    130  CE2       63.2900 -147.5700  376.4580 C.ar  195  TYR195      0.0417
    131  CZ        63.3100 -148.5250  377.4570 C.ar  195  TYR195      0.1957
    132  OH        62.8080 -148.2220  378.7030 O.3   195  TYR195     -0.2866
    133  N         75.2370 -154.8860  373.7840 N.3   211  GLU211     -0.1231
    134  CA        74.7590 -155.8380  374.7770 C.3   211  GLU211      0.1699
    135  C         75.7770 -156.9670  374.9240 C.2   211  GLU211      0.2592
    136  O         76.4390 -157.3490  373.9560 O.2   211  GLU211     -0.2718
    137  CB        73.3770 -156.3690  374.3770 C.3   211  GLU211      0.0402
    138  CG        73.0360 -157.7250  374.9310 C.3   211  GLU211      0.1161
    139  CD        72.7060 -157.6600  376.3980 C.2   211  GLU211      0.3649
    140  OE1       71.8430 -156.8300  376.7750 O.co2 211  GLU211     -0.2457
    141  OE2       73.3350 -158.4160  377.1900 O.co2 211  GLU211     -0.2457
    142  N         75.9110 -157.4870  376.1470 N.am  212  ILE212     -0.1966
    143  CA        76.9850 -158.4220  376.4820 C.3   212  ILE212      0.1727
    144  C         76.5120 -159.8720  376.4690 C.2   212  ILE212      0.2616
    145  O         77.3160 -160.7910  376.2750 O.2   212  ILE212     -0.2715
    146  CB        77.6020 -158.0780  377.8510 C.3   212  ILE212      0.0290
    147  CG1       78.8350 -158.9450  378.0990 C.3   212  ILE212      0.0022
    148  CG2       76.5760 -158.2520  378.9580 C.3   212  ILE212      0.0023
    149  CD1       79.8790 -158.2280  378.9030 C.3   212  ILE212      0.0001
    150  N         75.2190 -160.0960  376.6840 N.am  213  ASN213     -0.1972
    151  CA        74.6910 -161.4520  376.7820 C.3   213  ASN213      0.1688
    152  C         74.5890 -162.0590  375.3860 C.2   213  ASN213      0.2292
    153  O         73.8680 -161.5400  374.5260 O.2   213  ASN213     -0.2864
    154  CB        73.3310 -161.4390  377.4830 C.3   213  ASN213      0.1181
    155  CG        72.6730 -162.8130  377.5560 C.2   213  ASN213      0.2629
    156  OD1       73.2570 -163.8280  377.1760 O.2   213  ASN213     -0.2716
    157  ND2       71.4410 -162.8440  378.0540 N.am  213  ASN213     -0.0877
    158  N         71.0810 -162.8580  374.4520 N.3   216  ALA216     -0.1245
    159  CA        70.3230 -161.6470  374.1570 C.3   216  ALA216      0.1562
    160  C         70.6660 -161.1130  372.7740 C.2   216  ALA216      0.2260
    161  O         69.7710 -160.7090  372.0220 O.2   216  ALA216     -0.2867
    162  CB        70.5830 -160.5820  375.2250 C.3   216  ALA216      0.0290
    163  N         79.3240 -156.7920  372.9260 N.3   240  GLY240     -0.1210
    164  CA        80.4290 -156.2500  373.6900 C.3   240  GLY240      0.1956
    165  C         79.9680 -155.7610  375.0420 C.2   240  GLY240      0.2612
    166  O         78.7790 -155.7960  375.3770 O.2   240  GLY240     -0.2717
    167  N         80.9450 -155.3040  375.8180 N.am  241  ASP241     -0.1959
    168  CA        80.7020 -154.7060  377.1210 C.3   241  ASP241      0.1840
    169  C         80.5980 -153.1990  376.9170 C.2   241  ASP241      0.2622
    170  O         81.4900 -152.5870  376.3230 O.2   241  ASP241     -0.2715
    171  CB        81.8350 -155.0730  378.0860 C.3   241  ASP241      0.1450
    172  CG        81.7800 -154.3160  379.4140 C.2   241  ASP241      0.3671
    173  OD1       82.5690 -154.6780  380.3100 O.co2 241  ASP241     -0.2456
    174  OD2       80.9670 -153.3850  379.5920 O.co2 241  ASP241     -0.2456
    175  N         79.5010 -152.6140  377.4080 N.am  242  VAL242     -0.1963
    176  CA        79.2190 -151.1950  377.1860 C.3   242  VAL242      0.1727
    177  C         80.4000 -150.3220  377.5950 C.2   242  VAL242      0.2616
    178  O         80.7600 -149.3690  376.8930 O.2   242  VAL242     -0.2715
    179  CB        77.9340 -150.7910  377.9320 C.3   242  VAL242      0.0290
    180  CG1       77.7940 -149.2810  377.9750 C.3   242  VAL242      0.0023
    181  CG2       76.7230 -151.4100  377.2610 C.3   242  VAL242      0.0023
    182  N         81.0230 -150.6320  378.7330 N.am  243  PHE243     -0.1974
    183  CA        82.1030 -149.7820  379.2260 C.3   243  PHE243      0.1639
    184  C         83.3430 -149.8610  378.3440 C.2   243  PHE243      0.2290
    185  O         84.1290 -148.9080  378.3010 O.2   243  PHE243     -0.2864
    186  CB        82.4270 -150.1370  380.6760 C.3   243  PHE243      0.0560
    187  CG        81.3560 -149.7220  381.6410 C.ar  243  PHE243     -0.0200
    188  CD1       81.2400 -148.3970  382.0250 C.ar  243  PHE243     -0.0042
    189  CD2       80.4510 -150.6420  382.1420 C.ar  243  PHE243     -0.0042
    190  CE1       80.2530 -147.9960  382.9010 C.ar  243  PHE243     -0.0003
    191  CE2       79.4590 -150.2470  383.0210 C.ar  243  PHE243     -0.0003
    192  CZ        79.3600 -148.9220  383.4000 C.ar  243  PHE243     -0.0000
    193  N         68.9390 -147.7300  379.6200 N.3   258  PRO258     -0.2116
    194  CA        68.2000 -148.4640  380.6660 C.3   258  PRO258      0.1372
    195  C         69.2070 -149.1810  381.5610 C.2   258  PRO258      0.2244
    196  O         69.4340 -150.3900  381.4860 O.2   258  PRO258     -0.2868
    197  CB        67.3240 -149.4190  379.8540 C.3   258  PRO258      0.0268
    198  CG        68.0830 -149.6470  378.5920 C.3   258  PRO258      0.0207
    199  CD        68.8260 -148.3730  378.3000 C.3   258  PRO258      0.0892
    200  N         71.4160 -151.0810  384.1150 N.3   260  PRO260     -0.2116
    201  CA        71.1540 -152.1940  385.0340 C.3   260  PRO260      0.1372
    202  C         71.2650 -151.7540  386.4870 C.2   260  PRO260      0.2244
    203  O         72.0200 -150.8390  386.8250 O.2   260  PRO260     -0.2868
    204  CB        72.2390 -153.2170  384.6750 C.3   260  PRO260      0.0268
    205  CG        72.7080 -152.8210  383.3060 C.3   260  PRO260      0.0207
    206  CD        72.5970 -151.3310  383.2740 C.3   260  PRO260      0.0892
    207  N         74.4660 -150.2910  388.5380 N.3   263  VAL263     -0.1245
    208  CA        75.4940 -149.7630  387.6500 C.3   263  VAL263      0.1561
    209  C         75.4370 -148.2430  387.6460 C.2   263  VAL263      0.2260
    210  O         74.3590 -147.6400  387.7230 O.2   263  VAL263     -0.2867
    211  CB        75.3170 -150.3340  386.2310 C.3   263  VAL263      0.0252
    212  CG1       76.2270 -149.6270  385.2360 C.3   263  VAL263      0.0019
    213  CG2       75.5940 -151.8180  386.2320 C.3   263  VAL263      0.0019
@<TRIPOS>BOND
     1   124   123    2
     2   123   122    1
     3   110   109    2
     4   117   116    2
     5   116   115    1
     6   116   121   am
     7   161   160    2
     8   109   108    1
     9    86    84    1
    10    80    81    1
    11   115   114    1
    12   115   118    1
    13   114   120    1
    14   122   121    1
    15   122   125    1
    16   160   159    1
    17    84    81    1
    18    84    85    1
    19   108   111    1
    20   108   107    1
    21   163   164    1
    22   111   113    1
    23   111   112    1
    24    81    82    1
    25   102    99    1
    26   106   105    2
    27    83    82    2
    28   118   119    1
    29   125   126    1
    30    72    71    2
    31   164   165    1
    32   120   119    1
    33   133   134    1
    34   136   135    2
    35   159   158    1
    36   159   162    1
    37   107   105   am
    38    71    70    1
    39   105   104    1
    40   137   134    1
    41   137   138    1
    42   101   100    2
    43   153   152    2
    44   134   135    1
    45    73    70    1
    46    73    74    1
    47    99   100    1
    48    99    98    1
    49   135   142   am
    50   138   139    1
    51   126   128   ar
    52   126   127   ar
    53    75    76    1
    54    75    74    1
    55   100   103   am
    56   165   166    2
    57   165   167   am
    58    76    77    2
    59   128   130   ar
    60    70    69    1
    61   152   151    1
    62   103   104    1
    63    58    60   ar
    64    58    56   ar
    65    98    89   am
    66    60    59   ar
    67   167   168    1
    68   127   129   ar
    69    77    79    1
    70    77    78    1
    71   142   143    1
    72   145   144    2
    73   170   169    2
    74    56    55   ar
    75   139   140   ar
    76   139   141   ar
    77   130   131   ar
    78   144   143    1
    79   144   150   am
    80   143   146    1
    81    59    57   ar
    82   150   151    1
    83   151   154    1
    84   178   177    2
    85   169   168    1
    86   169   175   am
    87    38    36    1
    88    87    88    1
    89    37    36    1
    90    89    90    2
    91    89    88    1
    92   168   171    1
    93    55    57   ar
    94    55    54    1
    95   156   155    2
    96   176   175    1
    97   176   177    1
    98   176   179    1
    99   129   131   ar
   100   181   179    1
   101    36    33    1
   102   131   132    1
   103   154   155    1
   104   155   157   am
   105   177   182   am
   106    88    91    1
   107   146   147    1
   108   146   148    1
   109    54    51    1
   110   179   180    1
   111    64    63    2
   112   171   172    1
   113   147   149    1
   114   199   198    1
   115   199   193    1
   116   185   184    2
   117   184   183    1
   118    63    62    1
   119    42    41    2
   120   198   197    1
   121   182   183    1
   122    33    32    1
   123    33    34    1
   124    91    92    1
   125    51    50    1
   126    51    52    1
   127   183   186    1
   128   172   174   ar
   129   172   173   ar
   130    41    50   am
   131    41    40    1
   132   193   194    1
   133    34    39   am
   134    34    35    2
   135    92    94   ar
   136    92    93   ar
   137    39    40    1
   138   197   194    1
   139    62    65    1
   140    62    61    1
   141    94    96   ar
   142    65    66    1
   143    52    53    2
   144    20    19    1
   145    93    95   ar
   146    96    97   ar
   147    40    43    1
   148    19    17   ar
   149    19    18   ar
   150    68    67    1
   151   194   195    1
   152   186   187    1
   153    95    97   ar
   154    17    15   ar
   155    18    16   ar
   156    43    44    1
   157    45    47   ar
   158    45    44   ar
   159    15    14   ar
   160    16    14   ar
   161    66    67    1
   162    14    13    1
   163   196   195    2
   164   187   188   ar
   165   187   189   ar
   166    47    49   ar
   167    44    46   ar
   168    13    10    1
   169   188   190   ar
   170   189   191   ar
   171    12    11    2
   172    10    11    1
   173    10     9    1
   174   190   192   ar
   175   191   192   ar
   176    11    21   am
   177    49    48   ar
   178    46    48   ar
   179     4     3    2
   180   206   205    1
   181   206   200    1
   182   205   204    1
   183     9     3   am
   184     3     2    1
   185   200   201    1
   186    26    25    1
   187    26    27    1
   188    21    22    1
   189    25    22    1
   190    24    23    2
   191    23    22    1
   192   204   201    1
   193   201   202    1
   194     5     2    1
   195     5     6    1
   196   212   211    1
   197     2     1    1
   198    27    28    1
   199     7     6    1
   200     6     8    1
   201   211   213    1
   202   211   208    1
   203   202   203    2
   204    28    29    2
   205   209   208    1
   206   209   210    2
   207   208   207    1
   208    29    30    1
   209    29    31    1
