@<TRIPOS>MOLECULE
tmp/5wt2A00.pdb
 128 117 0 0 0
SMALL
GASTEIGER

@<TRIPOS>ATOM
      1  N        -27.3950  -23.3550  -19.6950 N.3     9  ASN9       -0.1225
      2  CA       -26.2110  -22.5720  -19.3680 C.3     9  ASN9        0.1785
      3  C        -26.4760  -21.5650  -18.2550 C.2     9  ASN9        0.2597
      4  O        -25.5200  -21.0260  -17.6900 O.2     9  ASN9       -0.2718
      5  CB       -25.6880  -21.8490  -20.6100 C.3     9  ASN9        0.1169
      6  CG       -25.2420  -22.8060  -21.7020 C.2     9  ASN9        0.2627
      7  OD1      -25.3040  -24.0270  -21.5420 O.2     9  ASN9       -0.2716
      8  ND2      -24.8070  -22.2550  -22.8280 N.am    9  ASN9       -0.0877
      9  N        -27.7460  -21.3060  -17.9270 N.am   10  ALA10      -0.1979
     10  CA       -28.0650  -20.4450  -16.7940 C.3    10  ALA10       0.1597
     11  C        -28.1050  -21.2420  -15.4940 C.2    10  ALA10       0.2287
     12  O        -27.5890  -20.7830  -14.4670 O.2    10  ALA10      -0.2864
     13  CB       -29.3970  -19.7300  -17.0340 C.3    10  ALA10       0.0319
     14  N        -19.4330  -21.7970   -4.7290 N.3    71  CYS71      -0.1221
     15  CA       -19.8660  -21.5310   -6.0970 C.3    71  CYS71       0.1808
     16  C        -18.6570  -21.1240   -6.9250 C.2    71  CYS71       0.2601
     17  O        -17.5790  -20.8840   -6.3750 O.2    71  CYS71      -0.2717
     18  CB       -20.9300  -20.4320   -6.1570 C.3    71  CYS71       0.0970
     19  SG       -20.4950  -18.9340   -5.2360 S.3    71  CYS71      -0.0800
     20  N        -18.8270  -21.0370   -8.2460 N.am   72  ALA72      -0.1965
     21  CA       -17.7360  -20.5830   -9.0990 C.3    72  ALA72       0.1728
     22  C        -17.3540  -19.1400   -8.8040 C.2    72  ALA72       0.2616
     23  O        -16.1980  -18.7520   -9.0050 O.2    72  ALA72      -0.2715
     24  CB       -18.1230  -20.7280  -10.5660 C.3    72  ALA72       0.0334
     25  N        -18.3090  -18.3290   -8.3440 N.am   73  THR73      -0.1951
     26  CA       -17.9920  -16.9480   -7.9930 C.3    73  THR73       0.1897
     27  C        -16.9610  -16.8920   -6.8690 C.2    73  THR73       0.2313
     28  O        -16.0360  -16.0680   -6.9030 O.2    73  THR73      -0.2863
     29  CB       -19.2690  -16.2000   -7.6040 C.3    73  THR73       0.1794
     30  OG1      -20.1870  -16.2150   -8.7060 O.3    73  THR73      -0.2208
     31  CG2      -18.9560  -14.7580   -7.2430 C.3    73  THR73       0.0378
     32  N        -13.5150  -17.8790   -8.3850 N.3    76  ASN76      -0.1240
     33  CA       -12.9090  -16.8260   -9.1950 C.3    76  ASN76       0.1653
     34  C        -12.4160  -15.6720   -8.3250 C.2    76  ASN76       0.2266
     35  O        -11.2910  -15.1830   -8.5040 O.2    76  ASN76      -0.2867
     36  CB       -13.9080  -16.3350  -10.2430 C.3    76  ASN76       0.1155
     37  CG       -14.2510  -17.4050  -11.2650 C.2    76  ASN76       0.2627
     38  OD1      -13.4450  -18.2950  -11.5420 O.2    76  ASN76      -0.2716
     39  ND2      -15.4500  -17.3210  -11.8320 N.am   76  ASN76      -0.0877
     40  N        -17.0030  -14.2680  -17.4230 N.3   103  HIS103     -0.1241
     41  CA       -18.1590  -14.1040  -16.5590 C.3   103  HIS103      0.1621
     42  C        -17.9520  -12.9120  -15.6200 C.2   103  HIS103      0.2264
     43  O        -16.8180  -12.6050  -15.2360 O.2   103  HIS103     -0.2867
     44  CB       -18.3850  -15.3870  -15.7590 C.3   103  HIS103      0.0745
     45  CG       -19.6140  -15.3670  -14.9080 C.ar  103  HIS103      0.0817
     46  ND1      -19.6100  -14.9050  -13.6100 N.ar  103  HIS103     -0.2268
     47  CD2      -20.8860  -15.7510  -15.1670 C.ar  103  HIS103      0.1154
     48  CE1      -20.8260  -15.0060  -13.1060 C.ar  103  HIS103      0.1986
     49  NE2      -21.6200  -15.5140  -14.0300 N.ar  103  HIS103     -0.2212
     50  N        -18.1870  -12.5750  -12.6010 N.3   105  ALA105     -0.1245
     51  CA       -17.4390  -12.9150  -11.3950 C.3   105  ALA105      0.1562
     52  C        -15.9470  -12.6800  -11.5860 C.2   105  ALA105      0.2260
     53  O        -15.2260  -12.4230  -10.6140 O.2   105  ALA105     -0.2867
     54  CB       -17.7080  -14.3680  -10.9940 C.3   105  ALA105      0.0290
     55  N        -11.5550  -18.0710  -19.7300 N.3   150  MET150     -0.1245
     56  CA       -12.5800  -19.0850  -19.5380 C.3   150  MET150      0.1570
     57  C        -12.4440  -20.1860  -20.5850 C.2   150  MET150      0.2261
     58  O        -11.9980  -19.9540  -21.7110 O.2   150  MET150     -0.2867
     59  CB       -13.9720  -18.4570  -19.6130 C.3   150  MET150      0.0387
     60  CG       -14.4060  -18.0900  -21.0240 C.3   150  MET150      0.0595
     61  SD       -15.5110  -16.6740  -21.0820 S.3   150  MET150     -0.1393
     62  CE       -16.8180  -17.2090  -19.9700 C.3   150  MET150      0.0692
     63  N        -15.0270  -22.2200  -21.8330 N.3   152  ALA152     -0.1245
     64  CA       -16.1160  -22.0760  -22.7850 C.3   152  ALA152      0.1562
     65  C        -16.9940  -20.9100  -22.3590 C.2   152  ALA152      0.2260
     66  O        -17.2990  -20.7550  -21.1740 O.2   152  ALA152     -0.2867
     67  CB       -16.9470  -23.3610  -22.8870 C.3   152  ALA152      0.0290
     68  N        -20.2970  -18.7030  -21.8180 N.3   154  ASN154     -0.1240
     69  CA       -21.6590  -19.0560  -21.4330 C.3   154  ASN154      0.1653
     70  C        -22.7170  -18.5110  -22.3840 C.2   154  ASN154      0.2266
     71  O        -23.8250  -19.0570  -22.4290 O.2   154  ASN154     -0.2867
     72  CB       -21.9530  -18.5610  -20.0140 C.3   154  ASN154      0.1155
     73  CG       -21.5960  -17.1010  -19.8190 C.2   154  ASN154      0.2627
     74  OD1      -20.6180  -16.6080  -20.3820 O.2   154  ASN154     -0.2716
     75  ND2      -22.3880  -16.4020  -19.0140 N.am  154  ASN154     -0.0877
     76  N        -11.6370  -20.4310  -15.9340 N.3   179  ASP179     -0.1239
     77  CA       -13.0290  -20.6150  -15.5460 C.3   179  ASP179      0.1674
     78  C        -13.6360  -21.6600  -16.4740 C.2   179  ASP179      0.2266
     79  O        -13.8920  -21.3810  -17.6490 O.2   179  ASP179     -0.2867
     80  CB       -13.7690  -19.2820  -15.6360 C.3   179  ASP179      0.1410
     81  CG       -15.1700  -19.3320  -15.0450 C.2   179  ASP179      0.3668
     82  OD1      -15.7840  -20.4180  -15.0220 O.co2 179  ASP179     -0.2456
     83  OD2      -15.6640  -18.2710  -14.6060 O.co2 179  ASP179     -0.2456
     84  N        -16.5540  -23.4270  -16.0130 N.3   181  VAL181     -0.1231
     85  CA       -17.9010  -23.7520  -15.5420 C.3   181  VAL181      0.1692
     86  C        -18.7470  -24.3300  -16.6700 C.2   181  VAL181      0.2591
     87  O        -19.4170  -25.3560  -16.5050 O.2   181  VAL181     -0.2718
     88  CB       -18.5650  -22.5110  -14.9230 C.3   181  VAL181      0.0266
     89  CG1      -20.0430  -22.7680  -14.6760 C.3   181  VAL181      0.0020
     90  CG2      -17.8800  -22.1640  -13.6350 C.3   181  VAL181      0.0020
     91  N        -18.7330  -23.6790  -17.8300 N.am  182  GLN182     -0.1979
     92  CA       -19.5440  -24.1290  -18.9520 C.3   182  GLN182      0.1601
     93  C        -18.9730  -25.3560  -19.6510 C.2   182  GLN182      0.2287
     94  O        -19.6660  -25.9430  -20.4890 O.2   182  GLN182     -0.2864
     95  CB       -19.7110  -22.9880  -19.9560 C.3   182  GLN182      0.0394
     96  CG       -20.4540  -21.7950  -19.3880 C.3   182  GLN182      0.0908
     97  CD       -21.9300  -22.0810  -19.1660 C.2   182  GLN182      0.2608
     98  OE1      -22.5000  -22.9840  -19.7800 O.2   182  GLN182     -0.2717
     99  NE2      -22.5550  -21.3090  -18.2830 N.am  182  GLN182     -0.0878
    100  N        -18.7470  -25.0150  -11.0900 N.3   202  SER202     -0.1217
    101  CA       -19.9340  -24.8490  -10.2590 C.3   202  SER202      0.1889
    102  C        -20.9170  -25.9670  -10.5760 C.2   202  SER202      0.2288
    103  O        -21.1790  -26.2470  -11.7490 O.2   202  SER202     -0.2866
    104  CB       -20.5860  -23.4810  -10.5020 C.3   202  SER202      0.2089
    105  OG       -21.0600  -22.9060   -9.2950 O.3   202  SER202     -0.2183
    106  N        -24.2270  -26.4940  -10.2520 N.3   204  HIS204     -0.1226
    107  CA       -25.5610  -26.3590  -10.8310 C.3   204  HIS204      0.1752
    108  C        -25.5440  -26.1740  -12.3430 C.2   204  HIS204      0.2595
    109  O        -26.6220  -26.1100  -12.9450 O.2   204  HIS204     -0.2718
    110  CB       -26.3150  -25.2090  -10.1630 C.3   204  HIS204      0.0759
    111  CG       -25.7380  -23.8560  -10.4390 C.ar  204  HIS204      0.0818
    112  ND1      -26.3350  -22.9570  -11.2960 N.ar  204  HIS204     -0.2268
    113  CD2      -24.6270  -23.2440   -9.9650 C.ar  204  HIS204      0.1154
    114  CE1      -25.6140  -21.8500  -11.3410 C.ar  204  HIS204      0.1986
    115  NE2      -24.5720  -21.9990  -10.5430 N.ar  204  HIS204     -0.2212
    116  N        -24.3650  -26.1030  -12.9630 N.am  205  LYS205     -0.1980
    117  CA       -24.2440  -26.1390  -14.4140 C.3   205  LYS205      0.1596
    118  C        -24.0550  -27.5480  -14.9650 C.2   205  LYS205      0.2287
    119  O        -24.0990  -27.7240  -16.1880 O.2   205  LYS205     -0.2864
    120  CB       -23.0780  -25.2580  -14.8820 C.3   205  LYS205      0.0298
    121  CG       -23.4710  -23.8380  -15.2720 C.3   205  LYS205      0.0038
    122  CD       -23.8540  -23.0040  -14.0640 C.3   205  LYS205      0.0206
    123  CE       -24.1890  -21.5730  -14.4560 C.3   205  LYS205      0.1093
    124  NZ       -22.9930  -20.7940  -14.8690 N.3   205  LYS205     -0.1314
    125  N        -25.1180  -23.5320   -5.2680 N.3   211  GLY211     -0.1225
    126  CA       -24.4960  -23.2190   -4.0000 C.3   211  GLY211      0.1811
    127  C        -23.3320  -24.1020   -3.6160 C.2   211  GLY211      0.2280
    128  O        -23.0200  -24.2040   -2.4240 O.2   211  GLY211     -0.2866
@<TRIPOS>BOND
     1    67    64    1
     2     8     6   am
     3    64    65    1
     4    64    63    1
     5    71    70    2
     6    70    69    1
     7    65    66    2
     8    68    69    1
     9    58    57    2
    10     6     7    2
    11     6     5    1
    12    69    72    1
    13    61    60    1
    14    61    62    1
    15    60    59    1
    16     5     2    1
    17    57    56    1
    18    94    93    2
    19    74    73    2
    20    72    73    1
    21    95    96    1
    22    95    92    1
    23    73    75   am
    24    98    97    2
    25    55    56    1
    26     1     2    1
    27    93    92    1
    28    59    56    1
    29    96    97    1
    30     2     3    1
    31    97    99   am
    32    92    91    1
    33     3     9   am
    34     3     4    2
    35     9    10    1
    36    91    86   am
    37    79    78    2
    38    40    41    1
    39    13    10    1
    40    10    11    1
    41    86    87    2
    42    86    85    1
    43    41    44    1
    44    41    42    1
    45    78    77    1
    46   119   118    2
    47    84    85    1
    48    76    77    1
    49    44    45    1
    50    80    77    1
    51    80    81    1
    52    42    43    2
    53    85    88    1
    54    11    12    2
    55   121   120    1
    56   121   122    1
    57    47    45   ar
    58    47    49   ar
    59    81    82   ar
    60    81    83   ar
    61   118   117    1
    62    88    89    1
    63    88    90    1
    64    45    46   ar
    65   120   117    1
    66   124   123    1
    67   123   122    1
    68   117   116    1
    69    49    48   ar
    70    46    48   ar
    71   116   108   am
    72   109   108    2
    73    50    51    1
    74   108   107    1
    75    39    37   am
    76   103   102    2
    77    52    51    1
    78    52    53    2
    79    38    37    2
    80    51    54    1
    81   114   112   ar
    82   114   115   ar
    83   112   111   ar
    84    37    36    1
    85   100   101    1
    86   107   106    1
    87   107   110    1
    88   102   101    1
    89    24    21    1
    90   115   113   ar
    91   104   101    1
    92   104   105    1
    93   111   110    1
    94   111   113   ar
    95    36    33    1
    96    33    32    1
    97    33    34    1
    98    21    22    1
    99    21    20    1
   100    23    22    2
   101    22    25   am
   102    30    29    1
   103    35    34    2
   104    25    26    1
   105    20    16   am
   106    26    29    1
   107    26    27    1
   108    29    31    1
   109    16    17    2
   110    16    15    1
   111    28    27    2
   112    18    15    1
   113    18    19    1
   114    15    14    1
   115   125   126    1
   116   126   127    1
   117   127   128    2
