@<TRIPOS>MOLECULE
tmp/5wt3A00.pdb
 176 173 0 0 0
SMALL
GASTEIGER

@<TRIPOS>ATOM
      1  N         -1.3920    3.8880  -11.0090 N.3   131  LEU131     -0.1231
      2  CA        -0.4220    4.0360  -12.0890 C.3   131  LEU131      0.1693
      3  C         -0.2110    5.5040  -12.4450 C.2   131  LEU131      0.2592
      4  O          0.9280    5.9690  -12.5680 O.2   131  LEU131     -0.2718
      5  CB        -0.8920    3.2440  -13.3100 C.3   131  LEU131      0.0284
      6  CG        -0.0840    3.3600  -14.6020 C.3   131  LEU131      0.0019
      7  CD1        1.3880    3.1900  -14.3200 C.3   131  LEU131      0.0001
      8  CD2       -0.5520    2.3440  -15.6280 C.3   131  LEU131      0.0001
      9  N         -1.3040    6.2490  -12.6150 N.am  132  TYR132     -0.1962
     10  CA        -1.2380    7.6500  -13.0160 C.3   132  TYR132      0.1771
     11  C         -0.8100    8.5780  -11.8900 C.2   132  TYR132      0.2619
     12  O         -0.6930    9.7860  -12.1220 O.2   132  TYR132     -0.2715
     13  CB        -2.5900    8.0920  -13.5740 C.3   132  TYR132      0.0574
     14  CG        -2.9760    7.3780  -14.8460 C.ar  132  TYR132     -0.0198
     15  CD1       -2.0280    6.6810  -15.5860 C.ar  132  TYR132     -0.0009
     16  CD2       -4.2830    7.3990  -15.3100 C.ar  132  TYR132     -0.0009
     17  CE1       -2.3690    6.0280  -16.7510 C.ar  132  TYR132      0.0417
     18  CE2       -4.6350    6.7470  -16.4750 C.ar  132  TYR132      0.0417
     19  CZ        -3.6740    6.0630  -17.1920 C.ar  132  TYR132      0.1957
     20  OH        -4.0190    5.4120  -18.3540 O.3   132  TYR132     -0.2866
     21  N         -0.5880    8.0470  -10.6910 N.am  133  ARG133     -0.1977
     22  CA        -0.0490    8.7780   -9.5500 C.3   133  ARG133      0.1597
     23  C         -0.9680    9.8990   -9.0840 C.2   133  ARG133      0.2287
     24  O         -0.5150   10.8490   -8.4340 O.2   133  ARG133     -0.2864
     25  CB         1.3520    9.3220   -9.8560 C.3   133  ARG133      0.0334
     26  CG         2.4220    8.2830   -9.5850 C.3   133  ARG133      0.0492
     27  CD         1.9840    7.4670   -8.3890 C.3   133  ARG133      0.2205
     28  NE         3.0490    7.0360   -7.5000 N.pl3 133  ARG133     -0.0865
     29  CZ         2.8170    6.3620   -6.3810 C.cat 133  ARG133      0.5346
     30  NH1        1.5690    6.0690   -6.0390 N.pl3 133  ARG133      0.1354
     31  NH2        3.8180    5.9870   -5.6010 N.pl3 133  ARG133      0.1354
     32  N         -5.1790   13.6660  -13.2890 N.3   164  VAL164     -0.1231
     33  CA        -3.7520   13.8520  -13.5310 C.3   164  VAL164      0.1692
     34  C         -3.0650   14.1580  -12.2050 C.2   164  VAL164      0.2592
     35  O         -3.7080   14.4790  -11.2030 O.2   164  VAL164     -0.2718
     36  CB        -3.4890   14.9790  -14.5600 C.3   164  VAL164      0.0266
     37  CG1       -3.8650   16.3360  -13.9830 C.3   164  VAL164      0.0020
     38  CG2       -2.0530   14.9570  -15.0790 C.3   164  VAL164      0.0020
     39  N         -1.7390   14.0430  -12.2020 N.am  165  PHE165     -0.1976
     40  CA        -0.8930   14.3640  -11.0620 C.3   165  PHE165      0.1639
     41  C         -0.1810   15.6890  -11.3070 C.2   165  PHE165      0.2290
     42  O          0.2390   15.9810  -12.4320 O.2   165  PHE165     -0.2864
     43  CB         0.1350   13.2450  -10.8240 C.3   165  PHE165      0.0560
     44  CG         1.3250   13.6620   -9.9910 C.ar  165  PHE165     -0.0200
     45  CD1        2.3890   14.3480  -10.5590 C.ar  165  PHE165     -0.0042
     46  CD2        1.3850   13.3560   -8.6430 C.ar  165  PHE165     -0.0042
     47  CE1        3.4650   14.7460   -9.7980 C.ar  165  PHE165     -0.0003
     48  CE2        2.4790   13.7360   -7.8830 C.ar  165  PHE165     -0.0003
     49  CZ         3.5180   14.4290   -8.4630 C.ar  165  PHE165     -0.0000
     50  N          7.5860   21.3620   -5.8700 N.3   170  MET170     -0.1245
     51  CA         8.8710   21.0940   -6.5000 C.3   170  MET170      0.1570
     52  C          9.2160   22.0980   -7.5990 C.2   170  MET170      0.2261
     53  O         10.2110   21.8970   -8.3100 O.2   170  MET170     -0.2867
     54  CB         8.9000   19.6500   -7.0150 C.3   170  MET170      0.0387
     55  CG         7.5260   19.0530   -7.2930 C.3   170  MET170      0.0595
     56  SD         7.5700   17.2680   -7.5850 S.3   170  MET170     -0.1393
     57  CE         8.6190   17.1560   -9.0270 C.3   170  MET170      0.0692
     58  N          8.2300   10.1060  -17.8580 N.3   191  PHE191     -0.1227
     59  CA         7.2170   10.3700  -16.8400 C.3   191  PHE191      0.1736
     60  C          6.9320   11.8650  -16.7370 C.2   191  PHE191      0.2595
     61  O          6.8780   12.4300  -15.6420 O.2   191  PHE191     -0.2718
     62  CB         7.6470    9.8130  -15.4820 C.3   191  PHE191      0.0547
     63  CG         8.2700    8.4720  -15.5640 C.ar  191  PHE191     -0.0202
     64  CD1        7.4840    7.3520  -15.7310 C.ar  191  PHE191     -0.0042
     65  CD2        9.6420    8.3260  -15.4910 C.ar  191  PHE191     -0.0042
     66  CE1        8.0470    6.1070  -15.8160 C.ar  191  PHE191     -0.0003
     67  CE2       10.2160    7.0810  -15.5760 C.ar  191  PHE191     -0.0003
     68  CZ         9.4170    5.9670  -15.7390 C.ar  191  PHE191     -0.0000
     69  N          6.7810   12.5140  -17.8980 N.am  192  ALA192     -0.1966
     70  CA         6.5670   13.9580  -17.9170 C.3   192  ALA192      0.1728
     71  C          5.3770   14.3690  -17.0650 C.2   192  ALA192      0.2616
     72  O          5.4910   15.2950  -16.2560 O.2   192  ALA192     -0.2715
     73  CB         6.3740   14.4560  -19.3510 C.3   192  ALA192      0.0334
     74  N          4.2570   13.6650  -17.1960 N.am  193  GLY193     -0.1955
     75  CA         2.9870   14.1830  -16.7220 C.3   193  GLY193      0.1869
     76  C          2.4960   15.1820  -17.7420 C.2   193  GLY193      0.2309
     77  O          2.6890   15.0040  -18.9470 O.2   193  GLY193     -0.2863
     78  N          7.7060   12.1190  -22.4560 N.3   212  VAL212     -0.1231
     79  CA         7.0570   10.8180  -22.5980 C.3   212  VAL212      0.1692
     80  C          5.9920   10.6720  -21.5190 C.2   212  VAL212      0.2592
     81  O          6.2470   10.9650  -20.3440 O.2   212  VAL212     -0.2718
     82  CB         8.0750    9.6640  -22.5220 C.3   212  VAL212      0.0266
     83  CG1        7.3870    8.3240  -22.7760 C.3   212  VAL212      0.0020
     84  CG2        9.2190    9.8840  -23.5070 C.3   212  VAL212      0.0020
     85  N          4.8140   10.1740  -21.9130 N.am  213  GLU213     -0.1966
     86  CA         3.6250   10.1130  -21.0660 C.3   213  GLU213      0.1733
     87  C          2.7690    8.9070  -21.4200 C.2   213  GLU213      0.2616
     88  O          2.5920    8.6060  -22.6030 O.2   213  GLU213     -0.2715
     89  CB         2.7890   11.4000  -21.2360 C.3   213  GLU213      0.0429
     90  CG         1.5930   11.5060  -20.3080 C.3   213  GLU213      0.1163
     91  CD         1.9910   11.6130  -18.8540 C.2   213  GLU213      0.3649
     92  OE1        3.1850   11.8510  -18.5810 O.co2 213  GLU213     -0.2457
     93  OE2        1.1090   11.4470  -17.9890 O.co2 213  GLU213     -0.2457
     94  N          2.2250    8.2200  -20.4030 N.am  214  ILE214     -0.1963
     95  CA         1.2070    7.2010  -20.6290 C.3   214  ILE214      0.1727
     96  C         -0.1870    7.7740  -20.4250 C.2   214  ILE214      0.2616
     97  O         -1.1310    7.3860  -21.1120 O.2   214  ILE214     -0.2715
     98  CB         1.3830    5.9580  -19.7220 C.3   214  ILE214      0.0290
     99  CG1        1.6650    6.3830  -18.2890 C.3   214  ILE214      0.0022
    100  CG2        2.4680    5.0370  -20.2490 C.3   214  ILE214      0.0023
    101  CD1        1.5700    5.2280  -17.3160 C.3   214  ILE214      0.0001
    102  N         -0.3610    8.6170  -19.4070 N.am  215  ASN215     -0.1972
    103  CA        -1.6910    9.1010  -19.0720 C.3   215  ASN215      0.1688
    104  C         -2.1890    9.9210  -20.2510 C.2   215  ASN215      0.2292
    105  O         -1.7090   11.0330  -20.4930 O.2   215  ASN215     -0.2864
    106  CB        -1.6790    9.9170  -17.7770 C.3   215  ASN215      0.1181
    107  CG        -3.0760   10.2930  -17.3090 C.2   215  ASN215      0.2629
    108  OD1       -4.0580   10.1070  -18.0280 O.2   215  ASN215     -0.2716
    109  ND2       -3.1710   10.8190  -16.0940 N.am  215  ASN215     -0.0877
    110  N          3.2020    7.2690  -24.6860 N.3   242  GLY242     -0.1210
    111  CA         3.4020    5.8420  -24.5380 C.3   242  GLY242      0.1956
    112  C          4.2110    5.4940  -23.3060 C.2   242  GLY242      0.2612
    113  O          4.5820    6.3500  -22.5030 O.2   242  GLY242     -0.2717
    114  N          4.4840    4.1950  -23.1900 N.am  243  ASP243     -0.1959
    115  CA         5.2010    3.6500  -22.0450 C.3   243  ASP243      0.1840
    116  C          6.6830    3.9980  -22.1560 C.2   243  ASP243      0.2622
    117  O          7.2750    3.8800  -23.2320 O.2   243  ASP243     -0.2715
    118  CB         4.9940    2.1340  -22.0010 C.3   243  ASP243      0.1450
    119  CG         5.5410    1.4940  -20.7420 C.2   243  ASP243      0.3671
    120  OD1        6.4020    2.1000  -20.0760 O.co2 243  ASP243     -0.2456
    121  OD2        5.1120    0.3630  -20.4270 O.co2 243  ASP243     -0.2456
    122  N          7.2860    4.4190  -21.0380 N.am  244  VAL244     -0.1963
    123  CA         8.6890    4.8440  -21.0510 C.3   244  VAL244      0.1727
    124  C          9.5960    3.7540  -21.6130 C.2   244  VAL244      0.2616
    125  O         10.5430    4.0400  -22.3580 O.2   244  VAL244     -0.2715
    126  CB         9.1370    5.2790  -19.6420 C.3   244  VAL244      0.0290
    127  CG1       10.6520    5.3730  -19.5710 C.3   244  VAL244      0.0023
    128  CG2        8.5510    6.6340  -19.3080 C.3   244  VAL244      0.0023
    129  N          9.3190    2.4900  -21.2850 N.am  245  PHE245     -0.1974
    130  CA        10.2770    1.4350  -21.6010 C.3   245  PHE245      0.1639
    131  C         10.2340    0.9990  -23.0620 C.2   245  PHE245      0.2290
    132  O         11.2350    0.4820  -23.5680 O.2   245  PHE245     -0.2864
    133  CB        10.0680    0.2270  -20.6860 C.3   245  PHE245      0.0560
    134  CG         9.9480    0.5800  -19.2300 C.ar  245  PHE245     -0.0200
    135  CD1        8.7300    0.9410  -18.6820 C.ar  245  PHE245     -0.0042
    136  CD2       11.0540    0.5140  -18.4000 C.ar  245  PHE245     -0.0042
    137  CE1        8.6200    1.2580  -17.3420 C.ar  245  PHE245     -0.0003
    138  CE2       10.9520    0.8310  -17.0590 C.ar  245  PHE245     -0.0003
    139  CZ         9.7330    1.2010  -16.5290 C.ar  245  PHE245     -0.0000
    140  N         11.8470   12.0200  -13.1920 N.3   260  PRO260     -0.2102
    141  CA        11.0100   12.0280  -11.9770 C.3   260  PRO260      0.1504
    142  C         10.2920   10.6870  -11.8460 C.2   260  PRO260      0.2576
    143  O          9.1230   10.5180  -12.1880 O.2   260  PRO260     -0.2718
    144  CB        10.0500   13.1920  -12.2360 C.3   260  PRO260      0.0282
    145  CG         9.9230   13.2360  -13.7240 C.3   260  PRO260      0.0208
    146  CD        11.2680   12.8390  -14.2710 C.3   260  PRO260      0.0893
    147  N         11.0280    9.6980  -11.3480 N.am  261  THR261     -0.1940
    148  CA        10.5250    8.3320  -11.3210 C.3   261  THR261      0.2013
    149  C          9.3120    8.2240  -10.4060 C.2   261  THR261      0.2484
    150  O          9.3170    8.7780   -9.2970 O.2   261  THR261     -0.2729
    151  CB        11.6130    7.3670  -10.8460 C.3   261  THR261      0.1807
    152  OG1       12.8670    7.7210  -11.4420 O.3   261  THR261     -0.2208
    153  CG2       11.2670    5.9480  -11.2290 C.3   261  THR261      0.0379
    154  N          8.2510    7.5380  -10.8300 N.am  262  PRO262     -0.2726
    155  CA         7.1680    7.2120   -9.9020 C.3   262  PRO262      0.1402
    156  C          7.7090    6.3630   -8.7640 C.2   262  PRO262      0.2269
    157  O          8.6590    5.5980   -8.9350 O.2   262  PRO262     -0.2865
    158  CB         6.1780    6.4270  -10.7690 C.3   262  PRO262      0.0296
    159  CG         6.4480    6.8990  -12.1580 C.3   262  PRO262      0.0237
    160  CD         7.9390    7.1100  -12.2060 C.3   262  PRO262      0.0939
    161  N          9.3630    2.5550   -8.5810 N.3   265  VAL265     -0.1245
    162  CA         9.7510    2.2130   -9.9450 C.3   265  VAL265      0.1561
    163  C         11.2510    2.4030  -10.0910 C.2   265  VAL265      0.2260
    164  O         11.8420    3.3110   -9.4930 O.2   265  VAL265     -0.2867
    165  CB         8.9880    3.0630  -10.9890 C.3   265  VAL265      0.0252
    166  CG1        9.6290    2.9670  -12.3790 C.3   265  VAL265      0.0019
    167  CG2        7.5430    2.6750  -11.0240 C.3   265  VAL265      0.0019
    168  N         12.4770   12.1900   -0.7780 N.3   324  LYS324     -0.1245
    169  CA        12.6860   12.1720   -2.2180 C.3   324  LYS324      0.1561
    170  C         14.0080   12.8560   -2.5400 C.2   324  LYS324      0.2260
    171  O         14.2960   13.9510   -2.0430 O.2   324  LYS324     -0.2867
    172  CB        11.5350   12.8720   -2.9420 C.3   324  LYS324      0.0271
    173  CG        11.7100   12.8460   -4.4490 C.3   324  LYS324      0.0035
    174  CD        10.5210   13.4170   -5.1430 C.3   324  LYS324      0.0206
    175  CE        10.7660   13.3590   -6.6460 C.3   324  LYS324      0.1093
    176  NZ         9.6520   13.9390   -7.3700 N.3   324  LYS324     -0.1314
@<TRIPOS>BOND
     1   110   111    1
     2   111   112    1
     3   132   131    2
     4    84    82    1
     5   112   114   am
     6   112   113    2
     7   117   116    2
     8   114   115    1
     9   131   130    1
    10    83    82    1
    11    88    87    2
    12    79    82    1
    13    79    78    1
    14    79    80    1
    15   125   124    2
    16   116   115    1
    17   116   122   am
    18   115   118    1
    19   118   119    1
    20    85    80   am
    21    85    86    1
    22   124   129   am
    23   124   123    1
    24   130   129    1
    25   130   133    1
    26    80    81    2
    27    87    86    1
    28    87    94   am
    29    89    86    1
    30    89    90    1
    31    97    96    2
    32   123   122    1
    33   123   126    1
    34   119   121   ar
    35   119   120   ar
    36   133   134    1
    37    95    96    1
    38    95    94    1
    39    95    98    1
    40   105   104    2
    41    96   102   am
    42    90    91    1
    43   104   103    1
    44   100    98    1
    45    98    99    1
    46   126   127    1
    47   126   128    1
    48   102   103    1
    49    73    70    1
    50   134   135   ar
    51   134   136   ar
    52   103   106    1
    53    77    76    2
    54    91    92   ar
    55    91    93   ar
    56   135   137   ar
    57   136   138   ar
    58    20    19    1
    59    99   101    1
    60   108   107    2
    61    70    69    1
    62    70    71    1
    63    69    60   am
    64    58    59    1
    65   106   107    1
    66    76    75    1
    67   137   139   ar
    68   107   109   am
    69    74    71   am
    70    74    75    1
    71    19    17   ar
    72    19    18   ar
    73    71    72    2
    74   138   139   ar
    75    59    60    1
    76    59    62    1
    77    17    15   ar
    78    60    61    2
    79    18    16   ar
    80    66    68   ar
    81    66    64   ar
    82    68    67   ar
    83    64    63   ar
    84     8     6    1
    85    15    14   ar
    86    67    65   ar
    87    63    65   ar
    88    63    62    1
    89    16    14   ar
    90    38    36    1
    91    14    13    1
    92     6     7    1
    93     6     5    1
    94    36    37    1
    95    36    33    1
    96   146   145    1
    97   146   140    1
    98   145   144    1
    99    13    10    1
   100    33    32    1
   101    33    34    1
   102     5     2    1
   103   140   141    1
   104    10     9    1
   105    10    11    1
   106     9     3   am
   107     4     3    2
   108     3     2    1
   109    42    41    2
   110   166   165    1
   111   144   141    1
   112   160   159    1
   113   160   154    1
   114    34    39   am
   115    34    35    2
   116    39    40    1
   117   143   142    2
   118   159   158    1
   119    12    11    2
   120     2     1    1
   121   141   142    1
   122    11    21   am
   123   142   147   am
   124   152   151    1
   125   147   148    1
   126   148   151    1
   127   148   149    1
   128    41    40    1
   129   153   151    1
   130    40    43    1
   131   167   165    1
   132   165   162    1
   133   154   149   am
   134   154   155    1
   135    43    44    1
   136   158   155    1
   137    21    22    1
   138    45    44   ar
   139    45    47   ar
   140   149   150    2
   141   163   162    1
   142   163   164    2
   143    44    46   ar
   144   162   161    1
   145   155   156    1
   146    25    26    1
   147    25    22    1
   148    47    49   ar
   149    26    27    1
   150    22    23    1
   151    23    24    2
   152    57    56    1
   153   157   156    2
   154    46    48   ar
   155    49    48   ar
   156    27    28    1
   157    53    52    2
   158    52    51    1
   159    56    55    1
   160    28    29    2
   161   176   175    1
   162    55    54    1
   163    54    51    1
   164   175   174    1
   165    51    50    1
   166    29    30    1
   167    29    31    1
   168   174   173    1
   169   173   172    1
   170   172   169    1
   171   170   169    1
   172   170   171    2
   173   169   168    1
