@<TRIPOS>MOLECULE
tmp/5wt5B01.pdb
 83 79 0 0 0
SMALL
GASTEIGER

@<TRIPOS>ATOM
      1  N         -1.5080    7.3000   36.2220 N.3     9  ASN9       -0.1225
      2  CA        -0.2760    6.5700   35.9460 C.3     9  ASN9        0.1785
      3  C         -0.4500    5.5100   34.8610 C.2     9  ASN9        0.2597
      4  O          0.5650    5.0420   34.3170 O.2     9  ASN9       -0.2718
      5  CB         0.3310    5.9320   37.2390 C.3     9  ASN9        0.1169
      6  CG         0.8680    6.9360   38.2340 C.2     9  ASN9        0.2627
      7  OD1        0.7690    8.1890   38.0680 O.2     9  ASN9       -0.2716
      8  ND2        1.5090    6.3980   39.2980 N.am    9  ASN9       -0.0877
      9  N         -1.7110    5.1400   34.5130 N.am   10  ALA10      -0.1979
     10  CA        -2.0210    4.2040   33.4380 C.3    10  ALA10       0.1597
     11  C         -2.0890    4.9150   32.0910 C.2    10  ALA10       0.2287
     12  O         -1.6670    4.3640   31.0730 O.2    10  ALA10      -0.2864
     13  CB        -3.3220    3.4560   33.7100 C.3    10  ALA10       0.0319
     14  N          9.0900   -1.6670   34.7680 N.3   103  HIS103     -0.1227
     15  CA         7.9940   -1.8750   33.8650 C.3   103  HIS103      0.1737
     16  C          8.3150   -3.1140   33.0290 C.2   103  HIS103      0.2438
     17  O          9.5190   -3.3810   32.7510 O.2   103  HIS103     -0.2733
     18  CB         7.8510   -0.6590   32.9390 C.3   103  HIS103      0.0758
     19  CG         6.6080   -0.6860   32.0970 C.ar  103  HIS103      0.0818
     20  ND1        6.5320   -1.3330   30.8860 N.ar  103  HIS103     -0.2268
     21  CD2        5.3930   -0.1100   32.2870 C.ar  103  HIS103      0.1154
     22  CE1        5.3180   -1.1940   30.3840 C.ar  103  HIS103      0.1986
     23  NE2        4.5990   -0.4690   31.2250 N.ar  103  HIS103     -0.2212
     24  N          7.2910   -3.8790   32.6160 N.am  104  PRO104     -0.2729
     25  CA         7.5590   -5.0420   31.7340 C.3   104  PRO104      0.1401
     26  C          8.2930   -4.6680   30.4690 C.2   104  PRO104      0.2269
     27  O          8.9440   -5.5420   29.8830 O.2   104  PRO104     -0.2865
     28  CB         6.1750   -5.5750   31.3740 C.3   104  PRO104      0.0296
     29  CG         5.2760   -5.2190   32.6950 C.3   104  PRO104      0.0237
     30  CD         5.8950   -3.8480   33.0970 C.3   104  PRO104      0.0939
     31  N          5.9830    3.1490   38.7830 N.3   154  ASN154     -0.1225
     32  CA         4.6740    3.4340   38.2520 C.3   154  ASN154      0.1785
     33  C          3.5720    2.9780   39.1990 C.2   154  ASN154      0.2597
     34  O          2.5000    3.6050   39.2240 O.2   154  ASN154     -0.2718
     35  CB         4.5530    2.8190   36.8300 C.3   154  ASN154      0.1169
     36  CG         4.6020    1.3140   36.8470 C.2   154  ASN154      0.2627
     37  OD1        5.3750    0.7080   37.5790 O.2   154  ASN154     -0.2716
     38  ND2        3.6130    0.7100   36.2030 N.am  154  ASN154     -0.0877
     39  N          3.8380    1.9960   40.0740 N.am  155  GLU155     -0.1979
     40  CA         2.8250    1.5470   41.0200 C.3   155  GLU155      0.1602
     41  C          2.8630    2.3100   42.3600 C.2   155  GLU155      0.2287
     42  O          1.8170    2.6750   42.9330 O.2   155  GLU155     -0.2864
     43  CB         2.9940    0.0460   41.3180 C.3   155  GLU155      0.0415
     44  CG         2.8300   -0.9050   40.1190 C.3   155  GLU155      0.1163
     45  CD         2.7140   -2.3700   40.5720 C.2   155  GLU155      0.3649
     46  OE1        2.4360   -3.2380   39.7270 O.co2 155  GLU155     -0.2457
     47  OE2        2.8500   -2.6410   41.7880 O.co2 155  GLU155     -0.2457
     48  N          7.3620    7.8690   34.2910 N.3   182  GLN182     -0.1245
     49  CA         6.4750    8.4130   35.3400 C.3   182  GLN182      0.1566
     50  C          6.9740    9.7210   35.9130 C.2   182  GLN182      0.2260
     51  O          6.2910   10.3050   36.7580 O.2   182  GLN182     -0.2867
     52  CB         6.2460    7.4300   36.4960 C.3   182  GLN182      0.0367
     53  CG         5.5000    6.1730   36.1190 C.3   182  GLN182      0.0905
     54  CD         3.9760    6.3620   35.9040 C.2   182  GLN182      0.2608
     55  OE1        3.3660    7.2450   36.5010 O.2   182  GLN182     -0.2717
     56  NE2        3.3800    5.5240   35.0320 N.am  182  GLN182     -0.0878
     57  N          1.6850    9.9300   26.6820 N.3   204  HIS204     -0.1241
     58  CA         0.3170    9.7490   27.3010 C.3   204  HIS204      0.1621
     59  C          0.3530    9.6430   28.8070 C.2   204  HIS204      0.2264
     60  O         -0.6900    9.5690   29.4500 O.2   204  HIS204     -0.2867
     61  CB        -0.4390    8.5560   26.6850 C.3   204  HIS204      0.0745
     62  CG         0.1090    7.2160   27.0480 C.ar  204  HIS204      0.0817
     63  ND1       -0.5460    6.3590   27.9160 N.ar  204  HIS204     -0.2268
     64  CD2        1.2320    6.5670   26.6340 C.ar  204  HIS204      0.1154
     65  CE1        0.1440    5.2340   28.0080 C.ar  204  HIS204      0.1986
     66  NE2        1.2570    5.3610   27.2920 N.ar  204  HIS204     -0.2212
     67  N         -6.5680    1.8800   39.7630 N.3   321  SER321     -0.1217
     68  CA        -6.0700    0.5700   39.3190 C.3   321  SER321      0.1889
     69  C         -5.4030   -0.1370   40.5040 C.2   321  SER321      0.2288
     70  O         -5.3680    0.3940   41.6030 O.2   321  SER321     -0.2866
     71  CB        -5.1010    0.6750   38.1230 C.3   321  SER321      0.2089
     72  OG        -3.9150    1.1810   38.6020 O.3   321  SER321     -0.2183
     73  N         -4.0830    1.6350   43.6160 N.3   332  ARG332     -0.1245
     74  CA        -3.2410    2.7430   43.1500 C.3   332  ARG332      0.1563
     75  C         -4.1130    3.8640   42.6260 C.2   332  ARG332      0.2260
     76  O         -4.8530    3.7170   41.6290 O.2   332  ARG332     -0.2867
     77  CB        -2.2570    2.2910   42.0800 C.3   332  ARG332      0.0307
     78  CG        -1.4240    3.4640   41.6670 C.3   332  ARG332      0.0489
     79  CD        -0.5020    3.1500   40.4150 C.3   332  ARG332      0.2205
     80  NE        -1.4080    3.1350   39.2490 N.pl3 332  ARG332     -0.0865
     81  CZ        -1.0790    2.6350   38.0660 C.cat 332  ARG332      0.5346
     82  NH1       -1.9770    2.5950   37.0540 N.pl3 332  ARG332      0.1354
     83  NH2        0.1720    2.2740   37.9150 N.pl3 332  ARG332      0.1354
@<TRIPOS>BOND
     1    64    62   ar
     2    64    66   ar
     3    57    58    1
     4    61    62    1
     5    61    58    1
     6    62    63   ar
     7    66    65   ar
     8    58    59    1
     9    63    65   ar
    10    59    60    2
    11    27    26    2
    12    22    20   ar
    13    22    23   ar
    14    26    25    1
    15    20    19   ar
    16    12    11    2
    17    23    21   ar
    18    28    25    1
    19    28    29    1
    20    25    24    1
    21    11    10    1
    22    19    21   ar
    23    19    18    1
    24    24    16   am
    25    24    30    1
    26    29    30    1
    27    17    16    2
    28    18    15    1
    29    16    15    1
    30    10    13    1
    31    10     9    1
    32    15    14    1
    33    48    49    1
    34     4     3    2
    35     9     3   am
    36     3     2    1
    37    56    54   am
    38    49    50    1
    39    49    52    1
    40    54    53    1
    41    54    55    2
    42    50    51    2
    43     2     1    1
    44     2     5    1
    45    53    52    1
    46    38    36   am
    47    35    36    1
    48    35    32    1
    49    36    37    2
    50    82    81    1
    51     5     6    1
    52    83    81    1
    53    81    80    2
    54     7     6    2
    55    71    72    1
    56    71    68    1
    57     6     8   am
    58    32    31    1
    59    32    33    1
    60    33    34    2
    61    33    39   am
    62    80    79    1
    63    68    67    1
    64    68    69    1
    65    46    45   ar
    66    39    40    1
    67    44    45    1
    68    44    43    1
    69    79    78    1
    70    69    70    2
    71    45    47   ar
    72    40    43    1
    73    40    41    1
    74    76    75    2
    75    78    77    1
    76    77    74    1
    77    41    42    2
    78    75    74    1
    79    74    73    1
