@<TRIPOS>MOLECULE
tmp/5wtcB00.pdb
 221 216 0 0 0
SMALL
GASTEIGER

@<TRIPOS>ATOM
      1  N         14.3950  -19.8510   21.5890 N.3    51  TYR51      -0.1241
      2  CA        13.3970  -18.7890   21.7320 C.3    51  TYR51       0.1605
      3  C         13.2610  -17.9110   20.4690 C.2    51  TYR51       0.2264
      4  O         12.1600  -17.6000   20.0300 O.2    51  TYR51      -0.2867
      5  CB        13.7520  -17.8840   22.9120 C.3    51  TYR51       0.0534
      6  CG        13.2420  -18.2390   24.2940 C.ar   51  TYR51      -0.0201
      7  CD1       11.8660  -18.4210   24.5400 C.ar   51  TYR51      -0.0009
      8  CD2       14.1160  -18.3230   25.3700 C.ar   51  TYR51      -0.0009
      9  CE1       11.3760  -18.6940   25.8100 C.ar   51  TYR51       0.0417
     10  CE2       13.6430  -18.5880   26.6530 C.ar   51  TYR51       0.0417
     11  CZ        12.2760  -18.7740   26.8810 C.ar   51  TYR51       0.1957
     12  OH        11.7920  -19.0310   28.1700 O.3    51  TYR51      -0.2866
     13  N          6.6510  -22.2410   26.7500 N.3   103  GLU103     -0.1245
     14  CA         6.5650  -22.8330   28.0720 C.3   103  GLU103      0.1567
     15  C          7.7110  -23.8040   28.3900 C.2   103  GLU103      0.2260
     16  O          8.3570  -23.6720   29.4400 O.2   103  GLU103     -0.2867
     17  CB         5.2130  -23.5360   28.2790 C.3   103  GLU103      0.0388
     18  CG         5.0030  -24.0460   29.7090 C.3   103  GLU103      0.1160
     19  CD         3.6730  -23.5910   30.2830 C.2   103  GLU103      0.3649
     20  OE1        3.5370  -22.3730   30.7150 O.co2 103  GLU103     -0.2457
     21  OE2        2.7610  -24.4700   30.2590 O.co2 103  GLU103     -0.2457
     22  N         10.8360  -21.8780   28.9770 N.3   106  ASP106     -0.1239
     23  CA        10.7970  -21.2090   30.2770 C.3   106  ASP106      0.1674
     24  C         11.3180  -22.2110   31.3690 C.2   106  ASP106      0.2266
     25  O         12.1070  -21.8590   32.2000 O.2   106  ASP106     -0.2867
     26  CB         9.3600  -20.7840   30.6930 C.3   106  ASP106      0.1410
     27  CG         8.7560  -19.6380   29.8400 C.2   106  ASP106      0.3668
     28  OD1        9.4360  -18.9070   29.0260 O.co2 106  ASP106     -0.2456
     29  OD2        7.5140  -19.4940   29.9670 O.co2 106  ASP106     -0.2456
     30  N         15.1000  -22.8090   31.0190 N.3   109  LEU109     -0.1231
     31  CA        15.9100  -21.6900   31.5040 C.3   109  LEU109      0.1693
     32  C         16.1720  -21.8100   33.0020 C.2   109  LEU109      0.2592
     33  O         17.2550  -21.5470   33.4470 O.2   109  LEU109     -0.2718
     34  CB        15.2400  -20.3210   31.2870 C.3   109  LEU109      0.0284
     35  CG        15.7350  -19.1700   30.3750 C.3   109  LEU109      0.0019
     36  CD1       15.3950  -17.8740   31.1000 C.3   109  LEU109      0.0001
     37  CD2       17.1790  -19.1200   29.8930 C.3   109  LEU109      0.0001
     38  N         15.1430  -22.1280   33.7710 N.am  110  ASP110     -0.1974
     39  CA        15.2870  -22.2210   35.2010 C.3   110  ASP110      0.1709
     40  C         16.0880  -23.4660   35.5850 C.2   110  ASP110      0.2293
     41  O         16.8390  -23.4350   36.5340 O.2   110  ASP110     -0.2864
     42  CB        13.9170  -22.2080   35.8810 C.3   110  ASP110      0.1436
     43  CG        13.4150  -20.7630   36.2210 C.2   110  ASP110      0.3671
     44  OD1       14.2420  -19.8120   36.2350 O.co2 110  ASP110     -0.2456
     45  OD2       12.1970  -20.5980   36.5420 O.co2 110  ASP110     -0.2456
     46  N          1.9120  -17.8450   43.1510 N.3   202  HIS202     -0.1226
     47  CA         2.5640  -18.2580   41.8960 C.3   202  HIS202      0.1752
     48  C          3.0690  -19.6940   42.0200 C.2   202  HIS202      0.2597
     49  O          3.9200  -19.9580   42.8260 O.2   202  HIS202     -0.2718
     50  CB         3.7150  -17.3300   41.5750 C.3   202  HIS202      0.0759
     51  CG         4.4130  -17.6450   40.2790 C.ar  202  HIS202      0.0818
     52  ND1        4.0180  -17.1260   39.0520 N.ar  202  HIS202     -0.2268
     53  CD2        5.5010  -18.4130   40.0250 C.ar  202  HIS202      0.1154
     54  CE1        4.8300  -17.5680   38.1000 C.ar  202  HIS202      0.1986
     55  NE2        5.7340  -18.3580   38.6710 N.ar  202  HIS202     -0.2212
     56  N          2.5320  -20.5820   41.1940 N.am  203  GLY203     -0.1942
     57  CA         2.8560  -21.9750   41.1530 C.3   203  GLY203      0.2014
     58  C          3.8300  -22.2160   40.0330 C.2   203  GLY203      0.2639
     59  O          3.7920  -21.5540   39.0090 O.2   203  GLY203     -0.2714
     60  N          4.7500  -23.1450   40.2750 N.am  204  SER204     -0.1949
     61  CA         5.8050  -23.4820   39.3160 C.3   204  SER204      0.1924
     62  C          6.2850  -24.8640   39.6480 C.2   204  SER204      0.2314
     63  O          6.1950  -25.2680   40.8110 O.2   204  SER204     -0.2863
     64  CB         6.9750  -22.5160   39.4620 C.3   204  SER204      0.2116
     65  OG         7.6710  -22.5200   38.2600 O.3   204  SER204     -0.2180
     66  N         14.1850  -19.6950   40.7540 N.3   212  ILE212     -0.1245
     67  CA        13.3360  -18.6340   41.3030 C.3   212  ILE212      0.1561
     68  C         13.8930  -18.0100   42.5930 C.2   212  ILE212      0.2260
     69  O         13.7040  -16.8230   42.7920 O.2   212  ILE212     -0.2867
     70  CB        11.8910  -19.1110   41.5370 C.3   212  ILE212      0.0252
     71  CG1       11.1910  -19.4400   40.2390 C.3   212  ILE212      0.0019
     72  CG2       11.0320  -18.0630   42.1930 C.3   212  ILE212      0.0019
     73  CD1        9.9430  -20.2860   40.4950 C.3   212  ILE212      0.0001
     74  N         11.6500  -13.9990   40.7090 N.3   217  LEU217     -0.1231
     75  CA        10.8130  -14.2510   39.5580 C.3   217  LEU217      0.1693
     76  C         11.2760  -13.2630   38.4780 C.2   217  LEU217      0.2592
     77  O         11.4670  -12.0740   38.7560 O.2   217  LEU217     -0.2718
     78  CB         9.3480  -14.1010   39.9060 C.3   217  LEU217      0.0284
     79  CG         8.6650  -15.2520   40.6780 C.3   217  LEU217      0.0019
     80  CD1        7.1910  -14.9990   40.9580 C.3   217  LEU217      0.0001
     81  CD2        8.8150  -16.5370   39.9040 C.3   217  LEU217      0.0001
     82  N         11.5070  -13.7790   37.2790 N.am  218  ARG218     -0.1966
     83  CA        11.9990  -13.0060   36.1480 C.3   218  ARG218      0.1729
     84  C         10.9810  -13.0050   35.0390 C.2   218  ARG218      0.2616
     85  O         10.0950  -13.8590   34.9730 O.2   218  ARG218     -0.2715
     86  CB        13.2930  -13.5860   35.5600 C.3   218  ARG218      0.0348
     87  CG        14.5320  -13.4620   36.4210 C.3   218  ARG218      0.0492
     88  CD        15.7020  -14.2720   35.8300 C.3   218  ARG218      0.2205
     89  NE        15.4850  -15.7540   35.8220 N.pl3 218  ARG218     -0.0865
     90  CZ        16.1090  -16.6590   35.0270 C.cat 218  ARG218      0.5346
     91  NH1       17.0110  -16.3070   34.0970 N.pl3 218  ARG218      0.1354
     92  NH2       15.8150  -17.9570   35.1530 N.pl3 218  ARG218      0.1354
     93  N         11.1750  -12.0430   34.1390 N.am  219  ILE219     -0.1963
     94  CA        10.4510  -11.9100   32.8820 C.3   219  ILE219      0.1727
     95  C         11.1220  -12.8340   31.8350 C.2   219  ILE219      0.2616
     96  O         12.3150  -12.9950   31.8630 O.2   219  ILE219     -0.2715
     97  CB        10.4080  -10.4010   32.4820 C.3   219  ILE219      0.0290
     98  CG1        9.4550   -9.6820   33.4700 C.3   219  ILE219      0.0022
     99  CG2        9.9600  -10.2030   31.0290 C.3   219  ILE219      0.0023
    100  CD1        9.3780   -8.1680   33.3600 C.3   219  ILE219      0.0001
    101  N         10.3570  -13.4560   30.9500 N.am  220  ALA220     -0.1964
    102  CA        10.9820  -14.2010   29.8650 C.3   220  ALA220      0.1713
    103  C         11.9170  -13.2840   29.0740 C.2   220  ALA220      0.2458
    104  O         11.6420  -12.1040   28.9090 O.2   220  ALA220     -0.2730
    105  CB         9.9280  -14.7730   28.9300 C.3   220  ALA220      0.0333
    106  N         12.9870  -13.8230   28.5260 N.am  221  PRO221     -0.2727
    107  CA        13.9600  -12.9300   27.8960 C.3   221  PRO221      0.1402
    108  C         13.5200  -12.2570   26.5970 C.2   221  PRO221      0.2269
    109  O         12.4690  -12.5910   26.0230 O.2   221  PRO221     -0.2865
    110  CB        15.1690  -13.8410   27.6490 C.3   221  PRO221      0.0296
    111  CG        14.6550  -15.2040   27.6170 C.3   221  PRO221      0.0237
    112  CD        13.2900  -15.2370   28.2690 C.3   221  PRO221      0.0939
    113  N          2.6740  -15.8210   25.2320 N.3   229  TYR229     -0.1227
    114  CA         2.1420  -15.5720   26.5950 C.3   229  TYR229      0.1736
    115  C          0.8660  -14.7400   26.4770 C.2   229  TYR229      0.2595
    116  O          0.8810  -13.6950   25.8650 O.2   229  TYR229     -0.2718
    117  CB         3.2090  -14.7960   27.3790 C.3   229  TYR229      0.0548
    118  CG         4.6060  -15.4250   27.2760 C.ar  229  TYR229     -0.0200
    119  CD1        5.4840  -15.1450   26.2020 C.ar  229  TYR229     -0.0009
    120  CD2        5.0270  -16.3250   28.2250 C.ar  229  TYR229     -0.0009
    121  CE1        6.7400  -15.7590   26.1020 C.ar  229  TYR229      0.0417
    122  CE2        6.2670  -16.9220   28.1550 C.ar  229  TYR229      0.0417
    123  CZ         7.1400  -16.6400   27.0980 C.ar  229  TYR229      0.1957
    124  OH         8.3620  -17.2880   27.1110 O.3   229  TYR229     -0.2866
    125  N         -0.2220  -15.1750   27.0790 N.am  230  MET230     -0.1979
    126  CA        -1.5270  -14.5190   26.9580 C.3   230  MET230      0.1605
    127  C         -1.5420  -12.9890   27.1220 C.2   230  MET230      0.2287
    128  O         -2.1670  -12.3020   26.3390 O.2   230  MET230     -0.2864
    129  CB        -2.5180  -15.1560   27.9270 C.3   230  MET230      0.0413
    130  CG        -3.9280  -14.6370   27.7780 C.3   230  MET230      0.0598
    131  SD        -5.1150  -15.7430   28.5670 S.3   230  MET230     -0.1393
    132  CE        -6.6550  -14.8730   28.1750 C.3   230  MET230      0.0692
    133  N          1.4600  -11.1660   27.2860 N.3   232  GLY232     -0.1210
    134  CA         2.8260  -10.7580   27.0130 C.3   232  GLY232      0.1956
    135  C          3.8100  -11.2070   28.0810 C.2   232  GLY232      0.2612
    136  O          3.4880  -12.0320   28.9360 O.2   232  GLY232     -0.2717
    137  N          4.9850  -10.6140   28.0370 N.am  233  LYS233     -0.1965
    138  CA         6.0730  -11.0340   28.8420 C.3   233  LYS233      0.1728
    139  C          6.0900  -10.3110   30.1830 C.2   233  LYS233      0.2617
    140  O          6.5750   -9.2150   30.3110 O.2   233  LYS233     -0.2715
    141  CB         7.3950  -10.9480   28.0580 C.3   233  LYS233      0.0311
    142  CG         7.3370  -11.9440   26.9150 C.3   233  LYS233      0.0038
    143  CD         8.5600  -12.0680   26.0320 C.3   233  LYS233      0.0206
    144  CE         9.0530  -10.7950   25.4000 C.3   233  LYS233      0.1093
    145  NZ        10.3560  -11.0940   24.7470 N.3   233  LYS233     -0.1314
    146  N          5.4700  -10.9500   31.1700 N.am  234  GLY234     -0.1940
    147  CA         5.4790  -10.4390   32.5280 C.3   234  GLY234      0.2014
    148  C          5.5630  -11.5540   33.5310 C.2   234  GLY234      0.2639
    149  O          5.9110  -12.6700   33.1800 O.2   234  GLY234     -0.2714
    150  N          5.1920  -11.2470   34.7770 N.am  235  ILE235     -0.1963
    151  CA         5.1730  -12.2440   35.8780 C.3   235  ILE235      0.1727
    152  C          3.7250  -12.3500   36.3240 C.2   235  ILE235      0.2616
    153  O          3.1050  -11.3200   36.7160 O.2   235  ILE235     -0.2715
    154  CB         6.0710  -11.7900   37.0500 C.3   235  ILE235      0.0290
    155  CG1        7.4830  -11.5400   36.5410 C.3   235  ILE235      0.0022
    156  CG2        6.1050  -12.8260   38.2130 C.3   235  ILE235      0.0023
    157  CD1        8.3210  -10.8240   37.5760 C.3   235  ILE235      0.0001
    158  N          3.1990  -13.5710   36.2530 N.am  236  TYR236     -0.1960
    159  CA         1.7910  -13.8480   36.4250 C.3   236  TYR236      0.1771
    160  C          1.5080  -14.4850   37.7880 C.2   236  TYR236      0.2620
    161  O          2.2170  -15.3800   38.2160 O.2   236  TYR236     -0.2715
    162  CB         1.3130  -14.8690   35.3850 C.3   236  TYR236      0.0574
    163  CG         1.2990  -14.4470   33.9350 C.ar  236  TYR236     -0.0198
    164  CD1        2.4150  -13.8850   33.3280 C.ar  236  TYR236     -0.0009
    165  CD2        0.1450  -14.6340   33.1600 C.ar  236  TYR236     -0.0009
    166  CE1        2.3800  -13.4910   31.9720 C.ar  236  TYR236      0.0417
    167  CE2        0.1250  -14.2860   31.8380 C.ar  236  TYR236      0.0417
    168  CZ         1.2560  -13.6800   31.2390 C.ar  236  TYR236      0.1957
    169  OH         1.2180  -13.2570   29.8780 O.3   236  TYR236     -0.2866
    170  N          0.3880  -14.0850   38.3720 N.am  237  PHE237     -0.1960
    171  CA        -0.0840  -14.5140   39.6610 C.3   237  PHE237      0.1771
    172  C         -1.5430  -14.8140   39.6070 C.2   237  PHE237      0.2619
    173  O         -2.2370  -14.4110   38.6590 O.2   237  PHE237     -0.2715
    174  CB         0.1360  -13.4260   40.6770 C.3   237  PHE237      0.0574
    175  CG         1.5740  -13.0590   40.8690 C.ar  237  PHE237     -0.0200
    176  CD1        2.1910  -12.1060   40.0370 C.ar  237  PHE237     -0.0042
    177  CD2        2.3300  -13.6420   41.8820 C.ar  237  PHE237     -0.0042
    178  CE1        3.5450  -11.7640   40.2120 C.ar  237  PHE237     -0.0003
    179  CE2        3.6640  -13.2710   42.0810 C.ar  237  PHE237     -0.0003
    180  CZ         4.2680  -12.3380   41.2350 C.ar  237  PHE237     -0.0000
    181  N         -2.0060  -15.5650   40.6140 N.am  238  ALA238     -0.1977
    182  CA        -3.4170  -15.8240   40.8160 C.3   238  ALA238      0.1597
    183  C         -3.8920  -15.5750   42.2370 C.2   238  ALA238      0.2287
    184  O         -3.1050  -15.5560   43.1930 O.2   238  ALA238     -0.2864
    185  CB        -3.7500  -17.2250   40.4040 C.3   238  ALA238      0.0319
    186  N         -5.6800  -22.4910   40.9700 N.3   243  LYS243     -0.1231
    187  CA        -5.2510  -22.0400   39.6110 C.3   243  LYS243      0.1693
    188  C         -3.7080  -22.0050   39.5400 C.2   243  LYS243      0.2592
    189  O         -3.1190  -22.4630   38.5840 O.2   243  LYS243     -0.2718
    190  CB        -5.8200  -20.6780   39.2540 C.3   243  LYS243      0.0285
    191  CG        -5.3350  -20.1190   37.9230 C.3   243  LYS243      0.0035
    192  CD        -6.1540  -18.8800   37.5090 C.3   243  LYS243      0.0206
    193  CE        -6.0330  -18.6510   36.0030 C.3   243  LYS243      0.1093
    194  NZ        -6.6000  -17.3260   35.6460 N.3   243  LYS243     -0.1314
    195  N         -3.0580  -21.4750   40.5620 N.am  244  SER244     -0.1952
    196  CA        -1.6010  -21.5020   40.6140 C.3   244  SER244      0.1924
    197  C         -1.0860  -22.9280   40.8150 C.2   244  SER244      0.2314
    198  O         -0.1230  -23.3110   40.2230 O.2   244  SER244     -0.2863
    199  CB        -1.1060  -20.5550   41.7000 C.3   244  SER244      0.2116
    200  OG        -1.2810  -19.2110   41.2450 O.3   244  SER244     -0.2180
    201  N         -0.2280  -25.1110   37.8780 N.3   247  TYR247     -0.1241
    202  CA         1.0930  -24.8120   37.3200 C.3   247  TYR247      0.1605
    203  C          2.3050  -25.4100   38.0400 C.2   247  TYR247      0.2264
    204  O          3.4090  -25.2440   37.5710 O.2   247  TYR247     -0.2867
    205  CB         1.2550  -23.2810   37.2000 C.3   247  TYR247      0.0534
    206  CG         0.3370  -22.6900   36.1110 C.ar  247  TYR247     -0.0201
    207  CD1        0.6030  -22.8800   34.7380 C.ar  247  TYR247     -0.0009
    208  CD2       -0.7740  -21.9430   36.4520 C.ar  247  TYR247     -0.0009
    209  CE1       -0.2150  -22.3500   33.7520 C.ar  247  TYR247      0.0417
    210  CE2       -1.6240  -21.4280   35.4820 C.ar  247  TYR247      0.0417
    211  CZ        -1.3400  -21.6340   34.1290 C.ar  247  TYR247      0.1957
    212  OH        -2.2060  -21.0630   33.2180 O.3   247  TYR247     -0.2866
    213  N         -6.3430  -13.2680   37.3020 N.3   328  GLU328     -0.1245
    214  CA        -4.9630  -13.4420   36.9560 C.3   328  GLU328      0.1567
    215  C         -4.3890  -12.0490   37.0190 C.2   328  GLU328      0.2260
    216  O         -5.0720  -11.0950   36.6300 O.2   328  GLU328     -0.2867
    217  CB        -4.9820  -13.9140   35.5270 C.3   328  GLU328      0.0388
    218  CG        -3.9840  -14.9190   35.1430 C.3   328  GLU328      0.1160
    219  CD        -4.1470  -15.3090   33.6980 C.2   328  GLU328      0.3649
    220  OE1       -3.4410  -14.7600   32.8250 O.co2 328  GLU328     -0.2457
    221  OE2       -4.9290  -16.2200   33.4700 O.co2 328  GLU328     -0.2457
@<TRIPOS>BOND
     1     4     3    2
     2     3     2    1
     3     1     2    1
     4     2     5    1
     5     5     6    1
     6     6     7   ar
     7     6     8   ar
     8     7     9   ar
     9   145   144    1
    10   113   114    1
    11     8    10   ar
    12   144   143    1
    13     9    11   ar
    14   116   115    2
    15   109   108    2
    16   143   142    1
    17   121   119   ar
    18   121   123   ar
    19   119   118   ar
    20   128   127    2
    21   115   114    1
    22   115   125   am
    23   114   117    1
    24   108   107    1
    25    10    11   ar
    26    13    14    1
    27    11    12    1
    28   142   141    1
    29   126   125    1
    30   126   127    1
    31   126   129    1
    32   134   133    1
    33   134   135    1
    34   123   124    1
    35   123   122   ar
    36   118   117    1
    37   118   120   ar
    38   111   110    1
    39   111   112    1
    40   110   107    1
    41   130   129    1
    42   130   131    1
    43   107   106    1
    44   137   135   am
    45   137   138    1
    46   141   138    1
    47    14    17    1
    48    14    15    1
    49   135   136    2
    50   122   120   ar
    51   132   131    1
    52   112   106    1
    53    17    18    1
    54    15    16    2
    55   106   103   am
    56   138   139    1
    57   104   103    2
    58   105   102    1
    59    22    23    1
    60    28    27   ar
    61   103   102    1
    62    18    19    1
    63    27    29   ar
    64    27    26    1
    65   102   101    1
    66   169   168    1
    67    37    35    1
    68   139   140    2
    69   139   146   am
    70    21    19   ar
    71    23    26    1
    72    23    24    1
    73    19    20   ar
    74    35    36    1
    75    35    34    1
    76   101    95   am
    77    30    31    1
    78    99    97    1
    79   146   147    1
    80   168   167   ar
    81   168   166   ar
    82    34    31    1
    83    24    25    2
    84    31    32    1
    85    95    96    2
    86    95    94    1
    87   167   165   ar
    88   166   164   ar
    89    97    94    1
    90    97    98    1
    91   147   148    1
    92   220   219   ar
    93    94    93    1
    94    32    33    2
    95    32    38   am
    96   165   163   ar
    97   149   148    2
    98   212   211    1
    99   164   163   ar
   100   100    98    1
   101   221   219   ar
   102   148   150   am
   103   219   218    1
   104   209   211   ar
   105   209   207   ar
   106    38    39    1
   107   163   162    1
   108    91    90    1
   109   211   210   ar
   110    93    84   am
   111   207   206   ar
   112   150   151    1
   113    85    84    2
   114    90    92    1
   115    90    89    2
   116    84    83    1
   117   218   217    1
   118    39    40    1
   119    39    42    1
   120   162   159    1
   121   210   208   ar
   122   217   214    1
   123    86    83    1
   124    86    87    1
   125    40    41    2
   126   194   193    1
   127    89    88    1
   128    88    87    1
   129   151   152    1
   130   151   154    1
   131    42    43    1
   132   193   192    1
   133   206   208   ar
   134   206   205    1
   135    83    82    1
   136    43    44   ar
   137    43    45   ar
   138   158   152   am
   139   158   159    1
   140   152   153    2
   141   159   160    1
   142   155   154    1
   143   155   157    1
   144   216   215    2
   145   214   215    1
   146   214   213    1
   147   154   156    1
   148   205   202    1
   149    82    76   am
   150   202   201    1
   151   202   203    1
   152   192   191    1
   153   204   203    2
   154   160   161    2
   155   160   170   am
   156   191   190    1
   157    54    55   ar
   158    54    52   ar
   159    65    64    1
   160   170   171    1
   161    76    77    2
   162    76    75    1
   163   189   188    2
   164   173   172    2
   165    55    53   ar
   166    59    58    2
   167    52    51   ar
   168   190   187    1
   169    61    64    1
   170    61    62    1
   171    61    60    1
   172   188   187    1
   173   188   195   am
   174    75    78    1
   175    75    74    1
   176   172   171    1
   177   172   181   am
   178   187   186    1
   179    62    63    2
   180   171   174    1
   181    81    79    1
   182    78    79    1
   183    53    51   ar
   184    58    60   am
   185    58    57    1
   186   176   178   ar
   187   176   175   ar
   188   178   180   ar
   189   198   197    2
   190    71    73    1
   191    71    70    1
   192    51    50    1
   193   185   182    1
   194   195   196    1
   195   181   182    1
   196   196   197    1
   197   196   199    1
   198   174   175    1
   199    79    80    1
   200    66    67    1
   201   182   183    1
   202   175   177   ar
   203    57    56    1
   204    56    48   am
   205   180   179   ar
   206   200   199    1
   207    67    70    1
   208    67    68    1
   209    70    72    1
   210    50    47    1
   211   177   179   ar
   212    47    48    1
   213    47    46    1
   214    48    49    2
   215   183   184    2
   216    68    69    2
