@<TRIPOS>MOLECULE
tmp/5wtsB00.pdb
 66 64 0 0 0
SMALL
GASTEIGER

@<TRIPOS>ATOM
      1  N         -6.3520  -36.4980  -52.3020 N.3    63  CYS63      -0.1221
      2  CA        -7.5100  -37.3170  -52.6410 C.3    63  CYS63       0.1808
      3  C         -8.4620  -36.5980  -53.5920 C.2    63  CYS63       0.2602
      4  O         -9.6220  -36.9980  -53.7190 O.2    63  CYS63      -0.2717
      5  CB        -8.2520  -37.7470  -51.3720 C.3    63  CYS63       0.0970
      6  SG        -8.5050  -36.4200  -50.1640 S.3    63  CYS63      -0.0800
      7  N         -7.9930  -35.5480  -54.2670 N.am   64  SER64      -0.1938
      8  CA        -8.8610  -34.7960  -55.1670 C.3    64  SER64       0.2055
      9  C         -9.3320  -35.6430  -56.3410 C.2    64  SER64       0.2643
     10  O        -10.4560  -35.4620  -56.8280 O.2    64  SER64      -0.2714
     11  CB        -8.1280  -33.5490  -55.6630 C.3    64  SER64       0.2130
     12  OG        -8.6920  -33.0640  -56.8650 O.3    64  SER64      -0.2179
     13  N         -8.4960  -36.5700  -56.8060 N.am   65  ASN65      -0.1957
     14  CA        -8.8150  -37.4260  -57.9420 C.3    65  ASN65       0.1819
     15  C         -9.2010  -38.8390  -57.5050 C.2    65  ASN65       0.2621
     16  O         -9.0720  -39.7860  -58.2880 O.2    65  ASN65      -0.2715
     17  CB        -7.6310  -37.4800  -58.9090 C.3    65  ASN65       0.1195
     18  CG        -7.9850  -38.1180  -60.2380 C.2    65  ASN65       0.2630
     19  OD1       -9.0530  -37.8750  -60.7930 O.2    65  ASN65      -0.2716
     20  ND2       -7.0830  -38.9510  -60.7520 N.am   65  ASN65      -0.0877
     21  N         -9.6800  -39.0000  -56.2710 N.am   66  ASP66      -0.1957
     22  CA        -9.9550  -40.3150  -55.7100 C.3    66  ASP66       0.1840
     23  C        -11.2430  -40.2680  -54.9030 C.2    66  ASP66       0.2621
     24  O        -11.6150  -39.2270  -54.3530 O.2    66  ASP66      -0.2715
     25  CB        -8.7980  -40.7980  -54.8290 C.3    66  ASP66       0.1450
     26  CG        -9.0100  -42.2020  -54.3060 C.2    66  ASP66       0.3671
     27  OD1       -8.6150  -43.1610  -55.0010 O.co2  66  ASP66      -0.2456
     28  OD2       -9.5680  -42.3480  -53.1990 O.co2  66  ASP66      -0.2456
     29  N        -11.9190  -41.4180  -54.8290 N.am   67  LEU67      -0.1977
     30  CA       -13.1760  -41.4880  -54.0920 C.3    67  LEU67       0.1596
     31  C        -13.0210  -40.9930  -52.6610 C.2    67  LEU67       0.2287
     32  O        -13.9830  -40.4860  -52.0730 O.2    67  LEU67      -0.2864
     33  CB       -13.7210  -42.9190  -54.1050 C.3    67  LEU67       0.0297
     34  CG       -14.2140  -43.4440  -55.4560 C.3    67  LEU67       0.0022
     35  CD1      -14.6660  -44.8940  -55.3500 C.3    67  LEU67       0.0001
     36  CD2      -15.3380  -42.5720  -56.0010 C.3    67  LEU67       0.0001
     37  N        -11.6460  -38.3840  -51.7180 N.3    69  GLY69      -0.1210
     38  CA       -12.0140  -36.9790  -51.7310 C.3    69  GLY69       0.1956
     39  C        -13.4990  -36.7760  -51.5050 C.2    69  GLY69       0.2611
     40  O        -13.9100  -35.9210  -50.7170 O.2    69  GLY69      -0.2717
     41  N        -14.3280  -37.5590  -52.2000 N.am   70  ASP70      -0.1973
     42  CA       -15.7650  -37.4940  -51.9600 C.3    70  ASP70       0.1709
     43  C        -16.0890  -37.8230  -50.5100 C.2    70  ASP70       0.2293
     44  O        -16.9320  -37.1690  -49.8870 O.2    70  ASP70      -0.2864
     45  CB       -16.5070  -38.4450  -52.9040 C.3    70  ASP70       0.1436
     46  CG       -16.3020  -38.1000  -54.3670 C.2    70  ASP70       0.3671
     47  OD1      -16.9990  -37.1950  -54.8700 O.co2  70  ASP70      -0.2456
     48  OD2      -15.4480  -38.7380  -55.0180 O.co2  70  ASP70      -0.2456
     49  N        -14.5660  -34.9150  -48.4450 N.3    73  GLY73      -0.1210
     50  CA       -15.0470  -33.6490  -48.9600 C.3    73  GLY73       0.1956
     51  C        -13.9800  -32.5970  -49.1530 C.2    73  GLY73       0.2612
     52  O        -14.3040  -31.4090  -49.2440 O.2    73  GLY73      -0.2717
     53  N        -12.7140  -32.9930  -49.2180 N.am   74  VAL74      -0.1966
     54  CA       -11.6180  -32.0470  -49.4040 C.3    74  VAL74       0.1712
     55  C        -10.7740  -32.5190  -50.5780 C.2    74  VAL74       0.2458
     56  O        -10.7650  -33.7130  -50.9200 O.2    74  VAL74      -0.2730
     57  CB       -10.7620  -31.9020  -48.1240 C.3    74  VAL74       0.0289
     58  CG1      -11.6220  -31.4160  -46.9690 C.3    74  VAL74       0.0023
     59  CG2      -10.1000  -33.2260  -47.7790 C.3    74  VAL74       0.0023
     60  N        -10.0640  -31.5970  -51.2350 N.am   75  PRO75      -0.2727
     61  CA        -9.1250  -32.0110  -52.2860 C.3    75  PRO75       0.1402
     62  C         -7.8270  -32.5700  -51.7390 C.2    75  PRO75       0.2269
     63  O         -7.0780  -33.2060  -52.4940 O.2    75  PRO75      -0.2865
     64  CB        -8.8830  -30.7140  -53.0650 C.3    75  PRO75       0.0296
     65  CG        -9.0520  -29.6470  -52.0350 C.3    75  PRO75       0.0237
     66  CD       -10.1290  -30.1320  -51.0960 C.3    75  PRO75       0.0939
@<TRIPOS>BOND
     1    19    18    2
     2    20    18   am
     3    18    17    1
     4    17    14    1
     5    16    15    2
     6    14    15    1
     7    14    13    1
     8    15    21   am
     9    12    11    1
    10    10     9    2
    11    13     9   am
    12     9     8    1
    13    21    22    1
    14    36    34    1
    15    22    23    1
    16    22    25    1
    17    11     8    1
    18    34    35    1
    19    34    33    1
    20     8     7    1
    21    48    46   ar
    22    27    26   ar
    23    23    29   am
    24    23    24    2
    25    47    46   ar
    26    29    30    1
    27    25    26    1
    28    46    45    1
    29    26    28   ar
    30     7     3   am
    31    33    30    1
    32    30    31    1
    33     4     3    2
    34     3     2    1
    35    64    61    1
    36    64    65    1
    37    45    42    1
    38    31    32    2
    39     2     1    1
    40     2     5    1
    41    63    62    2
    42    61    62    1
    43    61    60    1
    44    41    42    1
    45    41    39   am
    46    65    66    1
    47    42    43    1
    48    38    37    1
    49    38    39    1
    50    39    40    2
    51     5     6    1
    52    60    66    1
    53    60    55   am
    54    56    55    2
    55    55    54    1
    56    43    44    2
    57    54    53    1
    58    54    57    1
    59    52    51    2
    60    53    51   am
    61    51    50    1
    62    50    49    1
    63    57    59    1
    64    57    58    1
