@<TRIPOS>MOLECULE
tmp/5wtzA00.pdb
 247 241 0 0 0
SMALL
GASTEIGER

@<TRIPOS>ATOM
      1  N         57.3460  -30.9070  -19.5160 N.3   248  TYR248     -0.1227
      2  CA        55.9400  -31.3230  -19.5810 C.3   248  TYR248      0.1736
      3  C         55.2080  -30.5240  -20.6480 C.2   248  TYR248      0.2595
      4  O         54.5450  -31.0860  -21.5370 O.2   248  TYR248     -0.2718
      5  CB        55.2570  -31.1510  -18.2170 C.3   248  TYR248      0.0548
      6  CG        53.7480  -31.3860  -18.2220 C.ar  248  TYR248     -0.0200
      7  CD1       52.8590  -30.3870  -18.6400 C.ar  248  TYR248     -0.0009
      8  CD2       53.2160  -32.5990  -17.7980 C.ar  248  TYR248     -0.0009
      9  CE1       51.4740  -30.5960  -18.6380 C.ar  248  TYR248      0.0417
     10  CE2       51.8250  -32.8110  -17.7760 C.ar  248  TYR248      0.0417
     11  CZ        50.9700  -31.8050  -18.2030 C.ar  248  TYR248      0.1957
     12  OH        49.6030  -32.0040  -18.2100 O.3   248  TYR248     -0.2866
     13  N         55.3510  -29.2040  -20.5770 N.am  249  LEU249     -0.1980
     14  CA        54.5670  -28.3190  -21.4170 C.3   249  LEU249      0.1596
     15  C         54.9470  -28.4610  -22.8860 C.2   249  LEU249      0.2287
     16  O         54.0950  -28.3240  -23.7630 O.2   249  LEU249     -0.2864
     17  CB        54.7290  -26.8690  -20.9590 C.3   249  LEU249      0.0297
     18  CG        54.0970  -26.5120  -19.6100 C.3   249  LEU249      0.0022
     19  CD1       54.5380  -25.1060  -19.2220 C.3   249  LEU249      0.0001
     20  CD2       52.5650  -26.6420  -19.6470 C.3   249  LEU249      0.0001
     21  N         54.3160  -34.1020  -21.4110 N.3   253  TYR253     -0.1227
     22  CA        52.9940  -34.4190  -20.8270 C.3   253  TYR253      0.1736
     23  C         52.4700  -35.7820  -21.3000 C.2   253  TYR253      0.2596
     24  O         51.7890  -36.4780  -20.5500 O.2   253  TYR253     -0.2718
     25  CB        51.9520  -33.3230  -21.1560 C.3   253  TYR253      0.0548
     26  CG        51.5970  -33.2500  -22.6270 C.ar  253  TYR253     -0.0200
     27  CD1       50.5760  -34.0330  -23.1630 C.ar  253  TYR253     -0.0009
     28  CD2       52.3150  -32.4250  -23.4840 C.ar  253  TYR253     -0.0009
     29  CE1       50.2760  -33.9750  -24.5240 C.ar  253  TYR253      0.0417
     30  CE2       52.0320  -32.3660  -24.8400 C.ar  253  TYR253      0.0417
     31  CZ        51.0140  -33.1400  -25.3520 C.ar  253  TYR253      0.1957
     32  OH        50.7400  -33.0680  -26.6960 O.3   253  TYR253     -0.2866
     33  N         52.7990  -36.1610  -22.5320 N.am  254  THR254     -0.1953
     34  CA        52.2740  -37.3960  -23.1160 C.3   254  THR254      0.1897
     35  C         52.7500  -38.6210  -22.3350 C.2   254  THR254      0.2313
     36  O         51.9450  -39.4530  -21.9290 O.2   254  THR254     -0.2863
     37  CB        52.6880  -37.5380  -24.5830 C.3   254  THR254      0.1794
     38  OG1       52.0840  -36.4880  -25.3410 O.3   254  THR254     -0.2208
     39  CG2       52.2440  -38.8830  -25.1450 C.3   254  THR254      0.0378
     40  N         51.6580  -38.0660  -18.2470 N.3   257  ASN257     -0.1225
     41  CA        50.2660  -38.3270  -17.8970 C.3   257  ASN257      0.1785
     42  C         49.9010  -39.7900  -18.2000 C.2   257  ASN257      0.2597
     43  O         49.1360  -40.3910  -17.4600 O.2   257  ASN257     -0.2718
     44  CB        49.3290  -37.3240  -18.5940 C.3   257  ASN257      0.1169
     45  CG        49.3330  -35.9490  -17.9020 C.2   257  ASN257      0.2627
     46  OD1       49.6450  -35.8350  -16.7090 O.2   257  ASN257     -0.2716
     47  ND2       48.9720  -34.9070  -18.6420 N.am  257  ASN257     -0.0877
     48  N         50.4910  -40.3790  -19.2380 N.am  258  LYS258     -0.1980
     49  CA        50.3190  -41.8180  -19.4880 C.3   258  LYS258      0.1596
     50  C         50.7720  -42.6730  -18.2980 C.2   258  LYS258      0.2287
     51  O         50.0980  -43.6280  -17.9080 O.2   258  LYS258     -0.2864
     52  CB        51.0830  -42.2580  -20.7330 C.3   258  LYS258      0.0298
     53  CG        50.3160  -42.1760  -22.0480 C.3   258  LYS258      0.0038
     54  CD        51.2270  -42.6400  -23.1950 C.3   258  LYS258      0.0206
     55  CE        50.5590  -42.5680  -24.5640 C.3   258  LYS258      0.1093
     56  NZ        51.3760  -43.3210  -25.5710 N.3   258  LYS258     -0.1314
     57  N         48.4700  -42.2850  -15.3390 N.3   261  LEU261     -0.1245
     58  CA        47.1530  -42.8790  -15.5310 C.3   261  LEU261      0.1561
     59  C         47.1660  -44.3890  -15.2700 C.2   261  LEU261      0.2260
     60  O         46.2780  -44.9040  -14.5860 O.2   261  LEU261     -0.2867
     61  CB        46.6280  -42.5790  -16.9360 C.3   261  LEU261      0.0270
     62  CG        45.2360  -43.1340  -17.2420 C.3   261  LEU261      0.0019
     63  CD1       44.1470  -42.4910  -16.3550 C.3   261  LEU261      0.0001
     64  CD2       44.9250  -42.9560  -18.7160 C.3   261  LEU261      0.0001
     65  N         39.2480  -23.9090  -18.2610 N.3   297  TYR297     -0.1227
     66  CA        38.6710  -24.7430  -19.3260 C.3   297  TYR297      0.1736
     67  C         39.6010  -25.8520  -19.8120 C.2   297  TYR297      0.2595
     68  O         40.8160  -25.7550  -19.7110 O.2   297  TYR297     -0.2718
     69  CB        38.2820  -23.8710  -20.5320 C.3   297  TYR297      0.0548
     70  CG        37.2920  -22.7580  -20.2250 C.ar  297  TYR297     -0.0200
     71  CD1       37.7380  -21.5030  -19.7820 C.ar  297  TYR297     -0.0009
     72  CD2       35.9220  -22.9590  -20.3760 C.ar  297  TYR297     -0.0009
     73  CE1       36.8310  -20.4820  -19.5000 C.ar  297  TYR297      0.0417
     74  CE2       35.0050  -21.9480  -20.1000 C.ar  297  TYR297      0.0417
     75  CZ        35.4640  -20.7280  -19.6510 C.ar  297  TYR297      0.1957
     76  OH        34.5500  -19.7430  -19.3910 O.3   297  TYR297     -0.2866
     77  N         39.0290  -26.8980  -20.3950 N.am  298  ARG298     -0.1966
     78  CA        39.8590  -27.9620  -20.9500 C.3   298  ARG298      0.1729
     79  C         39.1220  -28.6190  -22.1040 C.2   298  ARG298      0.2616
     80  O         37.9450  -28.9560  -21.9730 O.2   298  ARG298     -0.2715
     81  CB        40.2130  -29.0140  -19.8870 C.3   298  ARG298      0.0348
     82  CG        41.0890  -30.1500  -20.4340 C.3   298  ARG298      0.0492
     83  CD        41.5290  -31.1400  -19.3360 C.3   298  ARG298      0.2205
     84  NE        41.9620  -32.3720  -19.9870 N.pl3 298  ARG298     -0.0865
     85  CZ        43.1080  -32.5040  -20.6450 C.cat 298  ARG298      0.5346
     86  NH1       43.9790  -31.4900  -20.6920 N.pl3 298  ARG298      0.1354
     87  NH2       43.4060  -33.6550  -21.2470 N.pl3 298  ARG298      0.1354
     88  N         39.8100  -28.7640  -23.2320 N.am  299  ARG299     -0.1977
     89  CA        39.3280  -29.5820  -24.3330 C.3   299  ARG299      0.1597
     90  C         39.7440  -31.0090  -24.0220 C.2   299  ARG299      0.2287
     91  O         40.9300  -31.3490  -24.0640 O.2   299  ARG299     -0.2864
     92  CB        39.8920  -29.0730  -25.6550 C.3   299  ARG299      0.0334
     93  CG        39.5520  -27.5920  -25.9100 C.3   299  ARG299      0.0492
     94  CD        38.0300  -27.3740  -25.8820 C.3   299  ARG299      0.2205
     95  NE        37.6030  -25.9670  -25.8900 N.pl3 299  ARG299     -0.0865
     96  CZ        36.7300  -25.4590  -26.7600 C.cat 299  ARG299      0.5346
     97  NH1       36.2330  -26.2180  -27.7230 N.pl3 299  ARG299      0.1354
     98  NH2       36.3710  -24.1850  -26.7000 N.pl3 299  ARG299      0.1354
     99  N         39.7490  -35.2090  -24.2320 N.3   301  GLY301     -0.1210
    100  CA        39.5590  -36.3220  -25.1460 C.3   301  GLY301      0.1940
    101  C         38.5540  -37.3170  -24.5810 C.2   301  GLY301      0.2454
    102  O         38.2770  -37.3080  -23.3720 O.2   301  GLY301     -0.2732
    103  N         38.0210  -38.2030  -25.4350 N.am  302  PRO302     -0.2717
    104  CA        36.9870  -39.1510  -24.9930 C.3   302  PRO302      0.1535
    105  C         37.4530  -40.1070  -23.8860 C.2   302  PRO302      0.2599
    106  O         36.6250  -40.4800  -23.0480 O.2   302  PRO302     -0.2715
    107  CB        36.6580  -39.9240  -26.2750 C.3   302  PRO302      0.0310
    108  CG        37.9020  -39.7890  -27.1370 C.3   302  PRO302      0.0237
    109  CD        38.3340  -38.3710  -26.8670 C.3   302  PRO302      0.0939
    110  N         38.7300  -40.4930  -23.8850 N.am  303  ASN303     -0.1959
    111  CA        39.2760  -41.3980  -22.8610 C.3   303  ASN303      0.1819
    112  C         39.0170  -40.9200  -21.4400 C.2   303  ASN303      0.2621
    113  O         38.9480  -41.7250  -20.5110 O.2   303  ASN303     -0.2715
    114  CB        40.7920  -41.5840  -23.0050 C.3   303  ASN303      0.1195
    115  CG        41.2020  -42.3350  -24.2510 C.2   303  ASN303      0.2630
    116  OD1       42.4040  -42.5440  -24.4730 O.2   303  ASN303     -0.2716
    117  ND2       40.2300  -42.7500  -25.0730 N.am  303  ASN303     -0.0877
    118  N         38.9040  -39.6070  -21.2550 N.am  304  GLU304     -0.1977
    119  CA        38.7090  -39.0650  -19.9150 C.3   304  GLU304      0.1602
    120  C         37.3410  -39.4250  -19.3520 C.2   304  GLU304      0.2287
    121  O         37.1090  -39.2910  -18.1540 O.2   304  GLU304     -0.2864
    122  CB        38.9140  -37.5510  -19.9290 C.3   304  GLU304      0.0415
    123  CG        40.4010  -37.2300  -20.1000 C.3   304  GLU304      0.1163
    124  CD        40.6540  -35.8160  -20.5570 C.2   304  GLU304      0.3649
    125  OE1       40.4080  -34.8900  -19.7590 O.co2 304  GLU304     -0.2457
    126  OE2       41.0960  -35.6340  -21.7160 O.co2 304  GLU304     -0.2457
    127  N         37.8040  -39.3520   -9.8840 N.3   335  PRO335     -0.2102
    128  CA        39.2230  -39.1810   -9.5510 C.3   335  PRO335      0.1504
    129  C         40.0410  -38.8580  -10.7850 C.2   335  PRO335      0.2576
    130  O         39.7920  -39.4400  -11.8360 O.2   335  PRO335     -0.2718
    131  CB        39.6250  -40.5480   -8.9770 C.3   335  PRO335      0.0282
    132  CG        38.3600  -41.1370   -8.4750 C.3   335  PRO335      0.0208
    133  CD        37.3210  -40.6870   -9.4900 C.3   335  PRO335      0.0893
    134  N         40.9990  -37.9480  -10.6570 N.am  336  VAL336     -0.1966
    135  CA        41.8620  -37.5790  -11.7710 C.3   336  VAL336      0.1727
    136  C         43.3300  -37.8460  -11.4050 C.2   336  VAL336      0.2616
    137  O         43.9480  -37.0880  -10.6460 O.2   336  VAL336     -0.2715
    138  CB        41.6740  -36.1010  -12.1620 C.3   336  VAL336      0.0290
    139  CG1       42.5950  -35.7390  -13.3570 C.3   336  VAL336      0.0023
    140  CG2       40.2140  -35.8230  -12.5250 C.3   336  VAL336      0.0023
    141  N         43.8840  -38.9330  -11.9330 N.am  337  LYS337     -0.1963
    142  CA        45.2340  -39.3530  -11.5750 C.3   337  LYS337      0.1728
    143  C         46.3070  -38.4880  -12.2410 C.2   337  LYS337      0.2617
    144  O         47.4390  -38.4120  -11.7700 O.2   337  LYS337     -0.2715
    145  CB        45.4450  -40.8260  -11.9520 C.3   337  LYS337      0.0311
    146  CG        44.4330  -41.7830  -11.2950 C.3   337  LYS337      0.0038
    147  CD        44.6750  -43.2310  -11.7060 C.3   337  LYS337      0.0206
    148  CE        45.8950  -43.7920  -10.9960 C.3   337  LYS337      0.1093
    149  NZ        46.1060  -45.2380  -11.2730 N.3   337  LYS337     -0.1314
    150  N         45.9360  -37.8350  -13.3330 N.am  338  THR338     -0.1937
    151  CA        46.8750  -37.0980  -14.1730 C.3   338  THR338      0.2028
    152  C         47.0500  -35.6520  -13.7110 C.2   338  THR338      0.2642
    153  O         46.2250  -35.1470  -12.9430 O.2   338  THR338     -0.2714
    154  CB        46.3810  -37.0920  -15.6430 C.3   338  THR338      0.1808
    155  OG1       44.9730  -36.8310  -15.6530 O.3   338  THR338     -0.2208
    156  CG2       46.6620  -38.4410  -16.3330 C.3   338  THR338      0.0379
    157  N         48.1270  -34.9930  -14.1500 N.am  339  PHE339     -0.1973
    158  CA        48.1720  -33.5410  -14.0960 C.3   339  PHE339      0.1639
    159  C         47.1000  -33.0610  -15.0600 C.2   339  PHE339      0.2290
    160  O         46.8650  -33.6900  -16.1030 O.2   339  PHE339     -0.2864
    161  CB        49.5310  -32.9480  -14.5080 C.3   339  PHE339      0.0560
    162  CG        50.6800  -33.3090  -13.5980 C.ar  339  PHE339     -0.0200
    163  CD1       50.8050  -32.7240  -12.3370 C.ar  339  PHE339     -0.0042
    164  CD2       51.6310  -34.2190  -13.9980 C.ar  339  PHE339     -0.0042
    165  CE1       51.8530  -33.0500  -11.5040 C.ar  339  PHE339     -0.0003
    166  CE2       52.6990  -34.5520  -13.1650 C.ar  339  PHE339     -0.0003
    167  CZ        52.7990  -33.9710  -11.9040 C.ar  339  PHE339     -0.0000
    168  N         46.0810  -30.1930  -17.6070 N.3   341  SER341     -0.1202
    169  CA        46.3170  -29.0280  -18.4570 C.3   341  SER341      0.2020
    170  C         44.9970  -28.3020  -18.7770 C.2   341  SER341      0.2619
    171  O         44.0970  -28.8270  -19.4630 O.2   341  SER341     -0.2717
    172  CB        47.0380  -29.4280  -19.7510 C.3   341  SER341      0.2103
    173  OG        48.4420  -29.5720  -19.5390 O.3   341  SER341     -0.2182
    174  N         44.8800  -27.0870  -18.2660 N.am  342  THR342     -0.1938
    175  CA        43.6800  -26.2750  -18.4950 C.3   342  THR342      0.2028
    176  C         44.0730  -24.9310  -19.0730 C.2   342  THR342      0.2642
    177  O         45.2120  -24.5000  -18.9400 O.2   342  THR342     -0.2714
    178  CB        42.8460  -26.0180  -17.2050 C.3   342  THR342      0.1808
    179  OG1       43.4490  -24.9720  -16.4280 O.3   342  THR342     -0.2208
    180  CG2       42.7020  -27.2760  -16.3590 C.3   342  THR342      0.0379
    181  N         43.1210  -24.2750  -19.7270 N.am  343  THR343     -0.1950
    182  CA        43.3290  -22.9420  -20.2550 C.3   343  THR343      0.1897
    183  C         42.2430  -22.0310  -19.6970 C.2   343  THR343      0.2313
    184  O         41.0620  -22.3810  -19.6910 O.2   343  THR343     -0.2863
    185  CB        43.3280  -22.9310  -21.8110 C.3   343  THR343      0.1794
    186  OG1       43.4440  -21.5880  -22.2870 O.3   343  THR343     -0.2208
    187  CG2       42.0420  -23.5350  -22.3880 C.3   343  THR343      0.0378
    188  N         41.0290  -24.4990  -29.0780 N.3   349  ILE349     -0.1245
    189  CA        42.4580  -24.5950  -29.3670 C.3   349  ILE349      0.1561
    190  C         42.6550  -25.4110  -30.6390 C.2   349  ILE349      0.2260
    191  O         42.0860  -26.5010  -30.7610 O.2   349  ILE349     -0.2867
    192  CB        43.2290  -25.2490  -28.2030 C.3   349  ILE349      0.0252
    193  CG1       43.1090  -24.4050  -26.9300 C.3   349  ILE349      0.0019
    194  CG2       44.6870  -25.4590  -28.5790 C.3   349  ILE349      0.0019
    195  CD1       43.5330  -25.1370  -25.6560 C.3   349  ILE349      0.0001
    196  N         43.3340  -29.1070  -30.6760 N.3   352  PHE352     -0.1241
    197  CA        42.2850  -29.9090  -30.0490 C.3   352  PHE352      0.1605
    198  C         40.8920  -29.4760  -30.4990 C.2   352  PHE352      0.2264
    199  O         39.9300  -29.6090  -29.7410 O.2   352  PHE352     -0.2867
    200  CB        42.3980  -29.8170  -28.5270 C.3   352  PHE352      0.0534
    201  CG        43.8080  -30.0020  -28.0230 C.ar  352  PHE352     -0.0203
    202  CD1       44.4870  -31.1840  -28.2680 C.ar  352  PHE352     -0.0042
    203  CD2       44.4580  -28.9840  -27.3340 C.ar  352  PHE352     -0.0042
    204  CE1       45.8000  -31.3620  -27.8290 C.ar  352  PHE352     -0.0003
    205  CE2       45.7710  -29.1530  -26.8870 C.ar  352  PHE352     -0.0003
    206  CZ        46.4390  -30.3450  -27.1360 C.ar  352  PHE352     -0.0000
    207  N         37.8400  -32.0640  -30.3860 N.3   355  ARG355     -0.1245
    208  CA        37.4080  -32.6830  -29.1330 C.3   355  ARG355      0.1563
    209  C         36.0120  -32.1610  -28.7350 C.2   355  ARG355      0.2260
    210  O         35.7650  -30.9520  -28.7870 O.2   355  ARG355     -0.2867
    211  CB        38.4130  -32.4170  -28.0110 C.3   355  ARG355      0.0307
    212  CG        39.7890  -33.0370  -28.2840 C.3   355  ARG355      0.0489
    213  CD        40.6600  -33.0370  -27.0500 C.3   355  ARG355      0.2205
    214  NE        41.9440  -33.6480  -27.3730 N.pl3 355  ARG355     -0.0865
    215  CZ        43.0140  -33.6350  -26.5820 C.cat 355  ARG355      0.5346
    216  NH1       42.9790  -33.0200  -25.4090 N.pl3 355  ARG355      0.1354
    217  NH2       44.1300  -34.2280  -26.9800 N.pl3 355  ARG355      0.1354
    218  N         55.8350  -18.9440  -23.6450 N.3   378  TYR378     -0.1241
    219  CA        54.4170  -19.2640  -23.7740 C.3   378  TYR378      0.1605
    220  C         53.5890  -18.0150  -24.0360 C.2   378  TYR378      0.2264
    221  O         52.6090  -17.7350  -23.3510 O.2   378  TYR378     -0.2867
    222  CB        53.9300  -20.0090  -22.5370 C.3   378  TYR378      0.0534
    223  CG        54.7510  -21.2460  -22.3140 C.ar  378  TYR378     -0.0201
    224  CD1       54.4990  -22.4040  -23.0380 C.ar  378  TYR378     -0.0009
    225  CD2       55.8210  -21.2430  -21.4250 C.ar  378  TYR378     -0.0009
    226  CE1       55.2640  -23.5360  -22.8650 C.ar  378  TYR378      0.0417
    227  CE2       56.5940  -22.3750  -21.2380 C.ar  378  TYR378      0.0417
    228  CZ        56.3110  -23.5190  -21.9600 C.ar  378  TYR378      0.1957
    229  OH        57.0770  -24.6470  -21.7800 O.3   378  TYR378     -0.2866
    230  N         49.7790  -18.5060  -24.9460 N.3   381  GLU381     -0.1245
    231  CA        49.3240  -19.5750  -24.0700 C.3   381  GLU381      0.1567
    232  C         48.7900  -18.9680  -22.7700 C.2   381  GLU381      0.2260
    233  O         49.2440  -17.9010  -22.3360 O.2   381  GLU381     -0.2867
    234  CB        50.4530  -20.5650  -23.7920 C.3   381  GLU381      0.0388
    235  CG        51.1110  -21.1180  -25.0490 C.3   381  GLU381      0.1160
    236  CD        50.7980  -22.5850  -25.2840 C.2   381  GLU381      0.3649
    237  OE1       51.5510  -23.2400  -26.0370 O.co2 381  GLU381     -0.2457
    238  OE2       49.8000  -23.0830  -24.7170 O.co2 381  GLU381     -0.2457
    239  N         47.7180  -21.1060  -19.8100 N.3   383  GLU383     -0.1245
    240  CA        47.4950  -22.3750  -19.1460 C.3   383  GLU383      0.1567
    241  C         47.5830  -22.2960  -17.6250 C.2   383  GLU383      0.2260
    242  O         48.5150  -21.6940  -17.0520 O.2   383  GLU383     -0.2867
    243  CB        48.4960  -23.4270  -19.6450 C.3   383  GLU383      0.0388
    244  CG        48.3600  -24.7630  -18.9260 C.3   383  GLU383      0.1160
    245  CD        49.0610  -25.9190  -19.6530 C.2   383  GLU383      0.3649
    246  OE1       49.6900  -25.6950  -20.7050 O.co2 383  GLU383     -0.2457
    247  OE2       48.9500  -27.0620  -19.1630 O.co2 383  GLU383     -0.2457
@<TRIPOS>BOND
     1   191   190    2
     2   196   197    1
     3   190   189    1
     4   198   197    1
     5   198   199    2
     6   207   208    1
     7   197   200    1
     8   189   188    1
     9   189   192    1
    10   208   209    1
    11   208   211    1
    12   210   209    2
    13   194   192    1
    14   200   201    1
    15   212   211    1
    16   212   213    1
    17   202   201   ar
    18   202   204   ar
    19   192   193    1
    20   201   203   ar
    21   204   206   ar
    22    97    96    1
    23   214   213    1
    24   214   215    2
    25   203   205   ar
    26   108   109    1
    27   108   107    1
    28   206   205   ar
    29   217   215    1
    30   193   195    1
    31   109   103    1
    32    96    98    1
    33    96    95    2
    34    32    31    1
    35   215   216    1
    36   107   104    1
    37   237   236   ar
    38    93    94    1
    39    93    92    1
    40    95    94    1
    41    92    89    1
    42    56    55    1
    43   103   104    1
    44   103   101   am
    45    31    30   ar
    46    31    29   ar
    47    38    37    1
    48   236   235    1
    49   236   238   ar
    50   100   101    1
    51   100    99    1
    52    39    37    1
    53   117   115   am
    54   235   234    1
    55   104   105    1
    56   230   231    1
    57    30    28   ar
    58    37    34    1
    59   101   102    2
    60    55    54    1
    61    29    27   ar
    62   116   115    2
    63    89    90    1
    64    89    88    1
    65   115   114    1
    66   231   234    1
    67   231   232    1
    68    91    90    2
    69   220   219    1
    70   220   221    2
    71   105   110   am
    72   105   106    2
    73   110   111    1
    74   219   218    1
    75   219   222    1
    76    16    15    2
    77    28    26   ar
    78    88    79   am
    79    54    53    1
    80    27    26   ar
    81    34    33    1
    82    34    35    1
    83   224   226   ar
    84   224   223   ar
    85   114   111    1
    86    15    14    1
    87   226   228   ar
    88   111   112    1
    89   232   233    2
    90    26    25    1
    91   222   223    1
    92    33    23   am
    93   187   185    1
    94    35    36    2
    95   223   225   ar
    96   186   185    1
    97    79    80    2
    98    79    78    1
    99    53    52    1
   100   228   229    1
   101   228   227   ar
   102   185   182    1
   103   126   124   ar
   104     4     3    2
   105   112   118   am
   106   112   113    2
   107   225   227   ar
   108    14    17    1
   109    14    13    1
   110    21    22    1
   111    23    22    1
   112    23    24    2
   113   118   119    1
   114    87    85    1
   115    25    22    1
   116    17    18    1
   117    78    77    1
   118    78    81    1
   119    52    49    1
   120   246   245   ar
   121    86    85    1
   122     3    13   am
   123     3     2    1
   124    85    84    2
   125   124   123    1
   126   124   125   ar
   127    69    70    1
   128    69    66    1
   129    82    81    1
   130    82    83    1
   131    77    67   am
   132    72    70   ar
   133    72    74   ar
   134   182   181    1
   135   182   183    1
   136    70    71   ar
   137   123   122    1
   138    74    75   ar
   139    84    83    1
   140   122   119    1
   141   119   120    1
   142    67    68    2
   143    67    66    1
   144   239   240    1
   145    71    73   ar
   146   172   173    1
   147   172   169    1
   148   181   176   am
   149   183   184    2
   150   245   247   ar
   151   245   244    1
   152    75    73   ar
   153    75    76    1
   154    20    18    1
   155   243   240    1
   156   243   244    1
   157    18    19    1
   158     2     1    1
   159     2     5    1
   160    49    48    1
   161    49    50    1
   162   171   170    2
   163   120   121    2
   164    66    65    1
   165    48    42   am
   166   240   241    1
   167   176   177    2
   168   176   175    1
   169   170   169    1
   170   170   174   am
   171    64    62    1
   172    47    45   am
   173     7     9   ar
   174     7     6   ar
   175     9    11   ar
   176    44    45    1
   177    44    41    1
   178   175   174    1
   179   175   178    1
   180   169   168    1
   181    50    51    2
   182    40    41    1
   183     6     5    1
   184     6     8   ar
   185    12    11    1
   186    11    10   ar
   187    42    41    1
   188    42    43    2
   189    45    46    2
   190     8    10   ar
   191   241   242    2
   192    62    61    1
   193    62    63    1
   194   178   179    1
   195   178   180    1
   196    61    58    1
   197   156   154    1
   198   160   159    2
   199   155   154    1
   200   154   151    1
   201    58    57    1
   202    58    59    1
   203    59    60    2
   204   159   158    1
   205   161   158    1
   206   161   162    1
   207   151   152    1
   208   151   150    1
   209   157   158    1
   210   157   152   am
   211   164   162   ar
   212   164   166   ar
   213   152   153    2
   214   162   163   ar
   215   139   138    1
   216   150   143   am
   217   166   167   ar
   218   140   138    1
   219   163   165   ar
   220   143   144    2
   221   143   142    1
   222   138   135    1
   223   145   142    1
   224   145   146    1
   225   141   142    1
   226   141   136   am
   227   167   165   ar
   228   130   129    2
   229   135   136    1
   230   135   134    1
   231   147   146    1
   232   147   148    1
   233   136   137    2
   234   149   148    1
   235   129   134   am
   236   129   128    1
   237   127   128    1
   238   127   133    1
   239   128   131    1
   240   133   132    1
   241   131   132    1
