@<TRIPOS>MOLECULE
tmp/5wu3B00.pdb
 185 173 0 0 0
SMALL
GASTEIGER

@<TRIPOS>ATOM
      1  N        -55.9970   -7.0630    3.6430 N.3    59  PHE59      -0.1227
      2  CA       -55.7210   -8.0810    4.6530 C.3    59  PHE59       0.1736
      3  C        -54.7610   -7.5720    5.7290 C.2    59  PHE59       0.2596
      4  O        -54.2940   -6.4350    5.6730 O.2    59  PHE59      -0.2718
      5  CB       -55.1780   -9.3650    3.9990 C.3    59  PHE59       0.0547
      6  CG       -53.8100   -9.2240    3.3750 C.ar   59  PHE59      -0.0202
      7  CD1      -52.6650   -9.5640    4.0880 C.ar   59  PHE59      -0.0042
      8  CD2      -53.6710   -8.7970    2.0630 C.ar   59  PHE59      -0.0042
      9  CE1      -51.4110   -9.4580    3.5140 C.ar   59  PHE59      -0.0003
     10  CE2      -52.4150   -8.6850    1.4840 C.ar   59  PHE59      -0.0003
     11  CZ       -51.2840   -9.0170    2.2110 C.ar   59  PHE59      -0.0000
     12  N        -54.4840   -8.4150    6.7160 N.am   60  GLY60      -0.1942
     13  CA       -53.5780   -8.0500    7.7890 C.3    60  GLY60       0.2014
     14  C        -54.2480   -7.2160    8.8610 C.2    60  GLY60       0.2639
     15  O        -55.4420   -7.3740    9.1220 O.2    60  GLY60      -0.2714
     16  N        -53.4800   -6.3060    9.4550 N.am   61  SER61      -0.1949
     17  CA       -53.9270   -5.5070   10.5940 C.3    61  SER61       0.1924
     18  C        -55.2870   -4.8530   10.3910 C.2    61  SER61       0.2314
     19  O        -56.0800   -4.7590   11.3240 O.2    61  SER61      -0.2863
     20  CB       -52.8990   -4.4180   10.9080 C.3    61  SER61       0.2116
     21  OG       -51.7840   -4.9450   11.5990 O.3    61  SER61      -0.2180
     22  N        -57.8790   -7.8890   10.4780 N.3    64  ASN64      -0.1240
     23  CA       -57.6850   -9.0070   11.4100 C.3    64  ASN64       0.1653
     24  C        -57.9700   -8.6780   12.8810 C.2    64  ASN64       0.2266
     25  O        -57.7040   -9.5030   13.7590 O.2    64  ASN64      -0.2867
     26  CB       -56.2630   -9.5930   11.2760 C.3    64  ASN64       0.1155
     27  CG       -55.1680   -8.6750   11.8250 C.2    64  ASN64       0.2627
     28  OD1      -55.4300   -7.6710   12.4920 O.2    64  ASN64      -0.2716
     29  ND2      -53.9210   -9.0410   11.5530 N.am   64  ASN64      -0.0877
     30  N        -56.5490   -6.7810   14.9860 N.3    66  PHE66      -0.1241
     31  CA       -55.4030   -6.3710   15.7980 C.3    66  PHE66       0.1605
     32  C        -54.8180   -5.0150   15.3840 C.2    66  PHE66       0.2264
     33  O        -53.7230   -4.6430   15.8030 O.2    66  PHE66      -0.2867
     34  CB       -54.3560   -7.4730   15.7950 C.3    66  PHE66       0.0534
     35  CG       -54.8630   -8.7550   16.3780 C.ar   66  PHE66      -0.0203
     36  CD1      -55.1150   -8.8560   17.7350 C.ar   66  PHE66      -0.0042
     37  CD2      -55.1360   -9.8430   15.5690 C.ar   66  PHE66      -0.0042
     38  CE1      -55.6030  -10.0260   18.2790 C.ar   66  PHE66      -0.0003
     39  CE2      -55.6220  -11.0130   16.1090 C.ar   66  PHE66      -0.0003
     40  CZ       -55.8550  -11.1040   17.4640 C.ar   66  PHE66      -0.0000
     41  N        -50.6220    1.6040   11.5240 N.3    71  CYS71      -0.1221
     42  CA       -50.2530    0.2930   10.9980 C.3    71  CYS71       0.1808
     43  C        -50.3600    0.2700    9.4710 C.2    71  CYS71       0.2601
     44  O        -50.9970    1.1330    8.8660 O.2    71  CYS71      -0.2717
     45  CB       -51.1120   -0.8100   11.6320 C.3    71  CYS71       0.0970
     46  SG       -52.8520   -0.8500   11.1390 S.3    71  CYS71      -0.0800
     47  N        -49.6870   -0.6950    8.8550 N.am   72  ASP72      -0.1973
     48  CA       -49.6420   -0.7960    7.4010 C.3    72  ASP72       0.1709
     49  C        -50.9970   -1.1690    6.8100 C.2    72  ASP72       0.2293
     50  O        -51.8360   -1.7820    7.4710 O.2    72  ASP72      -0.2864
     51  CB       -48.5940   -1.8240    6.9670 C.3    72  ASP72       0.1436
     52  CG       -47.2240   -1.5440    7.5500 C.2    72  ASP72       0.3671
     53  OD1      -46.2200   -1.7280    6.8300 O.co2  72  ASP72      -0.2456
     54  OD2      -47.1490   -1.1500    8.7320 O.co2  72  ASP72      -0.2456
     55  N        -52.2490   -3.5220    4.0120 N.3    74  ASP74      -0.1239
     56  CA       -51.7760   -4.6100    3.1570 C.3    74  ASP74       0.1674
     57  C        -52.8450   -5.0300    2.1560 C.2    74  ASP74       0.2266
     58  O        -53.9800   -5.3160    2.5320 O.2    74  ASP74      -0.2867
     59  CB       -51.3530   -5.8170    4.0000 C.3    74  ASP74       0.1410
     60  CG       -50.2140   -5.4990    4.9540 C.2    74  ASP74       0.3668
     61  OD1      -49.1030   -5.1900    4.4710 O.co2  74  ASP74      -0.2456
     62  OD2      -50.4250   -5.5690    6.1870 O.co2  74  ASP74      -0.2456
     63  N        -42.3480  -13.8090    0.1480 N.3   118  ARG118     -0.1245
     64  CA       -43.6050  -13.5000   -0.5110 C.3   118  ARG118      0.1563
     65  C        -43.4630  -12.1490   -1.2100 C.2   118  ARG118      0.2260
     66  O        -43.5360  -11.1000   -0.5680 O.2   118  ARG118     -0.2867
     67  CB       -44.7550  -13.5050    0.5010 C.3   118  ARG118      0.0307
     68  CG       -44.9880  -14.8700    1.1500 C.3   118  ARG118      0.0489
     69  CD       -45.6910  -14.7830    2.5000 C.3   118  ARG118      0.2205
     70  NE       -44.7970  -14.2850    3.5430 N.pl3 118  ARG118     -0.0865
     71  CZ       -44.6500  -13.0070    3.8660 C.cat 118  ARG118      0.5346
     72  NH1      -45.3440  -12.0750    3.2280 N.pl3 118  ARG118      0.1354
     73  NH2      -43.8040  -12.6630    4.8280 N.pl3 118  ARG118      0.1354
     74  N        -50.3930  -13.7080   -2.1980 N.3   138  ASN138     -0.1240
     75  CA       -50.4210  -14.5040   -0.9880 C.3   138  ASN138      0.1653
     76  C        -51.8950  -14.5840   -0.6380 C.2   138  ASN138      0.2266
     77  O        -52.4520  -13.6560   -0.0510 O.2   138  ASN138     -0.2867
     78  CB       -49.6000  -13.8610    0.1360 C.3   138  ASN138      0.1155
     79  CG       -49.4530  -14.7640    1.3510 C.2   138  ASN138      0.2627
     80  OD1      -49.5820  -15.9830    1.2540 O.2   138  ASN138     -0.2716
     81  ND2      -49.1750  -14.1640    2.5020 N.am  138  ASN138     -0.0877
     82  N        -53.1500  -17.0000    1.2120 N.3   140  LEU140     -0.1231
     83  CA       -53.2040  -17.5280    2.5660 C.3   140  LEU140      0.1693
     84  C        -53.4130  -16.3970    3.5530 C.2   140  LEU140      0.2591
     85  O        -54.0680  -16.5740    4.5750 O.2   140  LEU140     -0.2718
     86  CB       -51.9300  -18.2980    2.9070 C.3   140  LEU140      0.0284
     87  CG       -51.7790  -19.6460    2.2090 C.3   140  LEU140      0.0019
     88  CD1      -50.4140  -20.2550    2.4810 C.3   140  LEU140      0.0001
     89  CD2      -52.8830  -20.5780    2.6560 C.3   140  LEU140      0.0001
     90  N        -52.8530  -15.2370    3.2280 N.am  141  ALA141     -0.1980
     91  CA       -52.9530  -14.0510    4.0700 C.3   141  ALA141      0.1597
     92  C        -54.4070  -13.6770    4.3820 C.2   141  ALA141      0.2287
     93  O        -54.7320  -13.3330    5.5190 O.2   141  ALA141     -0.2864
     94  CB       -52.2400  -12.8920    3.4060 C.3   141  ALA141      0.0319
     95  N        -55.7100  -16.3600    6.9290 N.3   144  ASN144     -0.1225
     96  CA       -55.1230  -16.3050    8.2630 C.3   144  ASN144      0.1785
     97  C        -55.5200  -14.9990    8.9520 C.2   144  ASN144      0.2597
     98  O        -55.6020  -14.9380   10.1800 O.2   144  ASN144     -0.2718
     99  CB       -53.5920  -16.5100    8.2240 C.3   144  ASN144      0.1169
    100  CG       -52.8230  -15.3500    7.5830 C.2   144  ASN144      0.2627
    101  OD1      -53.2170  -14.1930    7.6580 O.2   144  ASN144     -0.2716
    102  ND2      -51.6990  -15.6760    6.9540 N.am  144  ASN144     -0.0877
    103  N        -55.7850  -13.9680    8.1510 N.am  145  SER145     -0.1952
    104  CA       -56.3450  -12.7240    8.6680 C.3   145  SER145      0.1924
    105  C        -57.7140  -13.0040    9.2670 C.2   145  SER145      0.2314
    106  O        -57.9910  -12.6750   10.4320 O.2   145  SER145     -0.2863
    107  CB       -56.4560  -11.6620    7.5700 C.3   145  SER145      0.2116
    108  OG       -55.1900  -11.1070    7.2500 O.3   145  SER145     -0.2180
    109  N        -57.3750  -14.8780   12.4860 N.3   148  LEU148     -0.1245
    110  CA       -57.0500  -14.0380   13.6370 C.3   148  LEU148      0.1561
    111  C        -58.2940  -13.2990   14.1340 C.2   148  LEU148      0.2260
    112  O        -58.5300  -13.1900   15.3470 O.2   148  LEU148     -0.2867
    113  CB       -55.9380  -13.0440   13.2990 C.3   148  LEU148      0.0270
    114  CG       -54.5540  -13.6090   12.9630 C.3   148  LEU148      0.0019
    115  CD1      -53.4830  -12.5400   13.1180 C.3   148  LEU148      0.0001
    116  CD2      -54.2260  -14.8290   13.8090 C.3   148  LEU148      0.0001
    117  N        -48.1140   -6.8940   22.5360 N.3   166  ARG166     -0.1245
    118  CA       -47.5400   -6.2700   21.3550 C.3   166  ARG166      0.1563
    119  C        -46.8250   -4.9910   21.7610 C.2   166  ARG166      0.2260
    120  O        -45.6630   -4.7810   21.4080 O.2   166  ARG166     -0.2867
    121  CB       -48.6160   -5.9790   20.3050 C.3   166  ARG166      0.0307
    122  CG       -48.1230   -6.0160   18.8600 C.3   166  ARG166      0.0489
    123  CD       -47.8360   -4.6240   18.3090 C.3   166  ARG166      0.2205
    124  NE       -48.4900   -4.4040   17.0190 N.pl3 166  ARG166     -0.0865
    125  CZ       -48.2960   -3.3370   16.2500 C.cat 166  ARG166      0.5346
    126  NH1      -47.4580   -2.3850   16.6320 N.pl3 166  ARG166      0.1354
    127  NH2      -48.9360   -3.2230   15.0930 N.pl3 166  ARG166      0.1354
    128  N        -42.0120  -10.6280   13.7470 N.3   182  SER182     -0.1202
    129  CA       -43.0690   -9.8490   13.1240 C.3   182  SER182      0.2020
    130  C        -44.2630   -9.8350   14.0690 C.2   182  SER182      0.2619
    131  O        -44.3940  -10.7150   14.9210 O.2   182  SER182     -0.2717
    132  CB       -43.4590  -10.4170   11.7570 C.3   182  SER182      0.2103
    133  OG       -44.0150  -11.7150   11.8720 O.3   182  SER182     -0.2182
    134  N        -45.1200   -8.8280   13.9310 N.am  183  ASN183     -0.1960
    135  CA       -46.2930   -8.7120   14.7870 C.3   183  ASN183      0.1819
    136  C        -47.2230   -9.9040   14.5970 C.2   183  ASN183      0.2621
    137  O        -47.8720  -10.3650   15.5450 O.2   183  ASN183     -0.2715
    138  CB       -47.0340   -7.4000   14.5080 C.3   183  ASN183      0.1195
    139  CG       -46.2680   -6.1760   15.0030 C.2   183  ASN183      0.2630
    140  OD1      -45.6230   -6.2070   16.0550 O.2   183  ASN183     -0.2716
    141  ND2      -46.3380   -5.0910   14.2390 N.am  183  ASN183     -0.0877
    142  N        -47.2500  -10.4210   13.3720 N.am  184  TYR184     -0.1974
    143  CA       -48.0300  -11.6100   13.0520 C.3   184  TYR184      0.1639
    144  C        -47.5360  -12.7870   13.8860 C.2   184  TYR184      0.2290
    145  O        -48.3350  -13.5220   14.4650 O.2   184  TYR184     -0.2864
    146  CB       -47.9470  -11.9290   11.5540 C.3   184  TYR184      0.0560
    147  CG       -48.7540  -13.1390   11.1270 C.ar  184  TYR184     -0.0198
    148  CD1      -50.1390  -13.1610   11.2550 C.ar  184  TYR184     -0.0009
    149  CD2      -48.1300  -14.2560   10.5830 C.ar  184  TYR184     -0.0009
    150  CE1      -50.8790  -14.2710   10.8630 C.ar  184  TYR184      0.0417
    151  CE2      -48.8570  -15.3640   10.1880 C.ar  184  TYR184      0.0417
    152  CZ       -50.2300  -15.3670   10.3300 C.ar  184  TYR184      0.1957
    153  OH       -50.9470  -16.4710    9.9370 O.3   184  TYR184     -0.2866
    154  N        -48.5160  -12.3930   17.5680 N.3   187  THR187     -0.1218
    155  CA       -49.9250  -12.7430   17.7130 C.3   187  THR187      0.1862
    156  C        -50.1010  -14.2600   17.7070 C.2   187  THR187      0.2287
    157  O        -50.8300  -14.8150   18.5350 O.2   187  THR187     -0.2866
    158  CB       -50.7790  -12.1180   16.6010 C.3   187  THR187      0.1770
    159  OG1      -50.5180  -10.7120   16.5400 O.3   187  THR187     -0.2211
    160  CG2      -52.2620  -12.3370   16.8770 C.3   187  THR187      0.0375
    161  N        -47.0610  -21.6580   11.1590 N.3   295  ASP295     -0.1239
    162  CA       -48.2830  -21.0380   10.6810 C.3   295  ASP295      0.1674
    163  C        -49.4300  -22.0410   10.7930 C.2   295  ASP295      0.2266
    164  O        -49.2220  -23.2390   10.5880 O.2   295  ASP295     -0.2867
    165  CB       -48.0960  -20.5630    9.2360 C.3   295  ASP295      0.1410
    166  CG       -49.2980  -19.8110    8.6990 C.2   295  ASP295      0.3668
    167  OD1      -49.3890  -18.5870    8.9340 O.co2 295  ASP295     -0.2456
    168  OD2      -50.1430  -20.4400    8.0290 O.co2 295  ASP295     -0.2456
    169  N        -44.1510  -23.3110    6.7780 N.3   301  HIS301     -0.1241
    170  CA       -43.7660  -21.9440    7.1110 C.3   301  HIS301      0.1621
    171  C        -43.5000  -21.7410    8.5950 C.2   301  HIS301      0.2264
    172  O        -44.4150  -21.8080    9.4140 O.2   301  HIS301     -0.2867
    173  CB       -44.8440  -20.9580    6.6550 C.3   301  HIS301      0.0745
    174  CG       -44.4480  -19.5200    6.7950 C.ar  301  HIS301      0.0817
    175  ND1      -43.1430  -19.0900    6.6720 N.ar  301  HIS301     -0.2268
    176  CD2      -45.1880  -18.4080    7.0230 C.ar  301  HIS301      0.1154
    177  CE1      -43.0950  -17.7800    6.8300 C.ar  301  HIS301      0.1986
    178  NE2      -44.3220  -17.3410    7.0440 N.ar  301  HIS301     -0.2212
    179  N        -42.8960  -18.8710   10.8740 N.3   303  VAL303     -0.1245
    180  CA       -43.0660  -17.4220   10.8210 C.3   303  VAL303      0.1561
    181  C        -42.0090  -16.7020   11.6530 C.2   303  VAL303      0.2260
    182  O        -41.8330  -15.4900   11.5340 O.2   303  VAL303     -0.2867
    183  CB       -44.4690  -17.0010   11.3110 C.3   303  VAL303      0.0252
    184  CG1      -45.5420  -17.6940   10.4870 C.3   303  VAL303      0.0019
    185  CG2      -44.6450  -17.3160   12.7940 C.3   303  VAL303      0.0019
@<TRIPOS>BOND
     1    74    75    1
     2    65    66    2
     3    65    64    1
     4    75    76    1
     5    75    78    1
     6    76    77    2
     7    64    63    1
     8    64    67    1
     9    78    79    1
    10    67    68    1
    11    68    69    1
    12    82    83    1
    13    80    79    2
    14    79    81   am
    15    10     8   ar
    16    10    11   ar
    17     8     6   ar
    18    57    58    2
    19    57    56    1
    20    87    88    1
    21    87    89    1
    22    87    86    1
    23    11     9   ar
    24    69    70    1
    25    83    86    1
    26    83    84    1
    27    56    59    1
    28    56    55    1
    29    90    84   am
    30    90    91    1
    31    72    71    1
    32     6     5    1
    33     6     7   ar
    34    94    91    1
    35     9     7   ar
    36    70    71    2
    37    84    85    2
    38     1     2    1
    39    71    73    1
    40     5     2    1
    41    59    60    1
    42    91    92    1
    43    92    93    2
    44    61    60   ar
    45     2     3    1
    46    60    62   ar
    47     4     3    2
    48     3    12   am
    49   173   174    1
    50   173   170    1
    51   175   174   ar
    52   175   177   ar
    53    12    13    1
    54   169   170    1
    55   174   176   ar
    56    49    48    1
    57    49    50    2
    58    53    52   ar
    59   177   178   ar
    60    95    96    1
    61   102   100   am
    62    51    48    1
    63    51    52    1
    64   176   178   ar
    65   170   171    1
    66   108   107    1
    67    48    47    1
    68    52    54   ar
    69   107   104    1
    70   100   101    2
    71   100    99    1
    72    13    14    1
    73   168   166   ar
    74   103   104    1
    75   103    97   am
    76    99    96    1
    77    96    97    1
    78   171   172    2
    79   104   105    1
    80   166   167   ar
    81   166   165    1
    82    47    43   am
    83    14    15    2
    84    14    16   am
    85    44    43    2
    86    97    98    2
    87   165   162    1
    88   105   106    2
    89    16    17    1
    90    43    42    1
    91   153   152    1
    92   151   152   ar
    93   151   149   ar
    94   152   150   ar
    95    18    17    1
    96    18    19    2
    97    22    23    1
    98   184   183    1
    99   149   147   ar
   100   164   163    2
   101    17    20    1
   102   162   163    1
   103   162   161    1
   104   180   179    1
   105   180   183    1
   106   180   181    1
   107   150   148   ar
   108    20    21    1
   109    42    41    1
   110    42    45    1
   111   147   148   ar
   112   147   146    1
   113    46    45    1
   114    26    23    1
   115    26    27    1
   116   183   185    1
   117    23    24    1
   118   182   181    2
   119    29    27   am
   120   146   143    1
   121   132   133    1
   122   132   129    1
   123    27    28    2
   124   109   110    1
   125    24    25    2
   126   114   115    1
   127   114   113    1
   128   114   116    1
   129   143   142    1
   130   143   144    1
   131   129   128    1
   132   129   130    1
   133   113   110    1
   134   142   136   am
   135   110   111    1
   136   144   145    2
   137   134   130   am
   138   134   135    1
   139   130   131    2
   140   111   112    2
   141   141   139   am
   142   138   135    1
   143   138   139    1
   144   136   135    1
   145   136   137    2
   146    30    31    1
   147   139   140    2
   148   127   125    1
   149    32    31    1
   150    32    33    2
   151    37    39   ar
   152    37    35   ar
   153    34    31    1
   154    34    35    1
   155    39    40   ar
   156   125   126    1
   157   125   124    2
   158    35    36   ar
   159   159   158    1
   160   158   160    1
   161   158   155    1
   162   124   123    1
   163    40    38   ar
   164   154   155    1
   165   156   155    1
   166   156   157    2
   167    36    38   ar
   168   123   122    1
   169   122   121    1
   170   121   118    1
   171   118   119    1
   172   118   117    1
   173   120   119    2
