@<TRIPOS>MOLECULE
tmp/5wu4B00.pdb
 193 179 0 0 0
SMALL
GASTEIGER

@<TRIPOS>ATOM
      1  N        -54.4060   -6.0350    3.1030 N.3    59  PHE59      -0.1227
      2  CA       -54.1310   -7.0770    4.0820 C.3    59  PHE59       0.1736
      3  C        -53.1520   -6.5560    5.1280 C.2    59  PHE59       0.2596
      4  O        -52.7190   -5.4060    5.0670 O.2    59  PHE59      -0.2718
      5  CB       -53.5810   -8.3380    3.4060 C.3    59  PHE59       0.0547
      6  CG       -52.2000   -8.1750    2.8310 C.ar   59  PHE59      -0.0202
      7  CD1      -51.0810   -8.5140    3.5760 C.ar   59  PHE59      -0.0042
      8  CD2      -52.0210   -7.6920    1.5460 C.ar   59  PHE59      -0.0042
      9  CE1      -49.8110   -8.3690    3.0550 C.ar   59  PHE59      -0.0003
     10  CE2      -50.7510   -7.5460    1.0200 C.ar   59  PHE59      -0.0003
     11  CZ       -49.6450   -7.8860    1.7760 C.ar   59  PHE59      -0.0000
     12  N        -52.8080   -7.4060    6.0880 N.am   60  GLY60      -0.1942
     13  CA       -51.8980   -7.0170    7.1470 C.3    60  GLY60       0.2014
     14  C        -52.5790   -6.2450    8.2610 C.2    60  GLY60       0.2639
     15  O        -53.7490   -6.4780    8.5640 O.2    60  GLY60      -0.2714
     16  N        -51.8370   -5.3130    8.8540 N.am   61  SER61      -0.1949
     17  CA       -52.2750   -4.5580   10.0260 C.3    61  SER61       0.1924
     18  C        -53.6170   -3.8550    9.8310 C.2    61  SER61       0.2314
     19  O        -54.4130   -3.7550   10.7640 O.2    61  SER61      -0.2863
     20  CB       -51.2110   -3.5280   10.4090 C.3    61  SER61       0.2116
     21  OG       -51.2750   -3.2080   11.7860 O.3    61  SER61      -0.2180
     22  N        -56.4140   -6.7210    9.8950 N.3    64  ASN64      -0.1240
     23  CA       -56.2670   -7.8390   10.8330 C.3    64  ASN64       0.1653
     24  C        -56.5870   -7.4800   12.2860 C.2    64  ASN64       0.2266
     25  O        -56.3570   -8.2880   13.1870 O.2    64  ASN64      -0.2867
     26  CB       -54.8580   -8.4440   10.7370 C.3    64  ASN64       0.1155
     27  CG       -53.7930   -7.5910   11.4060 C.2    64  ASN64       0.2627
     28  OD1      -54.0150   -6.4230   11.7200 O.2    64  ASN64      -0.2716
     29  ND2      -52.6190   -8.1780   11.6160 N.am   64  ASN64      -0.0877
     30  N        -52.1510   -0.2970   14.4550 N.3    68  VAL68      -0.1245
     31  CA       -51.7300    0.8090   15.3120 C.3    68  VAL68       0.1561
     32  C        -51.5270    2.0660   14.4670 C.2    68  VAL68       0.2260
     33  O        -51.4910    1.9890   13.2410 O.2    68  VAL68      -0.2867
     34  CB       -50.4300    0.4910   16.0710 C.3    68  VAL68       0.0252
     35  CG1      -50.6210   -0.7200   16.9660 C.3    68  VAL68       0.0019
     36  CG2      -49.2910    0.2630   15.0940 C.3    68  VAL68       0.0019
     37  N        -49.2300    2.6340   11.0160 N.3    71  CYS71      -0.1221
     38  CA       -48.9130    1.3080   10.5010 C.3    71  CYS71       0.1808
     39  C        -48.9240    1.2910    8.9750 C.2    71  CYS71       0.2601
     40  O        -49.4880    2.1780    8.3340 O.2    71  CYS71      -0.2717
     41  CB       -49.8850    0.2610   11.0510 C.3    71  CYS71       0.0970
     42  SG       -51.5870    0.4010   10.4620 S.3    71  CYS71      -0.0800
     43  N        -48.2760    0.2820    8.4040 N.am   72  ASP72      -0.1973
     44  CA       -48.1920    0.1320    6.9570 C.3    72  ASP72       0.1709
     45  C        -49.5530   -0.1180    6.3280 C.2    72  ASP72       0.2293
     46  O        -50.4520   -0.6670    6.9640 O.2    72  ASP72      -0.2864
     47  CB       -47.2500   -1.0180    6.5920 C.3    72  ASP72       0.1436
     48  CG       -45.7990   -0.6880    6.8570 C.2    72  ASP72       0.3671
     49  OD1      -44.9230   -1.2800    6.1900 O.co2  72  ASP72      -0.2456
     50  OD2      -45.5340    0.1670    7.7270 O.co2  72  ASP72      -0.2456
     51  N        -50.7430   -2.3910    3.4760 N.3    74  ASP74      -0.1239
     52  CA       -50.2700   -3.4770    2.6290 C.3    74  ASP74       0.1674
     53  C        -51.3380   -3.8770    1.6190 C.2    74  ASP74       0.2266
     54  O        -52.4650   -4.1970    1.9900 O.2    74  ASP74      -0.2867
     55  CB       -49.8560   -4.6780    3.4810 C.3    74  ASP74       0.1410
     56  CG       -48.7730   -4.3310    4.4900 C.2    74  ASP74       0.3668
     57  OD1      -47.6030   -4.1910    4.0790 O.co2  74  ASP74      -0.2456
     58  OD2      -49.0880   -4.2000    5.6930 O.co2  74  ASP74      -0.2456
     59  N        -37.9730  -12.7820   -0.2770 N.3   117  ARG117     -0.1231
     60  CA       -38.6910  -14.0460   -0.4080 C.3   117  ARG117      0.1694
     61  C        -40.0730  -13.7900   -0.9920 C.2   117  ARG117      0.2591
     62  O        -40.4880  -14.4420   -1.9510 O.2   117  ARG117     -0.2718
     63  CB       -38.8090  -14.7570    0.9400 C.3   117  ARG117      0.0321
     64  CG       -39.9120  -15.8020    0.9790 C.3   117  ARG117      0.0489
     65  CD       -40.0250  -16.4520    2.3450 C.3   117  ARG117      0.2205
     66  NE       -41.3150  -17.1140    2.5190 N.pl3 117  ARG117     -0.0865
     67  CZ       -42.3600  -16.5610    3.1250 C.cat 117  ARG117      0.5346
     68  NH1      -43.4980  -17.2320    3.2390 N.pl3 117  ARG117      0.1354
     69  NH2      -42.2670  -15.3350    3.6230 N.pl3 117  ARG117      0.1354
     70  N        -40.7770  -12.8310   -0.4010 N.am  118  ARG118     -0.1980
     71  CA       -42.0180  -12.3300   -0.9690 C.3   118  ARG118      0.1597
     72  C        -41.7290  -11.0360   -1.7220 C.2   118  ARG118      0.2287
     73  O        -41.4860   -9.9960   -1.1070 O.2   118  ARG118     -0.2864
     74  CB       -43.0630  -12.1040    0.1270 C.3   118  ARG118      0.0334
     75  CG       -43.4860  -13.3780    0.8450 C.3   118  ARG118      0.0492
     76  CD       -44.2100  -13.0850    2.1540 C.3   118  ARG118      0.2205
     77  NE       -43.3060  -12.5580    3.1730 N.pl3 118  ARG118     -0.0865
     78  CZ       -43.3450  -11.3150    3.6410 C.cat 118  ARG118      0.5346
     79  NH1      -44.2530  -10.4600    3.1920 N.pl3 118  ARG118      0.1354
     80  NH2      -42.4780  -10.9290    4.5670 N.pl3 118  ARG118      0.1354
     81  N        -46.7430   -1.5320    1.0850 N.3   133  ASP133     -0.1239
     82  CA       -46.1600   -2.5750    0.2540 C.3   133  ASP133      0.1674
     83  C        -47.2000   -3.1680   -0.6990 C.2   133  ASP133      0.2266
     84  O        -48.2790   -3.5800   -0.2720 O.2   133  ASP133     -0.2867
     85  CB       -45.5660   -3.6770    1.1340 C.3   133  ASP133      0.1410
     86  CG       -44.5840   -3.1440    2.1610 C.2   133  ASP133      0.3668
     87  OD1      -45.0170   -2.8170    3.2870 O.co2 133  ASP133     -0.2456
     88  OD2      -43.3780   -3.0590    1.8470 O.co2 133  ASP133     -0.2456
     89  N        -49.2240  -12.4300   -2.8360 N.3   138  ASN138     -0.1240
     90  CA       -49.3290  -13.1750   -1.5980 C.3   138  ASN138      0.1653
     91  C        -50.8200  -13.3660   -1.3580 C.2   138  ASN138      0.2266
     92  O        -51.5060  -12.4310   -0.9450 O.2   138  ASN138     -0.2867
     93  CB       -48.6540  -12.4320   -0.4420 C.3   138  ASN138      0.1155
     94  CG       -48.2590  -13.3520    0.6960 C.2   138  ASN138      0.2627
     95  OD1      -48.4050  -14.5700    0.6040 O.2   138  ASN138     -0.2716
     96  ND2      -47.7400  -12.7730    1.7740 N.am  138  ASN138     -0.0877
     97  N        -51.5430  -14.2720    2.6810 N.3   141  ALA141     -0.1245
     98  CA       -51.5440  -13.1120    3.5670 C.3   141  ALA141      0.1562
     99  C        -52.9630  -12.6560    3.8820 C.2   141  ALA141      0.2260
    100  O        -53.2810  -12.3160    5.0230 O.2   141  ALA141     -0.2867
    101  CB       -50.7510  -11.9780    2.9460 C.3   141  ALA141      0.0290
    102  N        -54.5820  -15.4320    6.3170 N.3   144  ASN144     -0.1225
    103  CA       -54.0580  -15.4560    7.6780 C.3   144  ASN144      0.1785
    104  C        -54.3180  -14.1220    8.3770 C.2   144  ASN144      0.2597
    105  O        -54.3730  -14.0600    9.6050 O.2   144  ASN144     -0.2718
    106  CB       -52.5660  -15.8270    7.7010 C.3   144  ASN144      0.1169
    107  CG       -51.7030  -14.9060    6.8590 C.2   144  ASN144      0.2627
    108  OD1      -51.8940  -13.6920    6.8410 O.2   144  ASN144     -0.2716
    109  ND2      -50.7270  -15.4870    6.1670 N.am  144  ASN144     -0.0877
    110  N        -54.4950  -13.0600    7.5910 N.am  145  SER145     -0.1952
    111  CA       -54.9500  -11.7870    8.1450 C.3   145  SER145      0.1924
    112  C        -56.3730  -11.9350    8.6700 C.2   145  SER145      0.2314
    113  O        -56.6710  -11.5920    9.8200 O.2   145  SER145     -0.2863
    114  CB       -54.8920  -10.6730    7.0980 C.3   145  SER145      0.2116
    115  OG       -53.5570  -10.4140    6.7000 O.3   145  SER145     -0.2180
    116  N        -56.3990  -13.8640   11.6970 N.3   148  LEU148     -0.1245
    117  CA       -56.0730  -13.0580   12.8700 C.3   148  LEU148      0.1561
    118  C        -57.3130  -12.3170   13.3540 C.2   148  LEU148      0.2260
    119  O        -57.5890  -12.2570   14.5550 O.2   148  LEU148     -0.2867
    120  CB       -54.9540  -12.0580   12.5630 C.3   148  LEU148      0.0270
    121  CG       -53.5580  -12.5950   12.2340 C.3   148  LEU148      0.0019
    122  CD1      -52.5110  -11.4940   12.3550 C.3   148  LEU148      0.0001
    123  CD2      -53.1970  -13.7840   13.1050 C.3   148  LEU148      0.0001
    124  N        -47.1400   -6.5990   22.0270 N.3   166  ARG166     -0.1245
    125  CA       -46.4590   -5.9290   20.9220 C.3   166  ARG166      0.1563
    126  C        -45.7380   -4.6870   21.4210 C.2   166  ARG166      0.2260
    127  O        -44.5890   -4.4380   21.0560 O.2   166  ARG166     -0.2867
    128  CB       -47.4400   -5.5440   19.8110 C.3   166  ARG166      0.0307
    129  CG       -47.6680   -6.6220   18.7610 C.3   166  ARG166      0.0489
    130  CD       -48.5020   -6.0930   17.6010 C.3   166  ARG166      0.2205
    131  NE       -48.7150   -7.1020   16.5660 N.pl3 166  ARG166     -0.0865
    132  CZ       -49.3970   -6.8920   15.4440 C.cat 166  ARG166      0.5346
    133  NH1      -49.9360   -5.7030   15.2040 N.pl3 166  ARG166      0.1354
    134  NH2      -49.5390   -7.8710   14.5610 N.pl3 166  ARG166      0.1354
    135  N        -40.8870  -10.5870   13.7010 N.3   182  SER182     -0.1202
    136  CA       -41.8820   -9.7460   13.0480 C.3   182  SER182      0.2020
    137  C        -43.1090   -9.6520   13.9460 C.2   182  SER182      0.2619
    138  O        -43.3180  -10.5150   14.7990 O.2   182  SER182     -0.2717
    139  CB       -42.2640  -10.3130   11.6830 C.3   182  SER182      0.2103
    140  OG       -42.9830  -11.5250   11.8340 O.3   182  SER182     -0.2182
    141  N        -43.9170   -8.6120   13.7590 N.am  183  ASN183     -0.1960
    142  CA       -45.1460   -8.4530   14.5320 C.3   183  ASN183      0.1819
    143  C        -46.1170   -9.6020   14.2870 C.2   183  ASN183      0.2621
    144  O        -46.8660  -10.0030   15.1800 O.2   183  ASN183     -0.2715
    145  CB       -45.8240   -7.1240   14.2020 C.3   183  ASN183      0.1195
    146  CG       -45.0880   -5.9340   14.7830 C.2   183  ASN183      0.2630
    147  OD1      -44.5130   -6.0140   15.8690 O.2   183  ASN183     -0.2716
    148  ND2      -45.1050   -4.8190   14.0620 N.am  183  ASN183     -0.0877
    149  N        -46.0960  -10.1250   13.0660 N.am  184  TYR184     -0.1974
    150  CA       -46.9220  -11.2650   12.7000 C.3   184  TYR184      0.1639
    151  C        -46.4850  -12.5120   13.4610 C.2   184  TYR184      0.2290
    152  O        -47.3170  -13.2850   13.9420 O.2   184  TYR184     -0.2864
    153  CB       -46.8530  -11.5050   11.1910 C.3   184  TYR184      0.0560
    154  CG       -47.5380  -12.7670   10.7260 C.ar  184  TYR184     -0.0198
    155  CD1      -48.9110  -12.9270   10.8580 C.ar  184  TYR184     -0.0009
    156  CD2      -46.8120  -13.7930   10.1360 C.ar  184  TYR184     -0.0009
    157  CE1      -49.5410  -14.0820   10.4260 C.ar  184  TYR184      0.0417
    158  CE2      -47.4320  -14.9490    9.7010 C.ar  184  TYR184      0.0417
    159  CZ       -48.7960  -15.0890    9.8470 C.ar  184  TYR184      0.1957
    160  OH       -49.4080  -16.2430    9.4130 O.3   184  TYR184     -0.2866
    161  N        -46.5920  -21.4780   10.5250 N.3   295  ASP295     -0.1239
    162  CA       -47.7490  -20.7900    9.9720 C.3   295  ASP295      0.1674
    163  C        -48.9600  -21.7170    9.9620 C.2   295  ASP295      0.2266
    164  O        -48.8390  -22.8960    9.6250 O.2   295  ASP295     -0.2867
    165  CB       -47.4400  -20.2870    8.5610 C.3   295  ASP295      0.1410
    166  CG       -48.6740  -19.8130    7.8250 C.2   295  ASP295      0.3668
    167  OD1      -48.9980  -18.6090    7.9120 O.co2 295  ASP295     -0.2456
    168  OD2      -49.3210  -20.6490    7.1610 O.co2 295  ASP295     -0.2456
    169  N        -43.5750  -23.2420    6.2740 N.3   301  HIS301     -0.1241
    170  CA       -43.0610  -21.9220    6.6010 C.3   301  HIS301      0.1621
    171  C        -42.8830  -21.7070    8.0960 C.2   301  HIS301      0.2264
    172  O        -43.8430  -21.7560    8.8630 O.2   301  HIS301     -0.2867
    173  CB       -43.9800  -20.8380    6.0420 C.3   301  HIS301      0.0745
    174  CG       -43.4590  -19.4500    6.2410 C.ar  301  HIS301      0.0817
    175  ND1      -42.1370  -19.1170    6.0360 N.ar  301  HIS301     -0.2268
    176  CD2      -44.0790  -18.3100    6.6250 C.ar  301  HIS301      0.1154
    177  CE1      -41.9650  -17.8320    6.2860 C.ar  301  HIS301      0.1986
    178  NE2      -43.1280  -17.3180    6.6450 N.ar  301  HIS301     -0.2212
    179  N        -42.3220  -18.8100   10.4170 N.3   303  VAL303     -0.1245
    180  CA       -42.4330  -17.3540   10.3630 C.3   303  VAL303      0.1561
    181  C        -41.3380  -16.6790   11.1810 C.2   303  VAL303      0.2260
    182  O        -41.0420  -15.5010   10.9880 O.2   303  VAL303     -0.2867
    183  CB       -43.8080  -16.8600   10.8730 C.3   303  VAL303      0.0252
    184  CG1      -44.9350  -17.4870   10.0690 C.3   303  VAL303      0.0019
    185  CG2      -43.9700  -17.1620   12.3560 C.3   303  VAL303      0.0019
    186  N        -36.0830  -16.3150   10.6940 N.3   306  ASN306     -0.1240
    187  CA       -35.0210  -15.3200   10.6230 C.3   306  ASN306      0.1653
    188  C        -34.3890  -15.0180   11.9800 C.2   306  ASN306      0.2266
    189  O        -33.3680  -14.3340   12.0550 O.2   306  ASN306     -0.2867
    190  CB       -35.5560  -14.0260   10.0090 C.3   306  ASN306      0.1155
    191  CG       -36.7670  -13.4880   10.7480 C.2   306  ASN306      0.2627
    192  OD1      -37.9080  -13.7980   10.4020 O.2   306  ASN306     -0.2716
    193  ND2      -36.5240  -12.6760   11.7720 N.am  306  ASN306     -0.0877
@<TRIPOS>BOND
     1    89    90    1
     2    62    61    2
     3    72    73    2
     4    72    71    1
     5    90    91    1
     6    90    93    1
     7    91    92    2
     8    61    60    1
     9    61    70   am
    10    71    70    1
    11    71    74    1
    12    83    84    2
    13    83    82    1
    14    93    94    1
    15    60    59    1
    16    60    63    1
    17    74    75    1
    18    82    81    1
    19    82    85    1
    20    95    94    2
    21    94    96   am
    22    75    76    1
    23    63    64    1
    24    64    65    1
    25    10     8   ar
    26    10    11   ar
    27    85    86    1
    28     8     6   ar
    29    53    54    2
    30    53    52    1
    31    11     9   ar
    32    88    86   ar
    33    76    77    1
    34    86    87   ar
    35    65    66    1
    36    66    67    2
    37    52    51    1
    38    52    55    1
    39    97    98    1
    40     6     5    1
    41     6     7   ar
    42   101    98    1
    43     9     7   ar
    44     1     2    1
    45    67    68    1
    46    67    69    1
    47    77    78    2
    48    79    78    1
    49     5     2    1
    50    55    56    1
    51    98    99    1
    52    78    80    1
    53    99   100    2
    54    57    56   ar
    55     2     3    1
    56    56    58   ar
    57     4     3    2
    58     3    12   am
    59   175   174   ar
    60   175   177   ar
    61   173   174    1
    62   173   170    1
    63    12    13    1
    64   109   107   am
    65    49    48   ar
    66   174   176   ar
    67   169   170    1
    68   177   178   ar
    69   102   103    1
    70    45    44    1
    71    45    46    2
    72    47    48    1
    73    47    44    1
    74   170   171    1
    75   176   178   ar
    76   115   114    1
    77   108   107    2
    78    48    50   ar
    79   107   106    1
    80    44    43    1
    81   114   111    1
    82    13    14    1
    83   168   166   ar
    84   110   111    1
    85   110   104   am
    86   103   106    1
    87   103   104    1
    88   166   167   ar
    89   166   165    1
    90   171   172    2
    91   111   112    1
    92    14    15    2
    93    14    16   am
    94    40    39    2
    95   104   105    2
    96    43    39   am
    97   165   162    1
    98   112   113    2
    99    16    17    1
   100    39    38    1
   101   160   159    1
   102   164   163    2
   103   158   159   ar
   104   158   156   ar
   105    18    17    1
   106    18    19    2
   107   159   157   ar
   108    22    23    1
   109   163   162    1
   110   162   161    1
   111   190   187    1
   112   190   191    1
   113    17    20    1
   114   184   183    1
   115   156   154   ar
   116   180   179    1
   117   180   183    1
   118   180   181    1
   119   192   191    2
   120    20    21    1
   121   157   155   ar
   122    42    41    1
   123    38    37    1
   124    38    41    1
   125   187   186    1
   126   187   188    1
   127   154   155   ar
   128   154   153    1
   129    26    23    1
   130    26    27    1
   131   191   193   am
   132    23    24    1
   133   183   185    1
   134   182   181    2
   135   153   150    1
   136    27    29   am
   137    27    28    2
   138   139   140    1
   139   139   136    1
   140   116   117    1
   141   188   189    2
   142   121   122    1
   143   121   120    1
   144   121   123    1
   145    24    25    2
   146   120   117    1
   147   150   149    1
   148   150   151    1
   149   117   118    1
   150   136   135    1
   151   136   137    1
   152   149   143   am
   153    33    32    2
   154   118   119    2
   155   151   152    2
   156   141   137   am
   157   141   142    1
   158   137   138    2
   159   148   146   am
   160   145   142    1
   161   145   146    1
   162   143   142    1
   163   143   144    2
   164    30    31    1
   165    32    31    1
   166   134   132    1
   167   146   147    2
   168    36    34    1
   169   133   132    1
   170    31    34    1
   171   132   131    2
   172    34    35    1
   173   131   130    1
   174   130   129    1
   175   129   128    1
   176   128   125    1
   177   125   126    1
   178   125   124    1
   179   127   126    2
