@<TRIPOS>MOLECULE
tmp/5wukA00.pdb
 105 98 0 0 0
SMALL
GASTEIGER

@<TRIPOS>ATOM
      1  N         10.6530  -22.1360  -26.3150 N.3    20  PRO20      -0.2116
      2  CA        10.6320  -21.4780  -25.0010 C.3    20  PRO20       0.1372
      3  C         10.6810  -19.9590  -25.0960 C.2    20  PRO20       0.2244
      4  O         11.3770  -19.4090  -25.9630 O.2    20  PRO20      -0.2868
      5  CB        11.9010  -22.0030  -24.3140 C.3    20  PRO20       0.0268
      6  CG        12.2350  -23.2730  -25.0180 C.3    20  PRO20       0.0207
      7  CD        11.8120  -23.0530  -26.4380 C.3    20  PRO20       0.0892
      8  N         11.9240  -16.7870  -23.2180 N.3    22  PHE22      -0.1241
      9  CA        12.9290  -16.5580  -22.1810 C.3    22  PHE22       0.1605
     10  C         12.8220  -15.2400  -21.4460 C.2    22  PHE22       0.2264
     11  O         13.3940  -15.1200  -20.3730 O.2    22  PHE22      -0.2867
     12  CB        14.3340  -16.7150  -22.7940 C.3    22  PHE22       0.0534
     13  CG        14.6270  -18.0990  -23.2870 C.ar   22  PHE22      -0.0203
     14  CD1       14.4340  -19.2020  -22.4650 C.ar   22  PHE22      -0.0042
     15  CD2       15.1710  -18.3020  -24.5510 C.ar   22  PHE22      -0.0042
     16  CE1       14.7140  -20.4840  -22.9220 C.ar   22  PHE22      -0.0003
     17  CE2       15.4690  -19.5870  -24.9950 C.ar   22  PHE22      -0.0003
     18  CZ        15.2500  -20.6630  -24.1740 C.ar   22  PHE22      -0.0000
     19  N         17.3900  -13.8110  -25.3110 N.3    73  TYR73      -0.1241
     20  CA        17.2340  -14.1540  -23.9000 C.3    73  TYR73       0.1605
     21  C         16.6630  -13.0230  -23.1040 C.2    73  TYR73       0.2264
     22  O         16.2260  -13.2330  -21.9760 O.2    73  TYR73      -0.2867
     23  CB        18.5960  -14.5230  -23.2810 C.3    73  TYR73       0.0534
     24  CG        19.2850  -15.7280  -23.8900 C.ar   73  TYR73      -0.0201
     25  CD1       18.5720  -16.8910  -24.1860 C.ar   73  TYR73      -0.0009
     26  CD2       20.6660  -15.7440  -24.0700 C.ar   73  TYR73      -0.0009
     27  CE1       19.2010  -18.0050  -24.7340 C.ar   73  TYR73       0.0417
     28  CE2       21.3070  -16.8440  -24.6360 C.ar   73  TYR73       0.0417
     29  CZ        20.5760  -17.9810  -24.9420 C.ar   73  TYR73       0.1957
     30  OH        21.2150  -19.0670  -25.4720 O.3    73  TYR73      -0.2866
     31  N         23.1920  -12.2240  -21.6480 N.3   119  ASN119     -0.1240
     32  CA        22.1570  -12.7120  -20.7290 C.3   119  ASN119      0.1653
     33  C         21.1950  -11.6340  -20.3170 C.2   119  ASN119      0.2266
     34  O         20.0360  -11.9280  -20.0800 O.2   119  ASN119     -0.2867
     35  CB        22.7960  -13.3000  -19.4610 C.3   119  ASN119      0.1155
     36  CG        23.3290  -14.6920  -19.7010 C.2   119  ASN119      0.2627
     37  OD1       22.7130  -15.5040  -20.4220 O.2   119  ASN119     -0.2716
     38  ND2       24.4580  -14.9960  -19.0900 N.am  119  ASN119     -0.0877
     39  N         28.1810  -13.7560  -21.2520 N.3   136  LYS136     -0.1245
     40  CA        28.8880  -15.0160  -21.0170 C.3   136  LYS136      0.1561
     41  C         30.4030  -14.7990  -21.2920 C.2   136  LYS136      0.2260
     42  O         31.2200  -15.6650  -20.9590 O.2   136  LYS136     -0.2867
     43  CB        28.3590  -16.1130  -21.9420 C.3   136  LYS136      0.0271
     44  CG        26.9210  -16.4930  -21.6830 C.3   136  LYS136      0.0035
     45  CD        26.6060  -17.8560  -22.2710 C.3   136  LYS136      0.0206
     46  CE        25.1420  -18.1380  -22.0950 C.3   136  LYS136      0.1093
     47  NZ        24.7930  -19.5250  -22.5030 N.3   136  LYS136     -0.1314
     48  N         25.6480  -13.2320  -15.3050 N.3   165  LEU165     -0.1245
     49  CA        24.2590  -13.6350  -15.4940 C.3   165  LEU165      0.1561
     50  C         23.2480  -12.5090  -15.3890 C.2   165  LEU165      0.2260
     51  O         22.2420  -12.5200  -16.0880 O.2   165  LEU165     -0.2867
     52  CB        23.9510  -14.7440  -14.4630 C.3   165  LEU165      0.0270
     53  CG        24.6520  -16.0920  -14.7250 C.3   165  LEU165      0.0019
     54  CD1       24.6720  -16.9570  -13.4860 C.3   165  LEU165      0.0001
     55  CD2       23.9740  -16.8280  -15.8390 C.3   165  LEU165      0.0001
     56  N         21.8530  -16.1560  -10.6530 N.3   235  ASP235     -0.1239
     57  CA        21.3270  -15.7960  -11.9840 C.3   235  ASP235      0.1674
     58  C         20.3800  -14.6050  -12.0060 C.2   235  ASP235      0.2266
     59  O         19.8530  -14.2620  -13.0730 O.2   235  ASP235     -0.2867
     60  CB        20.6830  -17.0170  -12.6750 C.3   235  ASP235      0.1410
     61  CG        19.4500  -17.5450  -11.9640 C.2   235  ASP235      0.3668
     62  OD1       19.2460  -17.1850  -10.7870 O.co2 235  ASP235     -0.2456
     63  OD2       18.7000  -18.3360  -12.5830 O.co2 235  ASP235     -0.2456
     64  N         18.6580  -19.8000  -15.0100 N.3   290  TYR290     -0.1241
     65  CA        17.9530  -18.7780  -15.7950 C.3   290  TYR290      0.1605
     66  C         16.4850  -18.6560  -15.4360 C.2   290  TYR290      0.2264
     67  O         15.6190  -18.9480  -16.2570 O.2   290  TYR290     -0.2867
     68  CB        18.1540  -18.9990  -17.3310 C.3   290  TYR290      0.0534
     69  CG        19.5990  -19.2090  -17.7520 C.ar  290  TYR290     -0.0201
     70  CD1       20.5490  -18.1980  -17.6010 C.ar  290  TYR290     -0.0009
     71  CD2       20.0180  -20.4180  -18.3010 C.ar  290  TYR290     -0.0009
     72  CE1       21.8750  -18.3770  -18.0080 C.ar  290  TYR290      0.0417
     73  CE2       21.3410  -20.6120  -18.6950 C.ar  290  TYR290      0.0417
     74  CZ        22.2660  -19.5860  -18.5540 C.ar  290  TYR290      0.1957
     75  OH        23.5690  -19.7720  -18.9530 O.3   290  TYR290     -0.2866
     76  N         14.2310  -15.7100  -13.5100 N.3   292  ARG292     -0.1245
     77  CA        14.3510  -14.3740  -12.9750 C.3   292  ARG292      0.1563
     78  C         13.1670  -13.8910  -12.1780 C.2   292  ARG292      0.2260
     79  O         12.0060  -14.1860  -12.4940 O.2   292  ARG292     -0.2867
     80  CB        14.6710  -13.3800  -14.1140 C.3   292  ARG292      0.0307
     81  CG        16.0940  -13.5290  -14.6720 C.3   292  ARG292      0.0489
     82  CD        16.3640  -12.5740  -15.8280 C.3   292  ARG292      0.2205
     83  NE        15.7670  -13.0690  -17.0740 N.pl3 292  ARG292     -0.0865
     84  CZ        16.0900  -12.6410  -18.2930 C.cat 292  ARG292      0.5346
     85  NH1       17.0060  -11.6950  -18.4520 N.pl3 292  ARG292      0.1354
     86  NH2       15.5190  -13.1760  -19.3600 N.pl3 292  ARG292      0.1354
     87  N          9.9610  -18.5540  -16.9770 N.3   339  ARG339     -0.1245
     88  CA        11.2900  -17.9490  -17.0520 C.3   339  ARG339      0.1563
     89  C         11.3600  -16.5420  -16.4740 C.2   339  ARG339      0.2260
     90  O         12.3540  -16.1600  -15.8480 O.2   339  ARG339     -0.2867
     91  CB        11.7730  -17.9730  -18.5170 C.3   339  ARG339      0.0307
     92  CG        12.0740  -19.3890  -19.0110 C.3   339  ARG339      0.0489
     93  CD        13.4570  -19.8800  -18.5630 C.3   339  ARG339      0.2205
     94  NE        13.6170  -21.2900  -18.9150 N.pl3 339  ARG339     -0.0865
     95  CZ        14.5720  -22.0910  -18.4670 C.cat 339  ARG339      0.5346
     96  NH1       14.5790  -23.3690  -18.8040 N.pl3 339  ARG339      0.1354
     97  NH2       15.5440  -21.6150  -17.6950 N.pl3 339  ARG339      0.1354
     98  N          8.4870  -21.9700  -20.8270 N.3   355  ASP355     -0.1239
     99  CA         9.2310  -22.8660  -21.7110 C.3   355  ASP355      0.1674
    100  C          8.3860  -23.5080  -22.8050 C.2   355  ASP355      0.2266
    101  O          8.9480  -23.9020  -23.8290 O.2   355  ASP355     -0.2867
    102  CB         9.9750  -23.9430  -20.9120 C.3   355  ASP355      0.1410
    103  CG        11.3300  -23.4700  -20.4330 C.2   355  ASP355      0.3668
    104  OD1       11.6490  -22.2740  -20.6350 O.co2 355  ASP355     -0.2456
    105  OD2       12.0970  -24.3010  -19.9260 O.co2 355  ASP355     -0.2456
@<TRIPOS>BOND
     1     7     1    1
     2     7     6    1
     3     1     2    1
     4     4     3    2
     5    30    29    1
     6    19    20    1
     7     3     2    1
     8     6     5    1
     9     2     5    1
    10    17    15   ar
    11    17    18   ar
    12    29    27   ar
    13    29    28   ar
    14    27    25   ar
    15    28    26   ar
    16    15    13   ar
    17    25    24   ar
    18    18    16   ar
    19    26    24   ar
    20    20    23    1
    21    20    21    1
    22    24    23    1
    23   101   100    2
    24    13    12    1
    25    13    14   ar
    26     8     9    1
    27    21    22    2
    28    16    14   ar
    29   100    99    1
    30    12     9    1
    31    47    46    1
    32    45    46    1
    33    45    44    1
    34     9    10    1
    35    43    44    1
    36    43    40    1
    37    99   102    1
    38    99    98    1
    39    31    32    1
    40    10    11    2
    41    41    40    1
    42    41    42    2
    43    39    40    1
    44   102   103    1
    45    32    33    1
    46    32    35    1
    47   104   103   ar
    48   103   105   ar
    49    37    36    2
    50    33    34    2
    51    36    35    1
    52    36    38   am
    53    86    84    1
    54    92    93    1
    55    92    91    1
    56    75    74    1
    57    94    93    1
    58    94    95    2
    59    96    95    1
    60    73    74   ar
    61    73    71   ar
    62    74    72   ar
    63    91    88    1
    64    95    97    1
    65    85    84    1
    66    71    69   ar
    67    84    83    2
    68    72    70   ar
    69    69    70   ar
    70    69    68    1
    71    68    65    1
    72    83    82    1
    73    88    87    1
    74    88    89    1
    75    89    90    2
    76    67    66    2
    77    51    50    2
    78    55    53    1
    79    82    81    1
    80    65    66    1
    81    65    64    1
    82    49    50    1
    83    49    48    1
    84    49    52    1
    85    53    52    1
    86    53    54    1
    87    81    80    1
    88    80    77    1
    89    76    77    1
    90    59    58    2
    91    77    78    1
    92    60    57    1
    93    60    61    1
    94    63    61   ar
    95    79    78    2
    96    58    57    1
    97    57    56    1
    98    61    62   ar
