@<TRIPOS>MOLECULE
tmp/5wuuA00.pdb
 134 130 0 0 0
SMALL
GASTEIGER

@<TRIPOS>ATOM
      1  N         -2.2210   -0.3290   -0.7360 N.3    39  TRP39      -0.1228
      2  CA        -1.9080   -1.6230   -1.3370 C.3    39  TRP39       0.1722
      3  C         -3.1170   -2.4950   -1.6900 C.2    39  TRP39       0.2437
      4  O         -3.0510   -3.1650   -2.7350 O.2    39  TRP39      -0.2733
      5  CB        -0.9110   -2.3790   -0.4410 C.3    39  TRP39       0.0563
      6  CG        -1.4170   -2.7540    0.9010 C.ar   39  TRP39       0.0003
      7  CD1       -1.2300   -2.0750    2.0650 C.ar   39  TRP39       0.0946
      8  CD2       -2.1810   -3.9200    1.2330 C.ar   39  TRP39       0.0152
      9  NE1       -1.8480   -2.7330    3.1010 N.ar   39  TRP39      -0.2442
     10  CE2       -2.4360   -3.8710    2.6160 C.ar   39  TRP39       0.0810
     11  CE3       -2.6860   -4.9940    0.4890 C.ar   39  TRP39       0.0012
     12  CZ2       -3.1710   -4.8580    3.2770 C.ar   39  TRP39       0.0191
     13  CZ3       -3.4150   -5.9750    1.1430 C.ar   39  TRP39       0.0001
     14  CH2       -3.6520   -5.8990    2.5250 C.ar   39  TRP39       0.0015
     15  N         -4.2230   -2.5440   -0.9270 N.am   40  PRO40      -0.2718
     16  CA        -5.3520   -3.3710   -1.3840 C.3    40  PRO40       0.1535
     17  C         -5.9330   -2.9060   -2.6940 C.2    40  PRO40       0.2598
     18  O         -6.6120   -3.6870   -3.3670 O.2    40  PRO40      -0.2715
     19  CB        -6.3860   -3.2380   -0.2550 C.3    40  PRO40       0.0310
     20  CG        -5.6090   -2.7640    0.9340 C.3    40  PRO40       0.0237
     21  CD        -4.5670   -1.8640    0.3370 C.3    40  PRO40       0.0939
     22  N         -5.6770   -1.6580   -3.0790 N.am   41  PHE41      -0.1974
     23  CA        -6.3660   -1.0150   -4.1840 C.3    41  PHE41       0.1639
     24  C         -5.4810   -0.8340   -5.4110 C.2    41  PHE41       0.2290
     25  O         -5.8950   -0.1570   -6.3610 O.2    41  PHE41      -0.2864
     26  CB        -6.9170    0.3370   -3.7000 C.3    41  PHE41       0.0560
     27  CG        -7.7660    0.2300   -2.4580 C.ar   41  PHE41      -0.0200
     28  CD1       -9.0980   -0.1720   -2.5380 C.ar   41  PHE41      -0.0042
     29  CD2       -7.2340    0.5080   -1.2060 C.ar   41  PHE41      -0.0042
     30  CE1       -9.8810   -0.2890   -1.3960 C.ar   41  PHE41      -0.0003
     31  CE2       -8.0140    0.3930   -0.0540 C.ar   41  PHE41      -0.0003
     32  CZ        -9.3380    0.0020   -0.1450 C.ar   41  PHE41      -0.0000
     33  N         -4.4010   -3.0530   -7.5970 N.3    43  GLN43      -0.1245
     34  CA        -4.6160   -4.0210   -8.6640 C.3    43  GLN43       0.1566
     35  C         -6.0350   -4.5400   -8.5460 C.2    43  GLN43       0.2260
     36  O         -6.6440   -4.4330   -7.4780 O.2    43  GLN43      -0.2867
     37  CB        -3.6110   -5.1860   -8.5810 C.3    43  GLN43       0.0367
     38  CG        -3.6470   -5.9690   -7.2650 C.3    43  GLN43       0.0905
     39  CD        -3.0330   -5.1880   -6.1070 C.2    43  GLN43       0.2608
     40  OE1       -1.9000   -4.7240   -6.1960 O.2    43  GLN43      -0.2717
     41  NE2       -3.7910   -5.0270   -5.0270 N.am   43  GLN43      -0.0878
     42  N         -9.0220   -6.9010   -7.7080 N.3    45  VAL45      -0.1245
     43  CA        -9.1670   -7.9260   -6.6810 C.3    45  VAL45       0.1561
     44  C         -8.9820   -9.2970   -7.3160 C.2    45  VAL45       0.2260
     45  O         -9.7220   -9.6820   -8.2310 O.2    45  VAL45      -0.2867
     46  CB       -10.5310   -7.8040   -5.9900 C.3    45  VAL45       0.0252
     47  CG1      -10.8050   -9.0480   -5.1390 C.3    45  VAL45       0.0019
     48  CG2      -10.5880   -6.5410   -5.1480 C.3    45  VAL45       0.0019
     49  N         -7.1430  -14.4180   -3.1030 N.3    50  LEU50      -0.1245
     50  CA        -7.5900  -13.9300   -1.8070 C.3    50  LEU50       0.1561
     51  C         -8.6950  -14.7740   -1.1950 C.2    50  LEU50       0.2260
     52  O         -9.1690  -14.4400   -0.1030 O.2    50  LEU50      -0.2867
     53  CB        -8.0690  -12.4780   -1.9300 C.3    50  LEU50       0.0270
     54  CG        -7.0010  -11.4630   -2.3260 C.3    50  LEU50       0.0019
     55  CD1       -7.6770  -10.2270   -2.9120 C.3    50  LEU50       0.0001
     56  CD2       -6.1130  -11.1070   -1.1200 C.3    50  LEU50       0.0001
     57  N        -11.8540  -15.1540   -2.0550 N.3    52  LEU52      -0.1245
     58  CA       -13.0880  -14.3730   -1.9970 C.3    52  LEU52       0.1561
     59  C        -13.9770  -14.8190   -3.1510 C.2    52  LEU52       0.2260
     60  O        -14.1850  -14.0750   -4.1210 O.2    52  LEU52      -0.2867
     61  CB       -12.8140  -12.8730   -2.0770 C.3    52  LEU52       0.0270
     62  CG       -11.7870  -12.3200   -1.0860 C.3    52  LEU52       0.0019
     63  CD1      -11.4530  -10.8710   -1.4060 C.3    52  LEU52       0.0001
     64  CD2      -12.2910  -12.4540    0.3400 C.3    52  LEU52       0.0001
     65  N        -16.6980  -12.4050   -4.1540 N.3    55  TYR55      -0.1241
     66  CA       -16.4160  -10.9990   -4.4400 C.3    55  TYR55       0.1605
     67  C        -17.1270  -10.5440   -5.7080 C.2    55  TYR55       0.2264
     68  O        -17.8720   -9.5550   -5.6960 O.2    55  TYR55      -0.2867
     69  CB       -14.9090  -10.7400   -4.5660 C.3    55  TYR55       0.0534
     70  CG       -14.6550   -9.2500   -4.7050 C.ar   55  TYR55      -0.0201
     71  CD1      -14.6370   -8.4290   -3.5870 C.ar   55  TYR55      -0.0009
     72  CD2      -14.4980   -8.6650   -5.9570 C.ar   55  TYR55      -0.0009
     73  CE1      -14.4360   -7.0560   -3.7070 C.ar   55  TYR55       0.0417
     74  CE2      -14.3140   -7.2880   -6.0950 C.ar   55  TYR55       0.0417
     75  CZ       -14.2720   -6.4940   -4.9630 C.ar   55  TYR55       0.1957
     76  OH       -14.0850   -5.1240   -5.0890 O.3    55  TYR55      -0.2866
     77  N        -15.6560   -1.1640   -2.1600 N.3    94  CYS94      -0.1235
     78  CA       -15.1110   -1.6010   -0.8800 C.3    94  CYS94       0.1677
     79  C        -16.1720   -1.5460    0.2170 C.2    94  CYS94       0.2270
     80  O        -16.3330   -2.4960    0.9960 O.2    94  CYS94      -0.2867
     81  CB       -13.9100   -0.7260   -0.5200 C.3    94  CYS94       0.0956
     82  SG       -13.0650   -1.2690    0.9860 S.3    94  CYS94      -0.0801
     83  N        -18.7640   -4.4120   -0.4830 N.3    97  TYR97      -0.1227
     84  CA       -18.3870   -5.8110   -0.2910 C.3    97  TYR97       0.1736
     85  C        -18.1400   -6.1380    1.1730 C.2    97  TYR97       0.2595
     86  O        -18.2890   -7.2990    1.5830 O.2    97  TYR97      -0.2718
     87  CB       -17.1480   -6.1750   -1.1160 C.3    97  TYR97       0.0548
     88  CG       -16.7190   -7.6100   -0.8680 C.ar   97  TYR97      -0.0200
     89  CD1      -17.4710   -8.6740   -1.3590 C.ar   97  TYR97      -0.0009
     90  CD2      -15.5950   -7.8980   -0.1100 C.ar   97  TYR97      -0.0009
     91  CE1      -17.1000   -9.9980   -1.1040 C.ar   97  TYR97       0.0417
     92  CE2      -15.2150   -9.2120    0.1500 C.ar   97  TYR97       0.0417
     93  CZ       -15.9690  -10.2540   -0.3500 C.ar   97  TYR97       0.1957
     94  OH       -15.5920  -11.5530   -0.0940 O.3    97  TYR97      -0.2866
     95  N        -17.7640   -5.1440    1.9710 N.am   98  ASN98      -0.1974
     96  CA       -17.3610   -5.3530    3.3450 C.3    98  ASN98       0.1688
     97  C        -18.4520   -4.7940    4.2600 C.2    98  ASN98       0.2292
     98  O        -19.6280   -4.7500    3.8580 O.2    98  ASN98      -0.2864
     99  CB       -15.9770   -4.7440    3.5420 C.3    98  ASN98       0.1181
    100  CG       -14.9410   -5.3870    2.6390 C.2    98  ASN98       0.2629
    101  OD1      -14.5400   -6.5370    2.8570 O.2    98  ASN98      -0.2716
    102  ND2      -14.5210   -4.6640    1.6010 N.am   98  ASN98      -0.0877
    103  N        -14.6840   -2.6000    9.3750 N.3   102  ASP102     -0.1225
    104  CA       -13.6610   -3.5090    8.8670 C.3   102  ASP102      0.1805
    105  C        -12.3710   -2.7460    8.5880 C.2   102  ASP102      0.2598
    106  O        -12.3920   -1.5740    8.2080 O.2   102  ASP102     -0.2718
    107  CB       -14.1130   -4.1920    7.5700 C.3   102  ASP102      0.1424
    108  CG       -15.1600   -5.2720    7.7780 C.2   102  ASP102      0.3668
    109  OD1      -15.4240   -5.6860    8.9320 O.co2 102  ASP102     -0.2456
    110  OD2      -15.6940   -5.7410    6.7500 O.co2 102  ASP102     -0.2456
    111  N        -11.2350   -3.4370    8.7520 N.am  103  ASP103     -0.1960
    112  CA        -9.9380   -2.8120    8.5020 C.3   103  ASP103      0.1840
    113  C         -9.8490   -2.2120    7.0980 C.2   103  ASP103      0.2621
    114  O         -9.3500   -1.0920    6.9300 O.2   103  ASP103     -0.2715
    115  CB        -8.8060   -3.8190    8.7200 C.3   103  ASP103      0.1450
    116  CG        -8.3680   -3.8920   10.1670 C.2   103  ASP103      0.3671
    117  OD1       -8.8410   -3.0410   10.9510 O.co2 103  ASP103     -0.2456
    118  OD2       -7.5330   -4.7680   10.5030 O.co2 103  ASP103     -0.2456
    119  N        -10.3180   -2.9350    6.0750 N.am  104  ILE104     -0.1977
    120  CA       -10.1690   -2.3830    4.7270 C.3   104  ILE104      0.1596
    121  C        -11.1000   -1.1920    4.5270 C.2   104  ILE104      0.2287
    122  O        -10.7920   -0.2780    3.7480 O.2   104  ILE104     -0.2864
    123  CB       -10.3900   -3.4640    3.6540 C.3   104  ILE104      0.0276
    124  CG1       -9.9820   -2.9150    2.2830 C.3   104  ILE104      0.0022
    125  CG2      -11.8360   -3.9630    3.6660 C.3   104  ILE104      0.0022
    126  CD1       -9.9610   -3.9460    1.2120 C.3   104  ILE104      0.0001
    127  N         -9.3850    1.6780    5.7500 N.3   107  MET107     -0.1245
    128  CA        -8.3940    2.0790    4.7550 C.3   107  MET107      0.1570
    129  C         -9.0440    2.8970    3.6420 C.2   107  MET107      0.2261
    130  O         -8.5530    3.9750    3.2810 O.2   107  MET107     -0.2867
    131  CB        -7.6870    0.8400    4.1860 C.3   107  MET107      0.0387
    132  CG        -6.8280    0.1100    5.2190 C.3   107  MET107      0.0595
    133  SD        -6.2370   -1.5010    4.6770 S.3   107  MET107     -0.1393
    134  CE        -4.6970   -1.0800    3.9170 C.3   107  MET107      0.0692
@<TRIPOS>BOND
     1    34    37    1
     2    34    35    1
     3    34    33    1
     4    37    38    1
     5    35    36    2
     6    45    44    2
     7    42    43    1
     8    44    43    1
     9    38    39    1
    10    43    46    1
    11    25    24    2
    12    40    39    2
    13    39    41   am
    14    74    72   ar
    15    74    75   ar
    16    46    48    1
    17    46    47    1
    18    72    70   ar
    19    67    68    2
    20    67    66    1
    21    24    23    1
    22    76    75    1
    23    75    73   ar
    24    70    69    1
    25    70    71   ar
    26    69    66    1
    27    66    65    1
    28    23    26    1
    29    23    22    1
    30    60    59    2
    31    73    71   ar
    32    26    27    1
    33    18    17    2
    34    59    58    1
    35    49    50    1
    36    22    17   am
    37    55    54    1
    38     4     3    2
    39    17    16    1
    40    28    27   ar
    41    28    30   ar
    42    27    29   ar
    43    54    53    1
    44    54    56    1
    45    77    78    1
    46    61    58    1
    47    61    62    1
    48    57    58    1
    49    53    50    1
    50    50    51    1
    51     3     2    1
    52     3    15   am
    53    63    62    1
    54    30    32   ar
    55    16    15    1
    56    16    19    1
    57    89    91   ar
    58    89    88   ar
    59     2     1    1
    60     2     5    1
    61    29    31   ar
    62    51    52    2
    63    87    88    1
    64    87    84    1
    65    91    93   ar
    66    62    64    1
    67    15    21    1
    68    78    81    1
    69    78    79    1
    70    88    90   ar
    71    81    82    1
    72    83    84    1
    73     5     6    1
    74    93    94    1
    75    93    92   ar
    76    84    85    1
    77    19    20    1
    78    32    31   ar
    79    90    92   ar
    80    79    80    2
    81    21    20    1
    82    11    13   ar
    83    11     8   ar
    84     6     8   ar
    85     6     7   ar
    86    13    14   ar
    87    85    86    2
    88    85    95   am
    89   126   124    1
    90     8    10   ar
    91   102   100   am
    92    95    96    1
    93     7     9   ar
    94   124   123    1
    95    14    12   ar
    96    10     9   ar
    97    10    12   ar
    98   100   101    2
    99   100    99    1
   100   130   129    2
   101    96    99    1
   102    96    97    1
   103   129   128    1
   104   123   125    1
   105   123   120    1
   106   122   121    2
   107    98    97    2
   108   134   133    1
   109   131   128    1
   110   131   132    1
   111   121   120    1
   112   133   132    1
   113   120   119    1
   114   128   127    1
   115   119   113   am
   116   110   108   ar
   117   114   113    2
   118   113   112    1
   119   107   108    1
   120   107   104    1
   121   108   109   ar
   122   106   105    2
   123   112   115    1
   124   112   111    1
   125   105   111   am
   126   105   104    1
   127   115   116    1
   128   104   103    1
   129   116   118   ar
   130   116   117   ar
