@<TRIPOS>MOLECULE
tmp/5wv1A01.pdb
 104 100 0 0 0
SMALL
GASTEIGER

@<TRIPOS>ATOM
      1  N        -21.7270  -19.4340  -14.2350 N.3    69  VAL69      -0.1231
      2  CA       -21.3390  -18.1230  -14.7550 C.3    69  VAL69       0.1692
      3  C        -19.8700  -17.7220  -14.4120 C.2    69  VAL69       0.2592
      4  O        -19.5810  -16.5320  -14.3420 O.2    69  VAL69      -0.2718
      5  CB       -22.3400  -16.9870  -14.4260 C.3    69  VAL69       0.0266
      6  CG1      -22.4240  -16.0800  -15.6340 C.3    69  VAL69       0.0020
      7  CG2      -23.7430  -17.5560  -14.1820 C.3    69  VAL69       0.0020
      8  N        -19.0090  -18.7050  -14.1400 N.am   70  TYR70      -0.1962
      9  CA       -17.6550  -18.4070  -13.7540 C.3    70  TYR70       0.1771
     10  C        -16.8820  -18.2550  -15.0250 C.2    70  TYR70       0.2619
     11  O        -16.9470  -19.0840  -15.9520 O.2    70  TYR70      -0.2715
     12  CB       -17.0140  -19.5180  -12.9370 C.3    70  TYR70       0.0574
     13  CG       -17.4700  -19.6940  -11.5280 C.ar   70  TYR70      -0.0198
     14  CD1      -18.5200  -18.9530  -10.9710 C.ar   70  TYR70      -0.0009
     15  CD2      -16.9650  -20.7770  -10.7780 C.ar   70  TYR70      -0.0009
     16  CE1      -19.0060  -19.1800   -9.6770 C.ar   70  TYR70       0.0417
     17  CE2      -17.5080  -21.0900   -9.4890 C.ar   70  TYR70       0.0417
     18  CZ       -18.5060  -20.2440   -8.9590 C.ar   70  TYR70       0.1957
     19  OH       -19.0000  -20.5690   -7.7180 O.3    70  TYR70      -0.2866
     20  N        -16.0450  -17.2410  -15.0110 N.am   71  ILE71      -0.1977
     21  CA       -15.0480  -17.0320  -16.1120 C.3    71  ILE71       0.1596
     22  C        -13.8910  -18.0190  -15.9860 C.2    71  ILE71       0.2287
     23  O        -13.2720  -18.1350  -14.9420 O.2    71  ILE71      -0.2864
     24  CB       -14.5700  -15.5740  -16.1840 C.3    71  ILE71       0.0276
     25  CG1      -15.8220  -14.7460  -16.4790 C.3    71  ILE71       0.0022
     26  CG2      -13.4870  -15.4260  -17.2240 C.3    71  ILE71       0.0022
     27  CD1      -15.5750  -13.2610  -16.3660 C.3    71  ILE71       0.0001
     28  N         -7.3360  -19.1470  -15.8050 N.3    83  PHE83      -0.1241
     29  CA        -7.1150  -19.2210  -14.3830 C.3    83  PHE83       0.1605
     30  C         -6.3660  -20.4640  -13.9490 C.2    83  PHE83       0.2264
     31  O         -6.4960  -21.5470  -14.5490 O.2    83  PHE83      -0.2867
     32  CB        -8.4630  -19.0810  -13.6250 C.3    83  PHE83       0.0534
     33  CG        -9.0160  -17.6680  -13.6330 C.ar   83  PHE83      -0.0203
     34  CD1       -8.2480  -16.5840  -13.1650 C.ar   83  PHE83      -0.0042
     35  CD2      -10.2740  -17.3940  -14.1700 C.ar   83  PHE83      -0.0042
     36  CE1       -8.7650  -15.2400  -13.2680 C.ar   83  PHE83      -0.0003
     37  CE2      -10.8040  -16.1050  -14.1850 C.ar   83  PHE83      -0.0003
     38  CZ       -10.0610  -15.0490  -13.7270 C.ar   83  PHE83      -0.0000
     39  N         -9.4860  -17.7280  -10.0040 N.3   109  GLY109     -0.1210
     40  CA       -10.4520  -16.7420  -10.3660 C.3   109  GLY109      0.1956
     41  C        -11.2850  -16.2200   -9.1990 C.2   109  GLY109      0.2612
     42  O        -12.2170  -15.4170   -9.3630 O.2   109  GLY109     -0.2717
     43  N        -10.9920  -16.6050   -7.9900 N.am  110  ASN110     -0.1960
     44  CA       -11.9620  -16.1310   -7.0160 C.3   110  ASN110      0.1819
     45  C        -11.5710  -14.7430   -6.5270 C.2   110  ASN110      0.2621
     46  O        -10.4350  -14.2390   -6.7120 O.2   110  ASN110     -0.2715
     47  CB       -12.1130  -17.0490   -5.8930 C.3   110  ASN110      0.1195
     48  CG       -10.9130  -17.1420   -5.1810 C.2   110  ASN110      0.2630
     49  OD1      -10.1090  -17.8710   -5.6550 O.2   110  ASN110     -0.2716
     50  ND2      -10.6730  -16.3320   -4.1060 N.am  110  ASN110     -0.0877
     51  N        -12.5500  -14.0830   -5.9630 N.am  111  TYR111     -0.1974
     52  CA       -12.3600  -12.6660   -5.7260 C.3   111  TYR111      0.1639
     53  C        -11.2300  -12.4430   -4.7760 C.2   111  TYR111      0.2290
     54  O        -10.4550  -11.4350   -4.9150 O.2   111  TYR111     -0.2864
     55  CB       -13.6460  -12.0740   -5.1560 C.3   111  TYR111      0.0560
     56  CG       -14.7330  -11.6910   -6.1800 C.ar  111  TYR111     -0.0198
     57  CD1      -14.4760  -10.9900   -7.2910 C.ar  111  TYR111     -0.0009
     58  CD2      -16.0500  -11.9370   -5.8950 C.ar  111  TYR111     -0.0009
     59  CE1      -15.4490  -10.5760   -8.1620 C.ar  111  TYR111      0.0417
     60  CE2      -17.0610  -11.5830   -6.7680 C.ar  111  TYR111      0.0417
     61  CZ       -16.8120  -10.9190   -7.8960 C.ar  111  TYR111      0.1957
     62  OH       -17.8890  -10.5300   -8.6960 O.3   111  TYR111     -0.2866
     63  N        -15.6140   -9.4430  -14.5630 N.3   155  ILE155     -0.1245
     64  CA       -16.4850  -10.4430  -13.8560 C.3   155  ILE155      0.1561
     65  C        -17.7440   -9.7110  -13.3780 C.2   155  ILE155      0.2260
     66  O        -18.8730  -10.1370  -13.5870 O.2   155  ILE155     -0.2867
     67  CB       -15.7620  -11.1170  -12.6790 C.3   155  ILE155      0.0252
     68  CG1      -14.7040  -12.1180  -13.2570 C.3   155  ILE155      0.0019
     69  CG2      -16.7360  -11.7880  -11.7060 C.3   155  ILE155      0.0019
     70  CD1      -13.7550  -12.5700  -12.1990 C.3   155  ILE155      0.0001
     71  N        -20.7290  -11.4010  -15.6390 N.3   159  ALA159     -0.1231
     72  CA       -21.3610  -12.4630  -14.9210 C.3   159  ALA159      0.1694
     73  C        -22.2530  -11.8660  -13.8330 C.2   159  ALA159      0.2591
     74  O        -23.4080  -12.3260  -13.6780 O.2   159  ALA159     -0.2718
     75  CB       -20.3360  -13.3750  -14.2550 C.3   159  ALA159      0.0304
     76  N        -21.7340  -10.9380  -13.0190 N.am  160  GLU160     -0.1979
     77  CA       -22.4770  -10.4410  -11.8500 C.3   160  GLU160      0.1602
     78  C        -23.7800   -9.6380  -12.2620 C.2   160  GLU160      0.2287
     79  O        -24.8260   -9.7790  -11.6660 O.2   160  GLU160     -0.2864
     80  CB       -21.6350   -9.5740  -10.8360 C.3   160  GLU160      0.0415
     81  CG       -20.4320  -10.3200  -10.1920 C.3   160  GLU160      0.1163
     82  CD       -20.7770  -11.4630   -9.2680 C.2   160  GLU160      0.3649
     83  OE1      -21.9570  -11.8990   -9.1750 O.co2 160  GLU160     -0.2457
     84  OE2      -19.8420  -11.9110   -8.6390 O.co2 160  GLU160     -0.2457
     85  N        -26.3830  -12.1810  -13.2310 N.3   163  ARG163     -0.1245
     86  CA       -26.9980  -12.7860  -12.0610 C.3   163  ARG163      0.1563
     87  C        -27.9810  -11.9050  -11.3660 C.2   163  ARG163      0.2260
     88  O        -28.9490  -12.4040  -10.6980 O.2   163  ARG163     -0.2867
     89  CB       -25.9510  -13.2410  -11.0560 C.3   163  ARG163      0.0307
     90  CG       -25.0580  -14.3500  -11.5220 C.3   163  ARG163      0.0489
     91  CD       -23.8720  -14.4710  -10.5410 C.3   163  ARG163      0.2205
     92  NE       -22.9620  -15.5880  -10.8320 N.pl3 163  ARG163     -0.0865
     93  CZ       -21.6240  -15.5200  -10.6420 C.cat 163  ARG163      0.5346
     94  NH1      -21.0560  -14.4270  -10.1590 N.pl3 163  ARG163      0.1354
     95  NH2      -20.8580  -16.5350  -10.8740 N.pl3 163  ARG163      0.1354
     96  N        -23.0400   -9.9290   -4.7900 N.3   189  GLU189     -0.1301
     97  CA       -21.9750  -10.7400   -5.3440 C.3   189  GLU189      0.1252
     98  C        -21.5540  -11.8270   -4.3510 C.3   189  GLU189      0.2009
     99  O        -21.4220  -13.0530   -4.7160 O.3   189  GLU189     -0.2188
    100  CB       -20.7110   -9.8530   -5.6800 C.3   189  GLU189      0.0335
    101  CG       -20.9670   -8.8970   -6.8060 C.3   189  GLU189      0.1156
    102  CD       -19.7740   -7.9760   -7.0420 C.2   189  GLU189      0.3649
    103  OE1      -18.8890   -8.0040   -6.1680 O.co2 189  GLU189     -0.2457
    104  OE2      -19.8500   -7.1530   -8.0000 O.co2 189  GLU189     -0.2457
@<TRIPOS>BOND
     1    26    24    1
     2    25    27    1
     3    25    24    1
     4    24    21    1
     5    21    22    1
     6    21    20    1
     7    22    23    2
     8    11    10    2
     9    28    29    1
    10    71    72    1
    11     6     5    1
    12    10    20   am
    13    10     9    1
    14    72    75    1
    15    72    73    1
    16     2     5    1
    17     2     3    1
    18     2     1    1
    19    63    64    1
    20    31    30    2
    21     5     7    1
    22     3     4    2
    23     3     8   am
    24    29    30    1
    25    29    32    1
    26    37    35   ar
    27    37    38   ar
    28    35    33   ar
    29     8     9    1
    30    64    65    1
    31    64    67    1
    32    73    74    2
    33    73    76   am
    34     9    12    1
    35    38    36   ar
    36    33    32    1
    37    33    34   ar
    38    66    65    2
    39    36    34   ar
    40    68    67    1
    41    68    70    1
    42    85    86    1
    43    76    77    1
    44    12    13    1
    45    67    69    1
    46    78    77    1
    47    78    79    2
    48    86    87    1
    49    86    89    1
    50    77    80    1
    51    13    14   ar
    52    13    15   ar
    53    90    89    1
    54    90    91    1
    55    87    88    2
    56    14    16   ar
    57    95    93    1
    58    80    81    1
    59    92    93    2
    60    92    91    1
    61    15    17   ar
    62    93    94    1
    63    40    39    1
    64    40    41    1
    65    81    82    1
    66    16    18   ar
    67    17    18   ar
    68    42    41    2
    69    82    83   ar
    70    82    84   ar
    71    41    43   am
    72    18    19    1
    73    62    61    1
    74    59    61   ar
    75    59    57   ar
    76   104   102   ar
    77    43    44    1
    78    61    60   ar
    79    57    56   ar
    80   102   101    1
    81   102   103   ar
    82    44    45    1
    83    44    47    1
    84   101   100    1
    85    60    58   ar
    86    46    45    2
    87    45    51   am
    88    56    58   ar
    89    56    55    1
    90    51    52    1
    91    47    48    1
    92    52    55    1
    93    52    53    1
    94   100    97    1
    95    49    48    2
    96    97    96    1
    97    97    98    1
    98    48    50   am
    99    54    53    2
   100    99    98    1
