@<TRIPOS>MOLECULE
tmp/5wv9A03.pdb
 106 105 0 0 0
SMALL
GASTEIGER

@<TRIPOS>ATOM
      1  N        -16.2010   25.1880   23.6950 N.3    86  TRP86      -0.1241
      2  CA       -15.2060   26.0800   23.1050 C.3    86  TRP86       0.1605
      3  C        -14.9970   27.3540   23.9300 C.2    86  TRP86       0.2264
      4  O        -13.8620   27.7170   24.2250 O.2    86  TRP86      -0.2867
      5  CB       -15.6170   26.4300   21.6710 C.3    86  TRP86       0.0550
      6  CG       -14.6980   27.3900   20.9860 C.ar   86  TRP86       0.0003
      7  CD1      -13.5710   27.0870   20.2750 C.ar   86  TRP86       0.0946
      8  CD2      -14.8350   28.8180   20.9360 C.ar   86  TRP86       0.0152
      9  NE1      -12.9950   28.2410   19.7910 N.ar   86  TRP86      -0.2442
     10  CE2      -13.7520   29.3160   20.1820 C.ar   86  TRP86       0.0810
     11  CE3      -15.7700   29.7220   21.4550 C.ar   86  TRP86       0.0012
     12  CZ2      -13.5760   30.6810   19.9380 C.ar   86  TRP86       0.0191
     13  CZ3      -15.5920   31.0740   21.2140 C.ar   86  TRP86       0.0001
     14  CH2      -14.5060   31.5400   20.4610 C.ar   86  TRP86       0.0015
     15  N        -11.9600   21.0530   26.0280 N.3   127  GLU127     -0.1231
     16  CA       -11.3780   21.2100   24.7060 C.3   127  GLU127      0.1699
     17  C        -10.1010   22.0510   24.7180 C.2   127  GLU127      0.2592
     18  O        -10.1810   23.2640   24.5350 O.2   127  GLU127     -0.2718
     19  CB       -12.3980   21.8550   23.7670 C.3   127  GLU127      0.0402
     20  CG       -13.6370   21.0120   23.5410 C.3   127  GLU127      0.1161
     21  CD       -14.6640   21.7000   22.6280 C.2   127  GLU127      0.3649
     22  OE1      -14.3160   22.5630   21.7860 O.co2 127  GLU127     -0.2457
     23  OE2      -15.8330   21.3680   22.7540 O.co2 127  GLU127     -0.2457
     24  N         -8.9310   21.4420   24.9290 N.am  128  TYR128     -0.1976
     25  CA        -8.7370   20.0040   25.1470 C.3   128  TYR128      0.1639
     26  C         -7.6470   19.8180   26.1940 C.2   128  TYR128      0.2290
     27  O         -6.7680   20.6830   26.3150 O.2   128  TYR128     -0.2864
     28  CB        -8.3130   19.2870   23.8500 C.3   128  TYR128      0.0560
     29  CG        -9.3030   19.4600   22.7390 C.ar  128  TYR128     -0.0198
     30  CD1      -10.4070   18.6330   22.6540 C.ar  128  TYR128     -0.0009
     31  CD2       -9.1670   20.4820   21.8100 C.ar  128  TYR128     -0.0009
     32  CE1      -11.3300   18.7870   21.6670 C.ar  128  TYR128      0.0417
     33  CE2      -10.1000   20.6510   20.8110 C.ar  128  TYR128      0.0417
     34  CZ       -11.1820   19.7960   20.7490 C.ar  128  TYR128      0.1957
     35  OH       -12.1230   19.9460   19.7650 O.3   128  TYR128     -0.2866
     36  N        -16.6260   13.8240   18.4770 N.3   193  MET193     -0.1245
     37  CA       -16.9750   15.0530   17.7730 C.3   193  MET193      0.1570
     38  C        -16.5480   14.9860   16.3110 C.2   193  MET193      0.2261
     39  O        -15.6390   15.7030   15.8740 O.2   193  MET193     -0.2867
     40  CB       -16.3650   16.2720   18.4580 C.3   193  MET193      0.0387
     41  CG       -16.9970   16.5480   19.8260 C.3   193  MET193      0.0595
     42  SD       -16.3520   17.9920   20.6670 S.3   193  MET193     -0.1393
     43  CE       -14.7600   17.3820   21.0660 C.3   193  MET193      0.0692
     44  N        -16.9180   16.1530   13.4360 N.3   195  TYR195     -0.1227
     45  CA       -17.2020   17.3060   12.6000 C.3   195  TYR195      0.1736
     46  C        -16.0850   18.3340   12.8330 C.2   195  TYR195      0.2595
     47  O        -15.1200   18.0470   13.5540 O.2   195  TYR195     -0.2718
     48  CB       -18.5800   17.8810   12.8970 C.3   195  TYR195      0.0548
     49  CG       -18.9580   17.8280   14.3680 C.ar  195  TYR195     -0.0200
     50  CD1      -18.3600   18.6820   15.3010 C.ar  195  TYR195     -0.0009
     51  CD2      -19.9010   16.9130   14.8200 C.ar  195  TYR195     -0.0009
     52  CE1      -18.7170   18.6280   16.6450 C.ar  195  TYR195      0.0417
     53  CE2      -20.2460   16.8360   16.1530 C.ar  195  TYR195      0.0417
     54  CZ       -19.6520   17.6920   17.0570 C.ar  195  TYR195      0.1957
     55  OH       -20.0340   17.6160   18.3690 O.3   195  TYR195     -0.2866
     56  N        -16.2030   19.5040   12.1980 N.am  196  ASP196     -0.1974
     57  CA       -15.1250   20.4980   12.1690 C.3   196  ASP196      0.1709
     58  C        -13.8090   19.9370   11.6600 C.2   196  ASP196      0.2293
     59  O        -12.7470   20.3760   12.0780 O.2   196  ASP196     -0.2864
     60  CB       -14.8980   21.1090   13.5570 C.3   196  ASP196      0.1436
     61  CG       -16.1130   21.8430   14.0720 C.2   196  ASP196      0.3671
     62  OD1      -16.9600   22.2600   13.2480 O.co2 196  ASP196     -0.2456
     63  OD2      -16.2250   21.9840   15.3030 O.co2 196  ASP196     -0.2456
     64  N        -12.7980   27.4880    7.8320 N.3   200  LYS200     -0.1231
     65  CA       -12.1950   28.7140    7.3160 C.3   200  LYS200      0.1693
     66  C        -10.7740   28.9590    7.8290 C.2   200  LYS200      0.2592
     67  O        -10.0680   29.8270    7.3290 O.2   200  LYS200     -0.2718
     68  CB       -13.0800   29.9130    7.6710 C.3   200  LYS200      0.0285
     69  CG       -13.0320   30.3020    9.1240 C.3   200  LYS200      0.0035
     70  CD       -13.8310   31.5700    9.3600 C.3   200  LYS200      0.0206
     71  CE       -13.7780   31.9920   10.8220 C.3   200  LYS200      0.1093
     72  NZ       -14.6500   33.1690   11.0550 N.3   200  LYS200     -0.1314
     73  N        -10.3470   28.1890    8.8230 N.am  201  TRP201     -0.1976
     74  CA        -8.9780   28.2890    9.3140 C.3   201  TRP201      0.1640
     75  C         -7.9860   27.6810    8.3060 C.2   201  TRP201      0.2290
     76  O         -6.7760   27.7320    8.5180 O.2   201  TRP201     -0.2864
     77  CB        -8.8570   27.6070   10.6810 C.3   201  TRP201      0.0576
     78  CG        -9.3120   26.1670   10.6830 C.ar  201  TRP201      0.0006
     79  CD1       -8.5490   25.0630   10.4140 C.ar  201  TRP201      0.0946
     80  CD2      -10.6300   25.6870   10.9650 C.ar  201  TRP201      0.0152
     81  NE1       -9.3160   23.9180   10.5140 N.ar  201  TRP201     -0.2442
     82  CE2      -10.5950   24.2740   10.8540 C.ar  201  TRP201      0.0810
     83  CE3      -11.8340   26.3090   11.3140 C.ar  201  TRP201      0.0012
     84  CZ2      -11.7150   23.4820   11.0710 C.ar  201  TRP201      0.0191
     85  CZ3      -12.9540   25.5170   11.5350 C.ar  201  TRP201      0.0001
     86  CH2      -12.8840   24.1140   11.4120 C.ar  201  TRP201      0.0015
     87  N        -19.7640   23.9470    7.2420 N.3   252  ARG252     -0.1245
     88  CA       -18.7480   24.9930    7.2670 C.3   252  ARG252      0.1563
     89  C        -18.5210   25.6020    5.8720 C.2   252  ARG252      0.2260
     90  O        -18.5200   24.9050    4.8510 O.2   252  ARG252     -0.2867
     91  CB       -17.4400   24.4600    7.8440 C.3   252  ARG252      0.0307
     92  CG       -17.5750   24.1180    9.3200 C.3   252  ARG252      0.0489
     93  CD       -16.4970   24.7480   10.1800 C.3   252  ARG252      0.2205
     94  NE       -16.7920   24.5140   11.5910 N.pl3 252  ARG252     -0.0865
     95  CZ       -17.0980   25.4610   12.4690 C.cat 252  ARG252      0.5346
     96  NH1      -17.3780   25.1330   13.7340 N.pl3 252  ARG252      0.1354
     97  NH2      -17.1300   26.7310   12.0900 N.pl3 252  ARG252      0.1354
     98  N        -22.6020   33.9660   11.9750 N.3   280  GLU280     -0.1245
     99  CA       -21.1770   33.7020   12.1560 C.3   280  GLU280      0.1567
    100  C        -20.4960   33.2570   10.8580 C.2   280  GLU280      0.2260
    101  O        -20.8200   32.2090   10.2950 O.2   280  GLU280     -0.2867
    102  CB       -20.9720   32.6390   13.2390 C.3   280  GLU280      0.0388
    103  CG       -19.5110   32.3140   13.4640 C.3   280  GLU280      0.1160
    104  CD       -19.2870   31.3280   14.5950 C.2   280  GLU280      0.3649
    105  OE1      -19.8510   31.5280   15.7030 O.co2 280  GLU280     -0.2457
    106  OE2      -18.5320   30.3540   14.3760 O.co2 280  GLU280     -0.2457
@<TRIPOS>BOND
     1    90    89    2
     2    89    88    1
     3    87    88    1
     4    88    91    1
     5    65    68    1
     6    65    66    1
     7    65    64    1
     8    67    66    2
     9    68    69    1
    10    66    73   am
    11    91    92    1
    12    75    76    2
    13    75    74    1
    14    73    74    1
    15    69    70    1
    16    74    77    1
    17    92    93    1
    18    70    71    1
    19    93    94    1
    20   101   100    2
    21    79    81   ar
    22    79    78   ar
    23    81    82   ar
    24    77    78    1
    25    78    80   ar
    26    71    72    1
    27    82    80   ar
    28    82    84   ar
    29   100    99    1
    30    80    83   ar
    31    84    86   ar
    32    83    85   ar
    33    86    85   ar
    34    94    95    2
    35    58    59    2
    36    58    57    1
    37    98    99    1
    38    97    95    1
    39    99   102    1
    40    57    56    1
    41    57    60    1
    42    56    46   am
    43    95    96    1
    44    45    46    1
    45    45    48    1
    46    45    44    1
    47    46    47    2
    48    48    49    1
    49   102   103    1
    50    62    61   ar
    51   103   104    1
    52    60    61    1
    53    61    63   ar
    54    49    51   ar
    55    49    50   ar
    56   106   104   ar
    57   104   105   ar
    58    51    53   ar
    59    50    52   ar
    60    39    38    2
    61    53    54   ar
    62    38    37    1
    63    52    54   ar
    64    54    55    1
    65    37    40    1
    66    37    36    1
    67    40    41    1
    68    35    34    1
    69     9    10   ar
    70     9     7   ar
    71    41    42    1
    72    12    10   ar
    73    12    14   ar
    74    10     8   ar
    75     7     6   ar
    76    14    13   ar
    77    42    43    1
    78    34    33   ar
    79    34    32   ar
    80    33    31   ar
    81     8     6   ar
    82     8    11   ar
    83     6     5    1
    84    13    11   ar
    85    32    30   ar
    86     5     2    1
    87    22    21   ar
    88    31    29   ar
    89    21    23   ar
    90    21    20    1
    91    30    29   ar
    92    29    28    1
    93     2     1    1
    94     2     3    1
    95    20    19    1
    96    19    16    1
    97    28    25    1
    98     3     4    2
    99    18    17    2
   100    16    17    1
   101    16    15    1
   102    17    24   am
   103    24    25    1
   104    25    26    1
   105    26    27    2
