@<TRIPOS>MOLECULE
tmp/5wv9A01.pdb
 123 125 0 0 0
SMALL
GASTEIGER

@<TRIPOS>ATOM
      1  N        -27.9850   28.7900   24.0740 N.3    12  TRP12      -0.1241
      2  CA       -27.9440   30.0780   23.3740 C.3    12  TRP12       0.1605
      3  C        -28.8410   30.0860   22.1290 C.2    12  TRP12       0.2264
      4  O        -29.0540   31.1240   21.5230 O.2    12  TRP12      -0.2867
      5  CB       -26.5060   30.4660   23.0050 C.3    12  TRP12       0.0550
      6  CG       -25.7510   29.5290   22.0830 C.ar   12  TRP12       0.0003
      7  CD1      -25.6680   29.6020   20.7080 C.ar   12  TRP12       0.0946
      8  CD2      -24.9310   28.4150   22.4720 C.ar   12  TRP12       0.0152
      9  NE1      -24.8590   28.5910   20.2250 N.ar   12  TRP12      -0.2442
     10  CE2      -24.3880   27.8560   21.2830 C.ar   12  TRP12       0.0810
     11  CE3      -24.6090   27.8320   23.7060 C.ar   12  TRP12       0.0012
     12  CZ2      -23.5420   26.7440   21.2960 C.ar   12  TRP12       0.0191
     13  CZ3      -23.7670   26.7310   23.7160 C.ar   12  TRP12       0.0001
     14  CH2      -23.2410   26.2010   22.5160 C.ar   12  TRP12       0.0015
     15  N        -24.6900   24.7110   27.9510 N.3    39  PHE39      -0.1241
     16  CA       -23.7590   24.0780   28.8850 C.3    39  PHE39       0.1605
     17  C        -24.0710   24.5130   30.3140 C.2    39  PHE39       0.2264
     18  O        -24.7560   25.5310   30.5390 O.2    39  PHE39      -0.2867
     19  CB       -22.2950   24.4800   28.6080 C.3    39  PHE39       0.0534
     20  CG       -21.7370   24.0080   27.3070 C.ar   39  PHE39      -0.0203
     21  CD1      -21.2610   22.7140   27.1640 C.ar   39  PHE39      -0.0042
     22  CD2      -21.6000   24.8920   26.2380 C.ar   39  PHE39      -0.0042
     23  CE1      -20.7070   22.2860   25.9610 C.ar   39  PHE39      -0.0003
     24  CE2      -21.0540   24.4770   25.0210 C.ar   39  PHE39      -0.0003
     25  CZ       -20.6060   23.1730   24.8830 C.ar   39  PHE39      -0.0000
     26  N        -21.6100   25.4130   33.8260 N.3    41  TRP41      -0.1241
     27  CA       -20.4270   26.2430   33.9030 C.3    41  TRP41       0.1605
     28  C        -19.6820   25.8840   35.1720 C.2    41  TRP41       0.2264
     29  O        -20.1350   25.0360   35.9450 O.2    41  TRP41      -0.2867
     30  CB       -20.8180   27.7340   33.8720 C.3    41  TRP41       0.0550
     31  CG       -19.7450   28.6420   33.3840 C.ar   41  TRP41       0.0003
     32  CD1      -18.9980   29.5070   34.1390 C.ar   41  TRP41       0.0946
     33  CD2      -19.2970   28.8000   32.0260 C.ar   41  TRP41       0.0152
     34  NE1      -18.1040   30.1820   33.3300 N.ar   41  TRP41      -0.2442
     35  CE2      -18.2750   29.7740   32.0330 C.ar   41  TRP41       0.0810
     36  CE3      -19.6840   28.2320   30.8010 C.ar   41  TRP41       0.0012
     37  CZ2      -17.6160   30.1770   30.8700 C.ar   41  TRP41       0.0191
     38  CZ3      -19.0200   28.6270   29.6410 C.ar   41  TRP41       0.0001
     39  CH2      -17.9980   29.5970   29.6860 C.ar   41  TRP41       0.0015
     40  N        -24.7340   28.4100   33.7400 N.3    50  PHE50      -0.1241
     41  CA       -24.2150   29.2710   32.7140 C.3    50  PHE50       0.1605
     42  C        -24.7890   30.6870   32.7600 C.2    50  PHE50       0.2264
     43  O        -24.0960   31.6670   32.4880 O.2    50  PHE50      -0.2867
     44  CB       -24.5480   28.6270   31.3980 C.3    50  PHE50       0.0534
     45  CG       -24.1690   29.4220   30.2490 C.ar   50  PHE50      -0.0203
     46  CD1      -25.0250   30.3830   29.7570 C.ar   50  PHE50      -0.0042
     47  CD2      -22.9530   29.2070   29.6400 C.ar   50  PHE50      -0.0042
     48  CE1      -24.6800   31.1230   28.6690 C.ar   50  PHE50      -0.0003
     49  CE2      -22.5950   29.9280   28.5430 C.ar   50  PHE50      -0.0003
     50  CZ       -23.4640   30.9120   28.0660 C.ar   50  PHE50      -0.0000
     51  N        -18.1290   22.6190   29.7830 N.3    84  GLY84      -0.1210
     52  CA       -16.9850   22.8880   28.9500 C.3    84  GLY84       0.1956
     53  C        -17.4230   23.5120   27.6450 C.2    84  GLY84       0.2612
     54  O        -18.2740   24.4080   27.6260 O.2    84  GLY84      -0.2717
     55  N        -16.8440   23.0360   26.5570 N.am   85  GLY85      -0.1942
     56  CA       -17.1130   23.6040   25.2560 C.3    85  GLY85       0.2014
     57  C        -16.0040   24.5500   24.8440 C.2    85  GLY85       0.2639
     58  O        -14.9990   24.7140   25.5510 O.2    85  GLY85      -0.2714
     59  N        -16.2010   25.1880   23.6950 N.am   86  TRP86      -0.1959
     60  CA       -15.2060   26.0800   23.1050 C.3    86  TRP86       0.1771
     61  C        -14.9970   27.3540   23.9300 C.2    86  TRP86       0.2620
     62  O        -13.8620   27.7170   24.2250 O.2    86  TRP86      -0.2715
     63  CB       -15.6170   26.4300   21.6710 C.3    86  TRP86       0.0590
     64  CG       -14.6980   27.3900   20.9860 C.ar   86  TRP86       0.0006
     65  CD1      -13.5710   27.0870   20.2750 C.ar   86  TRP86       0.0946
     66  CD2      -14.8350   28.8180   20.9360 C.ar   86  TRP86       0.0152
     67  NE1      -12.9950   28.2410   19.7910 N.ar   86  TRP86      -0.2442
     68  CE2      -13.7520   29.3160   20.1820 C.ar   86  TRP86       0.0810
     69  CE3      -15.7700   29.7220   21.4550 C.ar   86  TRP86       0.0012
     70  CZ2      -13.5760   30.6810   19.9380 C.ar   86  TRP86       0.0191
     71  CZ3      -15.5920   31.0740   21.2140 C.ar   86  TRP86       0.0001
     72  CH2      -14.5060   31.5400   20.4610 C.ar   86  TRP86       0.0015
     73  N        -16.0880   28.0140   24.3150 N.am   87  SER87      -0.1950
     74  CA       -16.0100   29.2720   25.0840 C.3    87  SER87       0.1924
     75  C        -15.3310   29.0870   26.4360 C.2    87  SER87       0.2314
     76  O        -14.6060   29.9560   26.8990 O.2    87  SER87      -0.2863
     77  CB       -17.4070   29.8760   25.3230 C.3    87  SER87       0.2116
     78  OG       -18.0360   30.2800   24.1140 O.3    87  SER87      -0.2180
     79  N        -19.7640   23.9470    7.2420 N.3   252  ARG252     -0.1245
     80  CA       -18.7480   24.9930    7.2670 C.3   252  ARG252      0.1563
     81  C        -18.5210   25.6020    5.8720 C.2   252  ARG252      0.2260
     82  O        -18.5200   24.9050    4.8510 O.2   252  ARG252     -0.2867
     83  CB       -17.4400   24.4600    7.8440 C.3   252  ARG252      0.0307
     84  CG       -17.5750   24.1180    9.3200 C.3   252  ARG252      0.0489
     85  CD       -16.4970   24.7480   10.1800 C.3   252  ARG252      0.2205
     86  NE       -16.7920   24.5140   11.5910 N.pl3 252  ARG252     -0.0865
     87  CZ       -17.0980   25.4610   12.4690 C.cat 252  ARG252      0.5346
     88  NH1      -17.3780   25.1330   13.7340 N.pl3 252  ARG252      0.1354
     89  NH2      -17.1300   26.7310   12.0900 N.pl3 252  ARG252      0.1354
     90  N        -22.6020   33.9660   11.9750 N.3   280  GLU280     -0.1245
     91  CA       -21.1770   33.7020   12.1560 C.3   280  GLU280      0.1567
     92  C        -20.4960   33.2570   10.8580 C.2   280  GLU280      0.2260
     93  O        -20.8200   32.2090   10.2950 O.2   280  GLU280     -0.2867
     94  CB       -20.9720   32.6390   13.2390 C.3   280  GLU280      0.0388
     95  CG       -19.5110   32.3140   13.4640 C.3   280  GLU280      0.1160
     96  CD       -19.2870   31.3280   14.5950 C.2   280  GLU280      0.3649
     97  OE1      -19.8510   31.5280   15.7030 O.co2 280  GLU280     -0.2457
     98  OE2      -18.5320   30.3540   14.3760 O.co2 280  GLU280     -0.2457
     99  N        -19.7800   29.4550    9.0170 N.3   283  PHE283     -0.1241
    100  CA       -20.6980   28.5390    9.6560 C.3   283  PHE283      0.1605
    101  C        -22.1110   28.7740    9.1350 C.2   283  PHE283      0.2264
    102  O        -22.5170   29.9280    8.9570 O.2   283  PHE283     -0.2867
    103  CB       -20.6090   28.7640   11.1780 C.3   283  PHE283      0.0534
    104  CG       -21.4660   27.8570   12.0080 C.ar  283  PHE283     -0.0203
    105  CD1      -22.8010   28.1640   12.2420 C.ar  283  PHE283     -0.0042
    106  CD2      -20.9190   26.7410   12.6320 C.ar  283  PHE283     -0.0042
    107  CE1      -23.5920   27.3570   13.0340 C.ar  283  PHE283     -0.0003
    108  CE2      -21.7040   25.9270   13.4460 C.ar  283  PHE283     -0.0003
    109  CZ       -23.0470   26.2350   13.6400 C.ar  283  PHE283     -0.0000
    110  N        -24.8330   17.3380   16.9040 N.3   343  TRP343     -0.1241
    111  CA       -24.6070   18.7570   17.1800 C.3   343  TRP343      0.1605
    112  C        -25.2190   19.6030   16.0430 C.2   343  TRP343      0.2264
    113  O        -24.6090   19.7090   14.9900 O.2   343  TRP343     -0.2867
    114  CB       -23.1100   19.0520   17.3240 C.3   343  TRP343      0.0550
    115  CG       -22.8700   20.4690   17.7910 C.ar  343  TRP343      0.0003
    116  CD1      -22.8050   21.6000   17.0090 C.ar  343  TRP343      0.0946
    117  CD2      -22.7200   20.9080   19.1460 C.ar  343  TRP343      0.0152
    118  NE1      -22.6100   22.7120   17.8020 N.ar  343  TRP343     -0.2442
    119  CE2      -22.5570   22.3150   19.1160 C.ar  343  TRP343      0.0810
    120  CE3      -22.7050   20.2530   20.3780 C.ar  343  TRP343      0.0012
    121  CZ2      -22.3780   23.0680   20.2740 C.ar  343  TRP343      0.0191
    122  CZ3      -22.5390   21.0020   21.5290 C.ar  343  TRP343      0.0001
    123  CH2      -22.3690   22.3980   21.4710 C.ar  343  TRP343      0.0015
@<TRIPOS>BOND
     1    82    81    2
     2    81    80    1
     3    79    80    1
     4    80    83    1
     5    83    84    1
     6   102   101    2
     7    99   100    1
     8   101   100    1
     9    84    85    1
    10   100   103    1
    11    85    86    1
    12    93    92    2
    13    92    91    1
    14   103   104    1
    15    86    87    2
    16    90    91    1
    17   104   105   ar
    18   104   106   ar
    19    89    87    1
    20    91    94    1
    21   105   107   ar
    22    87    88    1
    23   106   108   ar
    24   107   109   ar
    25    94    95    1
    26   108   109   ar
    27    95    96    1
    28    98    96   ar
    29    96    97   ar
    30   113   112    2
    31   112   111    1
    32   110   111    1
    33   116   115   ar
    34   116   118   ar
    35   111   114    1
    36   114   115    1
    37   115   117   ar
    38   118   119   ar
    39   119   117   ar
    40   119   121   ar
    41   117   120   ar
    42    67    68   ar
    43    67    65   ar
    44    70    68   ar
    45    70    72   ar
    46    68    66   ar
    47     9     7   ar
    48     9    10   ar
    49   121   123   ar
    50    65    64   ar
    51   120   122   ar
    52    72    71   ar
    53     7     6   ar
    54    66    64   ar
    55    66    69   ar
    56    64    63    1
    57    71    69   ar
    58    10    12   ar
    59    10     8   ar
    60    12    14   ar
    61   123   122   ar
    62     4     3    2
    63    63    60    1
    64     6     8   ar
    65     6     5    1
    66     3     2    1
    67     8    11   ar
    68    14    13   ar
    69     5     2    1
    70    60    59    1
    71    60    61    1
    72     2     1    1
    73    59    57   am
    74    11    13   ar
    75    61    62    2
    76    61    73   am
    77    78    77    1
    78    73    74    1
    79    57    56    1
    80    57    58    2
    81    25    24   ar
    82    25    23   ar
    83    24    22   ar
    84    74    77    1
    85    74    75    1
    86    56    55    1
    87    23    21   ar
    88    22    20   ar
    89    75    76    2
    90    55    53   am
    91    21    20   ar
    92    20    19    1
    93    54    53    2
    94    53    52    1
    95    15    16    1
    96    50    49   ar
    97    50    48   ar
    98    49    47   ar
    99    19    16    1
   100    48    46   ar
   101    16    17    1
   102    52    51    1
   103    47    45   ar
   104    38    39   ar
   105    38    36   ar
   106    39    37   ar
   107    46    45   ar
   108    45    44    1
   109    17    18    2
   110    36    33   ar
   111    37    35   ar
   112    44    41    1
   113    33    35   ar
   114    33    31   ar
   115    35    34   ar
   116    43    42    2
   117    41    42    1
   118    41    40    1
   119    34    32   ar
   120    31    30    1
   121    31    32   ar
   122    26    27    1
   123    30    27    1
   124    27    28    1
   125    28    29    2
