@<TRIPOS>MOLECULE
tmp/5wv9A04.pdb
 109 108 0 0 0
SMALL
GASTEIGER

@<TRIPOS>ATOM
      1  N        -16.2010   25.1880   23.6950 N.3    86  TRP86      -0.1241
      2  CA       -15.2060   26.0800   23.1050 C.3    86  TRP86       0.1605
      3  C        -14.9970   27.3540   23.9300 C.2    86  TRP86       0.2264
      4  O        -13.8620   27.7170   24.2250 O.2    86  TRP86      -0.2867
      5  CB       -15.6170   26.4300   21.6710 C.3    86  TRP86       0.0550
      6  CG       -14.6980   27.3900   20.9860 C.ar   86  TRP86       0.0003
      7  CD1      -13.5710   27.0870   20.2750 C.ar   86  TRP86       0.0946
      8  CD2      -14.8350   28.8180   20.9360 C.ar   86  TRP86       0.0152
      9  NE1      -12.9950   28.2410   19.7910 N.ar   86  TRP86      -0.2442
     10  CE2      -13.7520   29.3160   20.1820 C.ar   86  TRP86       0.0810
     11  CE3      -15.7700   29.7220   21.4550 C.ar   86  TRP86       0.0012
     12  CZ2      -13.5760   30.6810   19.9380 C.ar   86  TRP86       0.0191
     13  CZ3      -15.5920   31.0740   21.2140 C.ar   86  TRP86       0.0001
     14  CH2      -14.5060   31.5400   20.4610 C.ar   86  TRP86       0.0015
     15  N         -8.9310   21.4420   24.9290 N.3   128  TYR128     -0.1241
     16  CA        -8.7370   20.0040   25.1470 C.3   128  TYR128      0.1605
     17  C         -7.6470   19.8180   26.1940 C.2   128  TYR128      0.2264
     18  O         -6.7680   20.6830   26.3150 O.2   128  TYR128     -0.2867
     19  CB        -8.3130   19.2870   23.8500 C.3   128  TYR128      0.0534
     20  CG        -9.3030   19.4600   22.7390 C.ar  128  TYR128     -0.0201
     21  CD1      -10.4070   18.6330   22.6540 C.ar  128  TYR128     -0.0009
     22  CD2       -9.1670   20.4820   21.8100 C.ar  128  TYR128     -0.0009
     23  CE1      -11.3300   18.7870   21.6670 C.ar  128  TYR128      0.0417
     24  CE2      -10.1000   20.6510   20.8110 C.ar  128  TYR128      0.0417
     25  CZ       -11.1820   19.7960   20.7490 C.ar  128  TYR128      0.1957
     26  OH       -12.1230   19.9460   19.7650 O.3   128  TYR128     -0.2866
     27  N        -11.3880   14.5220   17.1620 N.3   169  VAL169     -0.1231
     28  CA       -11.0810   13.6280   16.0610 C.3   169  VAL169      0.1692
     29  C         -9.6960   13.8750   15.4900 C.2   169  VAL169      0.2592
     30  O         -9.2300   13.0960   14.6770 O.2   169  VAL169     -0.2718
     31  CB       -12.1220   13.7570   14.9290 C.3   169  VAL169      0.0266
     32  CG1      -13.4860   13.2460   15.4000 C.3   169  VAL169      0.0020
     33  CG2      -12.2380   15.1910   14.4640 C.3   169  VAL169      0.0020
     34  N         -9.0390   14.9630   15.8980 N.am  170  GLY170     -0.1957
     35  CA        -7.7060   15.2640   15.3890 C.3   170  GLY170      0.1869
     36  C         -6.6730   14.3570   16.0370 C.2   170  GLY170      0.2309
     37  O         -6.6250   14.2500   17.2530 O.2   170  GLY170     -0.2863
     38  N         -4.4630   16.0270   18.7140 N.3   173  ASN173     -0.1240
     39  CA        -5.2420   16.2850   19.9220 C.3   173  ASN173      0.1653
     40  C         -5.4310   15.0180   20.7550 C.2   173  ASN173      0.2266
     41  O         -5.2500   15.0140   21.9810 O.2   173  ASN173     -0.2867
     42  CB        -6.6270   16.8650   19.5770 C.3   173  ASN173      0.1155
     43  CG        -6.5650   18.3070   19.1040 C.2   173  ASN173      0.2627
     44  OD1       -5.6900   19.0680   19.5190 O.2   173  ASN173     -0.2716
     45  ND2       -7.5090   18.6940   18.2400 N.am  173  ASN173     -0.0877
     46  N        -16.9180   16.1530   13.4360 N.3   195  TYR195     -0.1227
     47  CA       -17.2020   17.3060   12.6000 C.3   195  TYR195      0.1736
     48  C        -16.0850   18.3340   12.8330 C.2   195  TYR195      0.2595
     49  O        -15.1200   18.0470   13.5540 O.2   195  TYR195     -0.2718
     50  CB       -18.5800   17.8810   12.8970 C.3   195  TYR195      0.0548
     51  CG       -18.9580   17.8280   14.3680 C.ar  195  TYR195     -0.0200
     52  CD1      -18.3600   18.6820   15.3010 C.ar  195  TYR195     -0.0009
     53  CD2      -19.9010   16.9130   14.8200 C.ar  195  TYR195     -0.0009
     54  CE1      -18.7170   18.6280   16.6450 C.ar  195  TYR195      0.0417
     55  CE2      -20.2460   16.8360   16.1530 C.ar  195  TYR195      0.0417
     56  CZ       -19.6520   17.6920   17.0570 C.ar  195  TYR195      0.1957
     57  OH       -20.0340   17.6160   18.3690 O.3   195  TYR195     -0.2866
     58  N        -16.2030   19.5040   12.1980 N.am  196  ASP196     -0.1960
     59  CA       -15.1250   20.4980   12.1690 C.3   196  ASP196      0.1840
     60  C        -13.8090   19.9370   11.6600 C.2   196  ASP196      0.2622
     61  O        -12.7470   20.3760   12.0780 O.2   196  ASP196     -0.2715
     62  CB       -14.8980   21.1090   13.5570 C.3   196  ASP196      0.1450
     63  CG       -16.1130   21.8430   14.0720 C.2   196  ASP196      0.3671
     64  OD1      -16.9600   22.2600   13.2480 O.co2 196  ASP196     -0.2456
     65  OD2      -16.2250   21.9840   15.3030 O.co2 196  ASP196     -0.2456
     66  N        -13.8720   18.9820   10.7380 N.am  197  PHE197     -0.1974
     67  CA       -12.6600   18.4270   10.1370 C.3   197  PHE197      0.1639
     68  C        -11.9330   19.4670    9.2760 C.2   197  PHE197      0.2290
     69  O        -10.7110   19.4390    9.1460 O.2   197  PHE197     -0.2864
     70  CB       -13.0020   17.1920    9.2850 C.3   197  PHE197      0.0560
     71  CG       -13.1650   15.9190   10.0870 C.ar  197  PHE197     -0.0200
     72  CD1      -12.0620   15.1230   10.3820 C.ar  197  PHE197     -0.0042
     73  CD2      -14.4130   15.5090   10.5240 C.ar  197  PHE197     -0.0042
     74  CE1      -12.2070   13.9480   11.1080 C.ar  197  PHE197     -0.0003
     75  CE2      -14.5600   14.3280   11.2450 C.ar  197  PHE197     -0.0003
     76  CZ       -13.4610   13.5520   11.5370 C.ar  197  PHE197     -0.0000
     77  N        -10.3470   28.1890    8.8230 N.3   201  TRP201     -0.1241
     78  CA        -8.9780   28.2890    9.3140 C.3   201  TRP201      0.1605
     79  C         -7.9860   27.6810    8.3060 C.2   201  TRP201      0.2264
     80  O         -6.7760   27.7320    8.5180 O.2   201  TRP201     -0.2867
     81  CB        -8.8570   27.6070   10.6810 C.3   201  TRP201      0.0550
     82  CG        -9.3120   26.1670   10.6830 C.ar  201  TRP201      0.0003
     83  CD1       -8.5490   25.0630   10.4140 C.ar  201  TRP201      0.0946
     84  CD2      -10.6300   25.6870   10.9650 C.ar  201  TRP201      0.0152
     85  NE1       -9.3160   23.9180   10.5140 N.ar  201  TRP201     -0.2442
     86  CE2      -10.5950   24.2740   10.8540 C.ar  201  TRP201      0.0810
     87  CE3      -11.8340   26.3090   11.3140 C.ar  201  TRP201      0.0012
     88  CZ2      -11.7150   23.4820   11.0710 C.ar  201  TRP201      0.0191
     89  CZ3      -12.9540   25.5170   11.5350 C.ar  201  TRP201      0.0001
     90  CH2      -12.8840   24.1140   11.4120 C.ar  201  TRP201      0.0015
     91  N         -8.0590   13.0650    8.2730 N.3   224  LEU224     -0.1245
     92  CA        -9.1810   13.8970    8.6410 C.3   224  LEU224      0.1561
     93  C        -10.4730   13.4080    7.9780 C.2   224  LEU224      0.2260
     94  O        -10.9420   13.9890    6.9910 O.2   224  LEU224     -0.2867
     95  CB        -8.8810   15.3540    8.2790 C.3   224  LEU224      0.0270
     96  CG        -7.7670   15.9780    9.1290 C.3   224  LEU224      0.0019
     97  CD1       -7.4120   17.3940    8.6730 C.3   224  LEU224      0.0001
     98  CD2       -8.1810   15.9860   10.6070 C.3   224  LEU224      0.0001
     99  N        -19.7640   23.9470    7.2420 N.3   252  ARG252     -0.1245
    100  CA       -18.7480   24.9930    7.2670 C.3   252  ARG252      0.1563
    101  C        -18.5210   25.6020    5.8720 C.2   252  ARG252      0.2260
    102  O        -18.5200   24.9050    4.8510 O.2   252  ARG252     -0.2867
    103  CB       -17.4400   24.4600    7.8440 C.3   252  ARG252      0.0307
    104  CG       -17.5750   24.1180    9.3200 C.3   252  ARG252      0.0489
    105  CD       -16.4970   24.7480   10.1800 C.3   252  ARG252      0.2205
    106  NE       -16.7920   24.5140   11.5910 N.pl3 252  ARG252     -0.0865
    107  CZ       -17.0980   25.4610   12.4690 C.cat 252  ARG252      0.5346
    108  NH1      -17.3780   25.1330   13.7340 N.pl3 252  ARG252      0.1354
    109  NH2      -17.1300   26.7310   12.0900 N.pl3 252  ARG252      0.1354
@<TRIPOS>BOND
     1   102   101    2
     2   101   100    1
     3    94    93    2
     4    99   100    1
     5   100   103    1
     6   103   104    1
     7    93    92    1
     8    91    92    1
     9    95    92    1
    10    95    96    1
    11    79    80    2
    12    79    78    1
    13    97    96    1
    14    77    78    1
    15    96    98    1
    16    69    68    2
    17    68    67    1
    18    70    71    1
    19    70    67    1
    20    78    81    1
    21   104   105    1
    22    71    72   ar
    23    71    73   ar
    24    67    66    1
    25   105   106    1
    26    72    74   ar
    27    83    85   ar
    28    83    82   ar
    29    85    86   ar
    30    73    75   ar
    31    81    82    1
    32    82    84   ar
    33    66    60   am
    34    86    84   ar
    35    86    88   ar
    36    84    87   ar
    37    88    90   ar
    38    74    76   ar
    39    75    76   ar
    40    87    89   ar
    41    90    89   ar
    42   106   107    2
    43    60    61    2
    44    60    59    1
    45   109   107    1
    46    59    58    1
    47    59    62    1
    48    58    48   am
    49   107   108    1
    50    47    48    1
    51    47    50    1
    52    47    46    1
    53    48    49    2
    54    50    51    1
    55    64    63   ar
    56    62    63    1
    57    63    65   ar
    58    51    53   ar
    59    51    52   ar
    60    33    31    1
    61    30    29    2
    62    53    55   ar
    63    31    32    1
    64    31    28    1
    65    52    54   ar
    66    35    34    1
    67    35    36    1
    68    29    34   am
    69    29    28    1
    70    36    37    2
    71    28    27    1
    72    55    56   ar
    73    54    56   ar
    74    56    57    1
    75    45    43   am
    76    38    39    1
    77    43    44    2
    78    43    42    1
    79    42    39    1
    80    26    25    1
    81     9    10   ar
    82     9     7   ar
    83    39    40    1
    84    12    10   ar
    85    12    14   ar
    86    10     8   ar
    87     7     6   ar
    88    14    13   ar
    89    25    24   ar
    90    25    23   ar
    91    40    41    2
    92    24    22   ar
    93     8     6   ar
    94     8    11   ar
    95     6     5    1
    96    13    11   ar
    97    23    21   ar
    98     5     2    1
    99    22    20   ar
   100    21    20   ar
   101    20    19    1
   102     2     1    1
   103     2     3    1
   104    19    16    1
   105     3     4    2
   106    15    16    1
   107    16    17    1
   108    17    18    2
