@<TRIPOS>MOLECULE
tmp/5wv9A02.pdb
 153 151 0 0 0
SMALL
GASTEIGER

@<TRIPOS>ATOM
      1  N        -27.4030   17.0920   21.4160 N.3     8  TYR8       -0.1241
      2  CA       -27.0170   18.2790   22.1680 C.3     8  TYR8        0.1605
      3  C        -28.0350   19.3870   21.9400 C.2     8  TYR8        0.2264
      4  O        -28.3640   19.7130   20.7850 O.2     8  TYR8       -0.2867
      5  CB       -25.6170   18.7590   21.7710 C.3     8  TYR8        0.0534
      6  CG       -24.4870   17.9780   22.4100 C.ar    8  TYR8       -0.0201
      7  CD1      -23.9510   18.3720   23.6410 C.ar    8  TYR8       -0.0009
      8  CD2      -23.9450   16.8560   21.7840 C.ar    8  TYR8       -0.0009
      9  CE1      -22.9080   17.6680   24.2310 C.ar    8  TYR8        0.0417
     10  CE2      -22.9070   16.1380   22.3750 C.ar    8  TYR8        0.0417
     11  CZ       -22.3990   16.5480   23.6040 C.ar    8  TYR8        0.1957
     12  OH       -21.3650   15.8390   24.1840 O.3     8  TYR8       -0.2866
     13  N        -27.9850   28.7900   24.0740 N.3    12  TRP12      -0.1241
     14  CA       -27.9440   30.0780   23.3740 C.3    12  TRP12       0.1605
     15  C        -28.8410   30.0860   22.1290 C.2    12  TRP12       0.2264
     16  O        -29.0540   31.1240   21.5230 O.2    12  TRP12      -0.2867
     17  CB       -26.5060   30.4660   23.0050 C.3    12  TRP12       0.0550
     18  CG       -25.7510   29.5290   22.0830 C.ar   12  TRP12       0.0003
     19  CD1      -25.6680   29.6020   20.7080 C.ar   12  TRP12       0.0946
     20  CD2      -24.9310   28.4150   22.4720 C.ar   12  TRP12       0.0152
     21  NE1      -24.8590   28.5910   20.2250 N.ar   12  TRP12      -0.2442
     22  CE2      -24.3880   27.8560   21.2830 C.ar   12  TRP12       0.0810
     23  CE3      -24.6090   27.8320   23.7060 C.ar   12  TRP12       0.0012
     24  CZ2      -23.5420   26.7440   21.2960 C.ar   12  TRP12       0.0191
     25  CZ3      -23.7670   26.7310   23.7160 C.ar   12  TRP12       0.0001
     26  CH2      -23.2410   26.2010   22.5160 C.ar   12  TRP12       0.0015
     27  N        -24.6900   24.7110   27.9510 N.3    39  PHE39      -0.1241
     28  CA       -23.7590   24.0780   28.8850 C.3    39  PHE39       0.1605
     29  C        -24.0710   24.5130   30.3140 C.2    39  PHE39       0.2264
     30  O        -24.7560   25.5310   30.5390 O.2    39  PHE39      -0.2867
     31  CB       -22.2950   24.4800   28.6080 C.3    39  PHE39       0.0534
     32  CG       -21.7370   24.0080   27.3070 C.ar   39  PHE39      -0.0203
     33  CD1      -21.2610   22.7140   27.1640 C.ar   39  PHE39      -0.0042
     34  CD2      -21.6000   24.8920   26.2380 C.ar   39  PHE39      -0.0042
     35  CE1      -20.7070   22.2860   25.9610 C.ar   39  PHE39      -0.0003
     36  CE2      -21.0540   24.4770   25.0210 C.ar   39  PHE39      -0.0003
     37  CZ       -20.6060   23.1730   24.8830 C.ar   39  PHE39      -0.0000
     38  N        -16.8440   23.0360   26.5570 N.3    85  GLY85      -0.1210
     39  CA       -17.1130   23.6040   25.2560 C.3    85  GLY85       0.1956
     40  C        -16.0040   24.5500   24.8440 C.2    85  GLY85       0.2611
     41  O        -14.9990   24.7140   25.5510 O.2    85  GLY85      -0.2717
     42  N        -16.2010   25.1880   23.6950 N.am   86  TRP86      -0.1976
     43  CA       -15.2060   26.0800   23.1050 C.3    86  TRP86       0.1640
     44  C        -14.9970   27.3540   23.9300 C.2    86  TRP86       0.2290
     45  O        -13.8620   27.7170   24.2250 O.2    86  TRP86      -0.2864
     46  CB       -15.6170   26.4300   21.6710 C.3    86  TRP86       0.0576
     47  CG       -14.6980   27.3900   20.9860 C.ar   86  TRP86       0.0006
     48  CD1      -13.5710   27.0870   20.2750 C.ar   86  TRP86       0.0946
     49  CD2      -14.8350   28.8180   20.9360 C.ar   86  TRP86       0.0152
     50  NE1      -12.9950   28.2410   19.7910 N.ar   86  TRP86      -0.2442
     51  CE2      -13.7520   29.3160   20.1820 C.ar   86  TRP86       0.0810
     52  CE3      -15.7700   29.7220   21.4550 C.ar   86  TRP86       0.0012
     53  CZ2      -13.5760   30.6810   19.9380 C.ar   86  TRP86       0.0191
     54  CZ3      -15.5920   31.0740   21.2140 C.ar   86  TRP86       0.0001
     55  CH2      -14.5060   31.5400   20.4610 C.ar   86  TRP86       0.0015
     56  N        -16.7790   18.1880   28.5840 N.3   125  ASP125     -0.1239
     57  CA       -16.3980   18.7050   27.2700 C.3   125  ASP125      0.1674
     58  C        -15.2010   19.6400   27.3430 C.2   125  ASP125      0.2266
     59  O        -15.2740   20.7880   26.9310 O.2   125  ASP125     -0.2867
     60  CB       -17.5850   19.4340   26.6150 C.3   125  ASP125      0.1410
     61  CG       -18.7550   18.5100   26.3720 C.2   125  ASP125      0.3668
     62  OD1      -18.7650   17.3850   26.9290 O.co2 125  ASP125     -0.2456
     63  OD2      -19.6930   18.9020   25.6710 O.co2 125  ASP125     -0.2456
     64  N        -11.9600   21.0530   26.0280 N.3   127  GLU127     -0.1245
     65  CA       -11.3780   21.2100   24.7060 C.3   127  GLU127      0.1567
     66  C        -10.1010   22.0510   24.7180 C.2   127  GLU127      0.2260
     67  O        -10.1810   23.2640   24.5350 O.2   127  GLU127     -0.2867
     68  CB       -12.3980   21.8550   23.7670 C.3   127  GLU127      0.0388
     69  CG       -13.6370   21.0120   23.5410 C.3   127  GLU127      0.1160
     70  CD       -14.6640   21.7000   22.6280 C.2   127  GLU127      0.3649
     71  OE1      -14.3160   22.5630   21.7860 O.co2 127  GLU127     -0.2457
     72  OE2      -15.8330   21.3680   22.7540 O.co2 127  GLU127     -0.2457
     73  N        -17.3110   14.4880   25.4690 N.3   166  ALA166     -0.1245
     74  CA       -17.1530   14.7960   24.0510 C.3   166  ALA166      0.1562
     75  C        -15.6710   14.8620   23.7470 C.2   166  ALA166      0.2260
     76  O        -14.9350   15.5840   24.4220 O.2   166  ALA166     -0.2867
     77  CB       -17.8360   16.1090   23.6930 C.3   166  ALA166      0.0290
     78  N        -16.6260   13.8240   18.4770 N.3   193  MET193     -0.1245
     79  CA       -16.9750   15.0530   17.7730 C.3   193  MET193      0.1570
     80  C        -16.5480   14.9860   16.3110 C.2   193  MET193      0.2261
     81  O        -15.6390   15.7030   15.8740 O.2   193  MET193     -0.2867
     82  CB       -16.3650   16.2720   18.4580 C.3   193  MET193      0.0387
     83  CG       -16.9970   16.5480   19.8260 C.3   193  MET193      0.0595
     84  SD       -16.3520   17.9920   20.6670 S.3   193  MET193     -0.1393
     85  CE       -14.7600   17.3820   21.0660 C.3   193  MET193      0.0692
     86  N        -16.9180   16.1530   13.4360 N.3   195  TYR195     -0.1227
     87  CA       -17.2020   17.3060   12.6000 C.3   195  TYR195      0.1736
     88  C        -16.0850   18.3340   12.8330 C.2   195  TYR195      0.2595
     89  O        -15.1200   18.0470   13.5540 O.2   195  TYR195     -0.2718
     90  CB       -18.5800   17.8810   12.8970 C.3   195  TYR195      0.0548
     91  CG       -18.9580   17.8280   14.3680 C.ar  195  TYR195     -0.0200
     92  CD1      -18.3600   18.6820   15.3010 C.ar  195  TYR195     -0.0009
     93  CD2      -19.9010   16.9130   14.8200 C.ar  195  TYR195     -0.0009
     94  CE1      -18.7170   18.6280   16.6450 C.ar  195  TYR195      0.0417
     95  CE2      -20.2460   16.8360   16.1530 C.ar  195  TYR195      0.0417
     96  CZ       -19.6520   17.6920   17.0570 C.ar  195  TYR195      0.1957
     97  OH       -20.0340   17.6160   18.3690 O.3   195  TYR195     -0.2866
     98  N        -16.2030   19.5040   12.1980 N.am  196  ASP196     -0.1974
     99  CA       -15.1250   20.4980   12.1690 C.3   196  ASP196      0.1709
    100  C        -13.8090   19.9370   11.6600 C.2   196  ASP196      0.2293
    101  O        -12.7470   20.3760   12.0780 O.2   196  ASP196     -0.2864
    102  CB       -14.8980   21.1090   13.5570 C.3   196  ASP196      0.1436
    103  CG       -16.1130   21.8430   14.0720 C.2   196  ASP196      0.3671
    104  OD1      -16.9600   22.2600   13.2480 O.co2 196  ASP196     -0.2456
    105  OD2      -16.2250   21.9840   15.3030 O.co2 196  ASP196     -0.2456
    106  N        -25.0730   21.2190   10.7580 N.3   250  TYR250     -0.1241
    107  CA       -24.5510   22.4760   10.2660 C.3   250  TYR250      0.1605
    108  C        -23.4700   22.1600    9.2620 C.2   250  TYR250      0.2264
    109  O        -22.9850   21.0160    9.1830 O.2   250  TYR250     -0.2867
    110  CB       -24.0010   23.3460   11.4120 C.3   250  TYR250      0.0534
    111  CG       -22.7440   22.7880   12.0510 C.ar  250  TYR250     -0.0201
    112  CD1      -22.8120   21.8550   13.0870 C.ar  250  TYR250     -0.0009
    113  CD2      -21.4900   23.1630   11.5890 C.ar  250  TYR250     -0.0009
    114  CE1      -21.6490   21.3320   13.6590 C.ar  250  TYR250      0.0417
    115  CE2      -20.3360   22.6530   12.1570 C.ar  250  TYR250      0.0417
    116  CZ       -20.4210   21.7440   13.1870 C.ar  250  TYR250      0.1957
    117  OH       -19.2460   21.2590   13.7360 O.3   250  TYR250     -0.2866
    118  N        -19.7640   23.9470    7.2420 N.3   252  ARG252     -0.1245
    119  CA       -18.7480   24.9930    7.2670 C.3   252  ARG252      0.1563
    120  C        -18.5210   25.6020    5.8720 C.2   252  ARG252      0.2260
    121  O        -18.5200   24.9050    4.8510 O.2   252  ARG252     -0.2867
    122  CB       -17.4400   24.4600    7.8440 C.3   252  ARG252      0.0307
    123  CG       -17.5750   24.1180    9.3200 C.3   252  ARG252      0.0489
    124  CD       -16.4970   24.7480   10.1800 C.3   252  ARG252      0.2205
    125  NE       -16.7920   24.5140   11.5910 N.pl3 252  ARG252     -0.0865
    126  CZ       -17.0980   25.4610   12.4690 C.cat 252  ARG252      0.5346
    127  NH1      -17.3780   25.1330   13.7340 N.pl3 252  ARG252      0.1354
    128  NH2      -17.1300   26.7310   12.0900 N.pl3 252  ARG252      0.1354
    129  N        -19.7800   29.4550    9.0170 N.3   283  PHE283     -0.1241
    130  CA       -20.6980   28.5390    9.6560 C.3   283  PHE283      0.1605
    131  C        -22.1110   28.7740    9.1350 C.2   283  PHE283      0.2264
    132  O        -22.5170   29.9280    8.9570 O.2   283  PHE283     -0.2867
    133  CB       -20.6090   28.7640   11.1780 C.3   283  PHE283      0.0534
    134  CG       -21.4660   27.8570   12.0080 C.ar  283  PHE283     -0.0203
    135  CD1      -22.8010   28.1640   12.2420 C.ar  283  PHE283     -0.0042
    136  CD2      -20.9190   26.7410   12.6320 C.ar  283  PHE283     -0.0042
    137  CE1      -23.5920   27.3570   13.0340 C.ar  283  PHE283     -0.0003
    138  CE2      -21.7040   25.9270   13.4460 C.ar  283  PHE283     -0.0003
    139  CZ       -23.0470   26.2350   13.6400 C.ar  283  PHE283     -0.0000
    140  N        -24.8330   17.3380   16.9040 N.3   343  TRP343     -0.1241
    141  CA       -24.6070   18.7570   17.1800 C.3   343  TRP343      0.1605
    142  C        -25.2190   19.6030   16.0430 C.2   343  TRP343      0.2264
    143  O        -24.6090   19.7090   14.9900 O.2   343  TRP343     -0.2867
    144  CB       -23.1100   19.0520   17.3240 C.3   343  TRP343      0.0550
    145  CG       -22.8700   20.4690   17.7910 C.ar  343  TRP343      0.0003
    146  CD1      -22.8050   21.6000   17.0090 C.ar  343  TRP343      0.0946
    147  CD2      -22.7200   20.9080   19.1460 C.ar  343  TRP343      0.0152
    148  NE1      -22.6100   22.7120   17.8020 N.ar  343  TRP343     -0.2442
    149  CE2      -22.5570   22.3150   19.1160 C.ar  343  TRP343      0.0810
    150  CE3      -22.7050   20.2530   20.3780 C.ar  343  TRP343      0.0012
    151  CZ2      -22.3780   23.0680   20.2740 C.ar  343  TRP343      0.0191
    152  CZ3      -22.5390   21.0020   21.5290 C.ar  343  TRP343      0.0001
    153  CH2      -22.3690   22.3980   21.4710 C.ar  343  TRP343      0.0015
@<TRIPOS>BOND
     1   121   120    2
     2   120   119    1
     3   118   119    1
     4   119   122    1
     5   122   123    1
     6   132   131    2
     7   129   130    1
     8   131   130    1
     9   109   108    2
    10   108   107    1
    11   123   124    1
    12   130   133    1
    13   124   125    1
    14   107   106    1
    15   107   110    1
    16   133   134    1
    17   110   111    1
    18   113   111   ar
    19   113   115   ar
    20   125   126    2
    21   100   101    2
    22   100    99    1
    23   134   135   ar
    24   134   136   ar
    25   111   112   ar
    26   128   126    1
    27   115   116   ar
    28    99    98    1
    29    99   102    1
    30    98    88   am
    31   135   137   ar
    32   126   127    1
    33    87    88    1
    34    87    90    1
    35    87    86    1
    36   136   138   ar
    37    88    89    2
    38    90    91    1
    39   137   139   ar
    40   112   114   ar
    41   116   114   ar
    42   116   117    1
    43   104   103   ar
    44   138   139   ar
    45   102   103    1
    46   103   105   ar
    47    91    93   ar
    48    91    92   ar
    49    93    95   ar
    50   143   142    2
    51    92    94   ar
    52    81    80    2
    53   142   141    1
    54    95    96   ar
    55    80    79    1
    56    94    96   ar
    57   140   141    1
    58   146   145   ar
    59   146   148   ar
    60    96    97    1
    61   141   144    1
    62   144   145    1
    63    79    82    1
    64    79    78    1
    65   145   147   ar
    66   148   149   ar
    67    82    83    1
    68   149   147   ar
    69   149   151   ar
    70   147   150   ar
    71    50    51   ar
    72    50    48   ar
    73    83    84    1
    74    53    51   ar
    75    53    55   ar
    76    51    49   ar
    77    21    19   ar
    78    21    22   ar
    79   151   153   ar
    80    48    47   ar
    81   150   152   ar
    82    55    54   ar
    83    84    85    1
    84    19    18   ar
    85     4     3    2
    86    49    47   ar
    87    49    52   ar
    88    47    46    1
    89    54    52   ar
    90    22    24   ar
    91    22    20   ar
    92    24    26   ar
    93     1     2    1
    94   153   152   ar
    95    16    15    2
    96    46    43    1
    97     5     2    1
    98     5     6    1
    99     8    10   ar
   100     8     6   ar
   101    71    70   ar
   102     3     2    1
   103    18    20   ar
   104    18    17    1
   105    15    14    1
   106    10    11   ar
   107     6     7   ar
   108    20    23   ar
   109    26    25   ar
   110    70    72   ar
   111    70    69    1
   112    17    14    1
   113    43    42    1
   114    43    44    1
   115    14    13    1
   116    69    68    1
   117    11    12    1
   118    11     9   ar
   119     7     9   ar
   120    77    74    1
   121    42    40   am
   122    23    25   ar
   123    75    74    1
   124    75    76    2
   125    68    65    1
   126    44    45    2
   127    74    73    1
   128    67    66    2
   129    65    66    1
   130    65    64    1
   131    40    39    1
   132    40    41    2
   133    37    36   ar
   134    37    35   ar
   135    36    34   ar
   136    39    38    1
   137    63    61   ar
   138    35    33   ar
   139    34    32   ar
   140    61    60    1
   141    61    62   ar
   142    60    57    1
   143    59    58    2
   144    33    32   ar
   145    57    58    1
   146    57    56    1
   147    32    31    1
   148    27    28    1
   149    31    28    1
   150    28    29    1
   151    29    30    2
