@<TRIPOS>MOLECULE
tmp/5wvgA04.pdb
 113 113 0 0 0
SMALL
GASTEIGER

@<TRIPOS>ATOM
      1  N        -10.5160   10.2450   24.6890 N.3    79  TRP79      -0.1241
      2  CA       -11.8390    9.7040   24.9590 C.3    79  TRP79       0.1605
      3  C        -11.8230    8.3870   25.7320 C.2    79  TRP79       0.2264
      4  O        -12.4920    8.2520   26.7570 O.2    79  TRP79      -0.2867
      5  CB       -12.6020    9.4950   23.6570 C.3    79  TRP79       0.0550
      6  CG       -13.9080    8.8410   23.9060 C.ar   79  TRP79       0.0003
      7  CD1      -14.2450    7.5460   23.6430 C.ar   79  TRP79       0.0946
      8  CD2      -15.0520    9.4380   24.5220 C.ar   79  TRP79       0.0152
      9  NE1      -15.5400    7.3050   24.0400 N.ar   79  TRP79      -0.2442
     10  CE2      -16.0550    8.4520   24.5850 C.ar   79  TRP79       0.0810
     11  CE3      -15.3260   10.7150   25.0210 C.ar   79  TRP79       0.0012
     12  CZ2      -17.3160    8.7050   25.1250 C.ar   79  TRP79       0.0191
     13  CZ3      -16.5750   10.9650   25.5560 C.ar   79  TRP79       0.0001
     14  CH2      -17.5540    9.9640   25.6030 C.ar   79  TRP79       0.0015
     15  N        -14.2680   14.0000   30.5040 N.3   121  TYR121     -0.1241
     16  CA       -14.3070   15.4470   30.7060 C.3   121  TYR121      0.1605
     17  C        -14.4370   15.7110   32.2020 C.2   121  TYR121      0.2264
     18  O        -15.0670   14.9310   32.9150 O.2   121  TYR121     -0.2867
     19  CB       -15.4970   16.1000   29.9900 C.3   121  TYR121      0.0534
     20  CG       -15.7010   15.7370   28.5360 C.ar  121  TYR121     -0.0201
     21  CD1      -16.4540   14.6230   28.1760 C.ar  121  TYR121     -0.0009
     22  CD2      -15.1780   16.5230   27.5220 C.ar  121  TYR121     -0.0009
     23  CE1      -16.6600   14.2920   26.8510 C.ar  121  TYR121      0.0417
     24  CE2      -15.3830   16.2000   26.1890 C.ar  121  TYR121      0.0417
     25  CZ       -16.1230   15.0860   25.8600 C.ar  121  TYR121      0.1957
     26  OH       -16.3250   14.7670   24.5380 O.3   121  TYR121     -0.2866
     27  N        -17.1630   20.9550   22.8550 N.3   162  ALA162     -0.1231
     28  CA       -17.9180   21.9580   22.1180 C.3   162  ALA162      0.1694
     29  C        -19.2000   22.3380   22.8500 C.2   162  ALA162      0.2592
     30  O        -19.5760   23.5100   22.8860 O.2   162  ALA162     -0.2718
     31  CB       -18.2380   21.4520   20.7180 C.3   162  ALA162      0.0304
     32  N        -19.8560   21.3360   23.4350 N.am  163  SER163     -0.1952
     33  CA       -21.1470   21.5110   24.1050 C.3   163  SER163      0.1924
     34  C        -21.1260   22.5830   25.1850 C.2   163  SER163      0.2314
     35  O        -20.2900   22.5540   26.0830 O.2   163  SER163     -0.2863
     36  CB       -21.6120   20.1890   24.7240 C.3   163  SER163      0.2116
     37  OG       -22.7640   20.3760   25.5290 O.3   163  SER163     -0.2180
     38  N        -16.5190   19.0140   16.9050 N.3   188  TYR188     -0.1227
     39  CA       -16.9890   17.9020   16.0970 C.3   188  TYR188      0.1736
     40  C        -17.6980   16.9090   17.0120 C.2   188  TYR188      0.2595
     41  O        -17.8530   17.1730   18.2030 O.2   188  TYR188     -0.2718
     42  CB       -15.8350   17.2350   15.3440 C.3   188  TYR188      0.0548
     43  CG       -14.5610   17.0730   16.1440 C.ar  188  TYR188     -0.0200
     44  CD1      -14.4870   16.1630   17.1920 C.ar  188  TYR188     -0.0009
     45  CD2      -13.4260   17.8170   15.8380 C.ar  188  TYR188     -0.0009
     46  CE1      -13.3220   16.0060   17.9180 C.ar  188  TYR188      0.0417
     47  CE2      -12.2540   17.6690   16.5590 C.ar  188  TYR188      0.0417
     48  CZ       -12.2060   16.7630   17.5980 C.ar  188  TYR188      0.1957
     49  OH       -11.0400   16.6130   18.3160 O.3   188  TYR188     -0.2866
     50  N        -18.1240   15.7810   16.4570 N.am  189  ASP189     -0.1960
     51  CA       -18.8870   14.7790   17.2010 C.3   189  ASP189      0.1840
     52  C        -20.1200   15.3960   17.8530 C.2   189  ASP189      0.2622
     53  O        -20.4860   15.0430   18.9720 O.2   189  ASP189     -0.2715
     54  CB       -18.0110   14.0970   18.2560 C.3   189  ASP189      0.1450
     55  CG       -16.8980   13.2670   17.6400 C.2   189  ASP189      0.3671
     56  OD1      -17.0290   12.8620   16.4630 O.co2 189  ASP189     -0.2456
     57  OD2      -15.8860   13.0210   18.3340 O.co2 189  ASP189     -0.2456
     58  N        -20.7480   16.3230   17.1360 N.am  190  PHE190     -0.1974
     59  CA       -22.0110   16.9120   17.5620 C.3   190  PHE190      0.1639
     60  C        -23.1080   15.8630   17.4680 C.2   190  PHE190      0.2290
     61  O        -24.0530   15.8500   18.2610 O.2   190  PHE190     -0.2864
     62  CB       -22.3670   18.1260   16.7020 C.3   190  PHE190      0.0560
     63  CG       -21.5630   19.3540   17.0210 C.ar  190  PHE190     -0.0200
     64  CD1      -21.8250   20.0860   18.1660 C.ar  190  PHE190     -0.0042
     65  CD2      -20.5540   19.7830   16.1680 C.ar  190  PHE190     -0.0042
     66  CE1      -21.0920   21.2170   18.4600 C.ar  190  PHE190     -0.0003
     67  CE2      -19.8160   20.9170   16.4560 C.ar  190  PHE190     -0.0003
     68  CZ       -20.0860   21.6340   17.6050 C.ar  190  PHE190     -0.0000
     69  N        -24.1030    7.1870   18.7570 N.3   194  TRP194     -0.1241
     70  CA       -24.7960    7.0500   20.0350 C.3   194  TRP194      0.1605
     71  C        -26.2590    7.4430   19.8590 C.2   194  TRP194      0.2264
     72  O        -27.1150    7.0910   20.6710 O.2   194  TRP194     -0.2867
     73  CB       -24.1350    7.9070   21.1170 C.3   194  TRP194      0.0550
     74  CG       -24.0060    9.3530   20.7550 C.ar  194  TRP194      0.0003
     75  CD1      -24.8820   10.3580   21.0450 C.ar  194  TRP194      0.0946
     76  CD2      -22.9290    9.9580   20.0330 C.ar  194  TRP194      0.0152
     77  NE1      -24.4180   11.5510   20.5500 N.ar  194  TRP194     -0.2442
     78  CE2      -23.2190   11.3330   19.9220 C.ar  194  TRP194      0.0810
     79  CE3      -21.7460    9.4700   19.4680 C.ar  194  TRP194      0.0012
     80  CZ2      -22.3710   12.2230   19.2700 C.ar  194  TRP194      0.0191
     81  CZ3      -20.9020   10.3570   18.8210 C.ar  194  TRP194      0.0001
     82  CH2      -21.2200   11.7190   18.7250 C.ar  194  TRP194      0.0015
     83  N        -32.4620   24.2430   21.1110 N.3   213  TYR213     -0.1241
     84  CA       -31.4170   23.4250   21.7060 C.3   213  TYR213      0.1605
     85  C        -30.3450   23.0320   20.6860 C.2   213  TYR213      0.2264
     86  O        -29.1660   23.2660   20.9050 O.2   213  TYR213     -0.2867
     87  CB       -31.9900   22.1650   22.3510 C.3   213  TYR213      0.0534
     88  CG       -30.8950   21.2310   22.8020 C.ar  213  TYR213     -0.0201
     89  CD1      -30.1870   21.4790   23.9690 C.ar  213  TYR213     -0.0009
     90  CD2      -30.5430   20.1200   22.0450 C.ar  213  TYR213     -0.0009
     91  CE1      -29.1700   20.6430   24.3750 C.ar  213  TYR213      0.0417
     92  CE2      -29.5260   19.2780   22.4430 C.ar  213  TYR213      0.0417
     93  CZ       -28.8420   19.5450   23.6110 C.ar  213  TYR213      0.1957
     94  OH       -27.8270   18.7060   24.0140 O.3   213  TYR213     -0.2866
     95  N        -25.8620   23.1600   18.9630 N.3   217  LEU217     -0.1245
     96  CA       -24.9000   22.1130   18.6400 C.3   217  LEU217      0.1561
     97  C        -24.3170   22.3510   17.2550 C.2   217  LEU217      0.2260
     98  O        -24.4960   21.5490   16.3330 O.2   217  LEU217     -0.2867
     99  CB       -25.5430   20.7290   18.7390 C.3   217  LEU217      0.0270
    100  CG       -26.2380   20.4140   20.0700 C.3   217  LEU217      0.0019
    101  CD1      -26.6370   18.9430   20.1370 C.3   217  LEU217      0.0001
    102  CD2      -25.3710   20.8000   21.2680 C.3   217  LEU217      0.0001
    103  N        -18.9940   11.1820   10.4710 N.3   245  ARG245     -0.1245
    104  CA       -19.7630   10.2760   11.3270 C.3   245  ARG245      0.1563
    105  C        -20.8350    9.5480   10.5240 C.2   245  ARG245      0.2260
    106  O        -21.6730   10.1790    9.8730 O.2   245  ARG245     -0.2867
    107  CB       -20.4030   11.0290   12.4930 C.3   245  ARG245      0.0307
    108  CG       -19.4250   11.4390   13.5740 C.3   245  ARG245      0.0489
    109  CD       -19.1490   10.2890   14.5250 C.3   245  ARG245      0.2205
    110  NE       -17.9860   10.5560   15.3600 N.pl3 245  ARG245     -0.0865
    111  CZ       -17.2880    9.6130   15.9880 C.cat 245  ARG245      0.5346
    112  NH1      -17.6460    8.3430   15.8750 N.pl3 245  ARG245      0.1354
    113  NH2      -16.2390    9.9470   16.7280 N.pl3 245  ARG245      0.1354
@<TRIPOS>BOND
     1   106   105    2
     2   103   104    1
     3   105   104    1
     4   104   107    1
     5   107   108    1
     6   108   109    1
     7   109   110    1
     8    42    39    1
     9    42    43    1
    10   110   111    2
    11    45    43   ar
    12    45    47   ar
    13   112   111    1
    14   111   113    1
    15    39    38    1
    16    39    40    1
    17    43    44   ar
    18    65    67   ar
    19    65    63   ar
    20    98    97    2
    21    67    68   ar
    22    50    40   am
    23    50    51    1
    24    56    55   ar
    25    47    48   ar
    26    62    63    1
    27    62    59    1
    28    40    41    2
    29    63    64   ar
    30    58    59    1
    31    58    52   am
    32    44    46   ar
    33    51    52    1
    34    51    54    1
    35    97    96    1
    36    60    59    1
    37    60    61    2
    38    48    46   ar
    39    48    49    1
    40    68    66   ar
    41    55    54    1
    42    55    57   ar
    43    52    53    2
    44    64    66   ar
    45    96    99    1
    46    96    95    1
    47    82    81   ar
    48    82    80   ar
    49    99   100    1
    50    69    70    1
    51    81    79   ar
    52    80    78   ar
    53    79    76   ar
    54    71    70    1
    55    71    72    2
    56    78    76   ar
    57    78    77   ar
    58    76    74   ar
    59    70    73    1
    60   100   101    1
    61   100   102    1
    62    77    75   ar
    63    85    86    2
    64    85    84    1
    65    31    28    1
    66    74    75   ar
    67    74    73    1
    68    83    84    1
    69    84    87    1
    70    90    92   ar
    71    90    88   ar
    72    28    29    1
    73    28    27    1
    74    87    88    1
    75    92    93   ar
    76    88    89   ar
    77    29    30    2
    78    29    32   am
    79    32    33    1
    80    93    94    1
    81    93    91   ar
    82     7     6   ar
    83     7     9   ar
    84     5     6    1
    85     5     2    1
    86     6     8   ar
    87    89    91   ar
    88     9    10   ar
    89    33    36    1
    90    33    34    1
    91     8    10   ar
    92     8    11   ar
    93    26    25    1
    94    10    12   ar
    95     1     2    1
    96    36    37    1
    97     2     3    1
    98    11    13   ar
    99    12    14   ar
   100    34    35    2
   101    13    14   ar
   102     3     4    2
   103    25    24   ar
   104    25    23   ar
   105    24    22   ar
   106    23    21   ar
   107    22    20   ar
   108    21    20   ar
   109    20    19    1
   110    19    16    1
   111    15    16    1
   112    16    17    1
   113    17    18    2
