@<TRIPOS>MOLECULE
tmp/5wvhA02.pdb
 131 129 0 0 0
SMALL
GASTEIGER

@<TRIPOS>ATOM
      1  N          2.4160   61.2120  188.5420 N.3     9  THR9       -0.1218
      2  CA         2.7570   62.3580  189.3780 C.3     9  THR9        0.1862
      3  C          1.7200   63.4650  189.2250 C.2     9  THR9        0.2287
      4  O          1.2520   63.7420  188.1210 O.2     9  THR9       -0.2866
      5  CB         4.1510   62.9170  189.0370 C.3     9  THR9        0.1770
      6  OG1        4.1370   63.4750  187.7180 O.3     9  THR9       -0.2211
      7  CG2        5.1980   61.8190  189.1090 C.3     9  THR9        0.0375
      8  N          2.1570   66.6840  189.8600 N.3    11  TRP11      -0.1241
      9  CA         2.7280   67.9610  189.4450 C.3    11  TRP11       0.1605
     10  C          3.0490   68.0120  187.9530 C.2    11  TRP11       0.2264
     11  O          3.4820   69.0450  187.4430 O.2    11  TRP11      -0.2867
     12  CB         3.9860   68.2750  190.2600 C.3    11  TRP11       0.0550
     13  CG         5.0800   67.2580  190.1400 C.ar   11  TRP11       0.0003
     14  CD1        6.0810   67.2360  189.2120 C.ar   11  TRP11       0.0946
     15  CD2        5.2970   66.1250  190.9900 C.ar   11  TRP11       0.0152
     16  NE1        6.9020   66.1560  189.4270 N.ar   11  TRP11      -0.2442
     17  CE2        6.4420   65.4580  190.5130 C.ar   11  TRP11       0.0810
     18  CE3        4.6290   65.6060  192.1030 C.ar   11  TRP11       0.0012
     19  CZ2        6.9360   64.3000  191.1110 C.ar   11  TRP11       0.0191
     20  CZ3        5.1220   64.4590  192.6980 C.ar   11  TRP11       0.0001
     21  CH2        6.2630   63.8180  192.2000 C.ar   11  TRP11       0.0015
     22  N          2.9390   71.2330  184.0760 N.3    15  ARG15      -0.1245
     23  CA         3.9880   71.3110  183.0680 C.3    15  ARG15       0.1563
     24  C          3.6400   72.3200  181.9840 C.2    15  ARG15       0.2260
     25  O          2.4600   72.5330  181.6830 O.2    15  ARG15      -0.2867
     26  CB         4.2350   69.9360  182.4440 C.3    15  ARG15       0.0307
     27  CG         4.7640   68.8980  183.4200 C.3    15  ARG15       0.0489
     28  CD         5.7600   67.9660  182.7500 C.3    15  ARG15       0.2205
     29  NE         6.6750   67.3590  183.7120 N.pl3  15  ARG15      -0.0865
     30  CZ         6.6030   66.0960  184.1180 C.cat  15  ARG15       0.5346
     31  NH1        5.6550   65.2990  183.6450 N.pl3  15  ARG15       0.1354
     32  NH2        7.4790   65.6290  184.9970 N.pl3  15  ARG15       0.1354
     33  N          1.8460   62.7750  194.8900 N.3    38  PHE38      -0.1241
     34  CA         1.6480   62.0940  196.1680 C.3    38  PHE38       0.1605
     35  C          0.5520   62.7940  196.9570 C.2    38  PHE38       0.2264
     36  O          0.1880   63.9300  196.6540 O.2    38  PHE38      -0.2867
     37  CB         2.9270   62.0850  197.0150 C.3    38  PHE38       0.0534
     38  CG         4.0700   61.3300  196.4070 C.ar   38  PHE38      -0.0203
     39  CD1        4.1970   59.9630  196.5960 C.ar   38  PHE38      -0.0042
     40  CD2        5.0400   61.9940  195.6750 C.ar   38  PHE38      -0.0042
     41  CE1        5.2580   59.2690  196.0440 C.ar   38  PHE38      -0.0003
     42  CE2        6.1020   61.3070  195.1230 C.ar   38  PHE38      -0.0003
     43  CZ         6.2110   59.9430  195.3070 C.ar   38  PHE38      -0.0000
     44  N          7.3600   59.9870  199.2470 N.3    78  GLY78      -0.1210
     45  CA         8.1190   60.6080  198.1830 C.3    78  GLY78       0.1956
     46  C          9.4640   61.0870  198.6780 C.2    78  GLY78       0.2612
     47  O          9.7390   61.0820  199.8790 O.2    78  GLY78      -0.2717
     48  N         10.3050   61.5130  197.7470 N.am   79  TRP79      -0.1962
     49  CA        11.6580   61.9120  198.0860 C.3    79  TRP79       0.1771
     50  C         11.7050   63.2500  198.8210 C.2    79  TRP79       0.2619
     51  O         12.6210   63.5030  199.6030 O.2    79  TRP79      -0.2715
     52  CB        12.5150   61.9800  196.8250 C.3    79  TRP79       0.0590
     53  CG        13.9590   62.0360  197.1420 C.ar   79  TRP79       0.0006
     54  CD1       14.7480   60.9990  197.5450 C.ar   79  TRP79       0.0946
     55  CD2       14.7970   63.1920  197.1100 C.ar   79  TRP79       0.0152
     56  NE1       16.0310   61.4370  197.7580 N.ar   79  TRP79      -0.2442
     57  CE2       16.0880   62.7810  197.4970 C.ar   79  TRP79       0.0810
     58  CE3       14.5850   64.5360  196.7870 C.ar   79  TRP79       0.0012
     59  CZ2       17.1610   63.6650  197.5700 C.ar   79  TRP79       0.0191
     60  CZ3       15.6510   65.4110  196.8590 C.ar   79  TRP79       0.0001
     61  CH2       16.9230   64.9730  197.2480 C.ar   79  TRP79       0.0015
     62  N         10.7150   64.1010  198.5710 N.am   80  ALA80      -0.1977
     63  CA        10.6770   65.4340  199.1680 C.3    80  ALA80       0.1597
     64  C         10.0500   65.4140  200.5580 C.2    80  ALA80       0.2287
     65  O         10.4270   66.1990  201.4280 O.2    80  ALA80      -0.2864
     66  CB         9.9190   66.3940  198.2630 C.3    80  ALA80       0.0319
     67  N         12.7360   58.0520  182.4820 N.3   243  TYR243     -0.1241
     68  CA        13.5170   59.2730  182.5060 C.3   243  TYR243      0.1605
     69  C         15.0010   58.9530  182.5130 C.2   243  TYR243      0.2264
     70  O         15.4030   57.8480  182.8700 O.2   243  TYR243     -0.2867
     71  CB        13.1630   60.1110  183.7280 C.3   243  TYR243      0.0534
     72  CG        13.6150   59.5080  185.0420 C.ar  243  TYR243     -0.0201
     73  CD1       12.8020   58.6230  185.7360 C.ar  243  TYR243     -0.0009
     74  CD2       14.8550   59.8260  185.5880 C.ar  243  TYR243     -0.0009
     75  CE1       13.2090   58.0700  186.9350 C.ar  243  TYR243      0.0417
     76  CE2       15.2710   59.2760  186.7850 C.ar  243  TYR243      0.0417
     77  CZ        14.4440   58.3980  187.4550 C.ar  243  TYR243      0.1957
     78  OH        14.8510   57.8480  188.6480 O.3   243  TYR243     -0.2866
     79  N         19.1320   60.4390  183.5480 N.3   245  ARG245     -0.1245
     80  CA        19.8940   61.3260  184.4200 C.3   245  ARG245      0.1563
     81  C         20.9750   62.0400  183.6200 C.2   245  ARG245      0.2260
     82  O         21.8450   61.4020  183.0270 O.2   245  ARG245     -0.2867
     83  CB        20.5140   60.5490  185.5830 C.3   245  ARG245      0.0307
     84  CG        19.5280   60.1770  186.6750 C.3   245  ARG245      0.0489
     85  CD        19.2890   61.3390  187.6220 C.3   245  ARG245      0.2205
     86  NE        18.2040   61.0680  188.5600 N.pl3 245  ARG245     -0.0865
     87  CZ        17.4550   62.0080  189.1280 C.cat 245  ARG245      0.5346
     88  NH1       17.6740   63.2880  188.8550 N.pl3 245  ARG245      0.1354
     89  NH2       16.4870   61.6690  189.9680 N.pl3 245  ARG245      0.1354
     90  N         14.1010   70.7500  185.6610 N.3   273  GLU273     -0.1245
     91  CA        14.9990   70.3000  186.7160 C.3   273  GLU273      0.1567
     92  C         16.2600   69.7070  186.1100 C.2   273  GLU273      0.2260
     93  O         16.2060   68.7230  185.3720 O.2   273  GLU273     -0.2867
     94  CB        14.3120   69.2790  187.6250 C.3   273  GLU273      0.0388
     95  CG        15.1070   68.9440  188.8780 C.3   273  GLU273      0.1160
     96  CD        14.3010   68.1530  189.8890 C.2   273  GLU273      0.3649
     97  OE1       13.0850   67.9680  189.6700 O.co2 273  GLU273     -0.2457
     98  OE2       14.8830   67.7150  190.9040 O.co2 273  GLU273     -0.2457
     99  N         18.2260   65.7520  185.1980 N.3   276  PHE276     -0.1241
    100  CA        17.2190   64.7870  184.8730 C.3   276  PHE276      0.1605
    101  C         16.3970   65.2670  183.6970 C.2   276  PHE276      0.2264
    102  O         16.4320   66.4000  183.3650 O.2   276  PHE276     -0.2867
    103  CB        16.4510   64.3620  186.1250 C.3   276  PHE276      0.0534
    104  CG        14.9820   64.5860  186.0760 C.ar  276  PHE276     -0.0203
    105  CD1       14.2290   64.0460  185.0990 C.ar  276  PHE276     -0.0042
    106  CD2       14.3740   65.3130  187.0440 C.ar  276  PHE276     -0.0042
    107  CE1       12.8840   64.2460  185.0690 C.ar  276  PHE276     -0.0003
    108  CE2       13.0360   65.5330  187.0150 C.ar  276  PHE276     -0.0003
    109  CZ        12.2900   64.9910  186.0230 C.ar  276  PHE276     -0.0000
    110  N          8.2290   54.5220  186.7100 N.3   337  TRP337     -0.1241
    111  CA         8.3180   55.9250  187.0940 C.3   337  TRP337      0.1605
    112  C          8.8830   56.7620  185.9500 C.2   337  TRP337      0.2264
    113  O         10.0800   56.7070  185.6680 O.2   337  TRP337     -0.2867
    114  CB         9.1860   56.1070  188.3400 C.3   337  TRP337      0.0550
    115  CG         9.1670   57.5190  188.8510 C.ar  337  TRP337      0.0003
    116  CD1        9.8840   58.5780  188.3710 C.ar  337  TRP337      0.0946
    117  CD2        8.3810   58.0270  189.9340 C.ar  337  TRP337      0.0152
    118  NE1        9.5930   59.7120  189.0900 N.ar  337  TRP337     -0.2442
    119  CE2        8.6740   59.3990  190.0560 C.ar  337  TRP337      0.0810
    120  CE3        7.4610   57.4540  190.8150 C.ar  337  TRP337      0.0012
    121  CZ2        8.0790   60.2060  191.0230 C.ar  337  TRP337      0.0191
    122  CZ3        6.8720   58.2550  191.7740 C.ar  337  TRP337      0.0001
    123  CH2        7.1830   59.6160  191.8700 C.ar  337  TRP337      0.0015
    124  N          6.0360   60.6460  181.9660 N.3   341  MET341     -0.1245
    125  CA         7.3250   61.0310  181.4040 C.3   341  MET341      0.1570
    126  C          7.7530   60.1140  180.2720 C.2   341  MET341      0.2261
    127  O          8.8020   60.3130  179.6570 O.2   341  MET341     -0.2867
    128  CB         8.3870   61.0520  182.4880 C.3   341  MET341      0.0387
    129  CG         8.2630   62.2540  183.3800 C.3   341  MET341      0.0595
    130  SD         9.5730   62.2850  184.5930 S.3   341  MET341     -0.1393
    131  CE         9.3890   60.6760  185.3550 C.3   341  MET341      0.0692
@<TRIPOS>BOND
     1   127   126    2
     2   126   125    1
     3   125   124    1
     4   125   128    1
     5    25    24    2
     6    24    23    1
     7    26    23    1
     8    26    27    1
     9    67    68    1
    10   128   129    1
    11    68    69    1
    12    68    71    1
    13    69    70    2
    14    28    27    1
    15    28    29    1
    16    82    81    2
    17    23    22    1
    18   102   101    2
    19   129   130    1
    20    79    80    1
    21    81    80    1
    22    31    30    1
    23   101   100    1
    24    29    30    2
    25    71    72    1
    26    30    32    1
    27    80    83    1
    28   130   131    1
    29   100    99    1
    30   100   103    1
    31    72    74   ar
    32    72    73   ar
    33   107   105   ar
    34   107   109   ar
    35   105   104   ar
    36    93    92    2
    37    83    84    1
    38    74    76   ar
    39    90    91    1
    40   113   112    2
    41    73    75   ar
    42   112   111    1
    43   109   108   ar
    44   104   103    1
    45   104   106   ar
    46    92    91    1
    47    84    85    1
    48   110   111    1
    49    91    94    1
    50    76    77   ar
    51    75    77   ar
    52   108   106   ar
    53   111   114    1
    54    11    10    2
    55    77    78    1
    56    85    86    1
    57    94    95    1
    58     6     5    1
    59    10     9    1
    60     4     3    2
    61   114   115    1
    62   116   115   ar
    63   116   118   ar
    64     1     2    1
    65    86    87    2
    66   115   117   ar
    67    88    87    1
    68    95    96    1
    69     5     7    1
    70     5     2    1
    71   118   119   ar
    72    87    89    1
    73    14    16   ar
    74    14    13   ar
    75     3     2    1
    76    16    17   ar
    77     9     8    1
    78     9    12    1
    79    97    96   ar
    80    96    98   ar
    81   117   119   ar
    82   117   120   ar
    83   119   121   ar
    84    13    12    1
    85    13    15   ar
    86    17    15   ar
    87    17    19   ar
    88   120   122   ar
    89    15    18   ar
    90   121   123   ar
    91    19    21   ar
    92   122   123   ar
    93    18    20   ar
    94    21    20   ar
    95    33    34    1
    96    42    43   ar
    97    42    40   ar
    98    43    41   ar
    99    40    38   ar
   100    41    39   ar
   101    34    35    1
   102    34    37    1
   103    38    39   ar
   104    38    37    1
   105    36    35    2
   106    58    60   ar
   107    58    55   ar
   108    52    53    1
   109    52    49    1
   110    60    61   ar
   111    55    53   ar
   112    55    57   ar
   113    53    54   ar
   114    61    59   ar
   115    57    59   ar
   116    57    56   ar
   117    54    56   ar
   118    48    49    1
   119    48    46   am
   120    49    50    1
   121    45    46    1
   122    45    44    1
   123    66    63    1
   124    62    50   am
   125    62    63    1
   126    46    47    2
   127    50    51    2
   128    63    64    1
   129    64    65    2
