@<TRIPOS>MOLECULE
tmp/5wvhA03.pdb
 150 149 0 0 0
SMALL
GASTEIGER

@<TRIPOS>ATOM
      1  N          3.2710   54.7640  188.2860 N.3     7  TYR7       -0.1241
      2  CA         3.1420   55.9860  189.0650 C.3     7  TYR7        0.1605
      3  C          2.7240   57.1610  188.1910 C.2     7  TYR7        0.2264
      4  O          3.3110   57.4070  187.1370 O.2     7  TYR7       -0.2867
      5  CB         4.4540   56.3190  189.7720 C.3     7  TYR7        0.0534
      6  CG         4.7000   55.5360  191.0390 C.ar    7  TYR7       -0.0201
      7  CD1        4.2030   55.9780  192.2580 C.ar    7  TYR7       -0.0009
      8  CD2        5.4420   54.3630  191.0210 C.ar    7  TYR7       -0.0009
      9  CE1        4.4310   55.2700  193.4210 C.ar    7  TYR7        0.0417
     10  CE2        5.6740   53.6480  192.1800 C.ar    7  TYR7        0.0417
     11  CZ         5.1660   54.1050  193.3760 C.ar    7  TYR7        0.1957
     12  OH         5.3950   53.3960  194.5320 O.3     7  TYR7       -0.2866
     13  N          2.1570   66.6840  189.8600 N.3    11  TRP11      -0.1241
     14  CA         2.7280   67.9610  189.4450 C.3    11  TRP11       0.1605
     15  C          3.0490   68.0120  187.9530 C.2    11  TRP11       0.2264
     16  O          3.4820   69.0450  187.4430 O.2    11  TRP11      -0.2867
     17  CB         3.9860   68.2750  190.2600 C.3    11  TRP11       0.0550
     18  CG         5.0800   67.2580  190.1400 C.ar   11  TRP11       0.0003
     19  CD1        6.0810   67.2360  189.2120 C.ar   11  TRP11       0.0946
     20  CD2        5.2970   66.1250  190.9900 C.ar   11  TRP11       0.0152
     21  NE1        6.9020   66.1560  189.4270 N.ar   11  TRP11      -0.2442
     22  CE2        6.4420   65.4580  190.5130 C.ar   11  TRP11       0.0810
     23  CE3        4.6290   65.6060  192.1030 C.ar   11  TRP11       0.0012
     24  CZ2        6.9360   64.3000  191.1110 C.ar   11  TRP11       0.0191
     25  CZ3        5.1220   64.4590  192.6980 C.ar   11  TRP11       0.0001
     26  CH2        6.2630   63.8180  192.2000 C.ar   11  TRP11       0.0015
     27  N          1.8460   62.7750  194.8900 N.3    38  PHE38      -0.1241
     28  CA         1.6480   62.0940  196.1680 C.3    38  PHE38       0.1605
     29  C          0.5520   62.7940  196.9570 C.2    38  PHE38       0.2264
     30  O          0.1880   63.9300  196.6540 O.2    38  PHE38      -0.2867
     31  CB         2.9270   62.0850  197.0150 C.3    38  PHE38       0.0534
     32  CG         4.0700   61.3300  196.4070 C.ar   38  PHE38      -0.0203
     33  CD1        4.1970   59.9630  196.5960 C.ar   38  PHE38      -0.0042
     34  CD2        5.0400   61.9940  195.6750 C.ar   38  PHE38      -0.0042
     35  CE1        5.2580   59.2690  196.0440 C.ar   38  PHE38      -0.0003
     36  CE2        6.1020   61.3070  195.1230 C.ar   38  PHE38      -0.0003
     37  CZ         6.2110   59.9430  195.3070 C.ar   38  PHE38      -0.0000
     38  N         10.3050   61.5130  197.7470 N.3    79  TRP79      -0.1241
     39  CA        11.6580   61.9120  198.0860 C.3    79  TRP79       0.1605
     40  C         11.7050   63.2500  198.8210 C.2    79  TRP79       0.2264
     41  O         12.6210   63.5030  199.6030 O.2    79  TRP79      -0.2867
     42  CB        12.5150   61.9800  196.8250 C.3    79  TRP79       0.0550
     43  CG        13.9590   62.0360  197.1420 C.ar   79  TRP79       0.0003
     44  CD1       14.7480   60.9990  197.5450 C.ar   79  TRP79       0.0946
     45  CD2       14.7970   63.1920  197.1100 C.ar   79  TRP79       0.0152
     46  NE1       16.0310   61.4370  197.7580 N.ar   79  TRP79      -0.2442
     47  CE2       16.0880   62.7810  197.4970 C.ar   79  TRP79       0.0810
     48  CE3       14.5850   64.5360  196.7870 C.ar   79  TRP79       0.0012
     49  CZ2       17.1610   63.6650  197.5700 C.ar   79  TRP79       0.0191
     50  CZ3       15.6510   65.4110  196.8590 C.ar   79  TRP79       0.0001
     51  CH2       16.9230   64.9730  197.2480 C.ar   79  TRP79       0.0015
     52  N          5.4780   55.4210  200.5380 N.3   118  ASP118     -0.1239
     53  CA         6.7960   55.7130  199.9860 C.3   118  ASP118      0.1674
     54  C          7.6440   56.5330  200.9570 C.2   118  ASP118      0.2266
     55  O          8.0410   57.6600  200.6640 O.2   118  ASP118     -0.2867
     56  CB         6.6600   56.4430  198.6480 C.3   118  ASP118      0.1410
     57  CG         7.9780   56.5490  197.9090 C.2   118  ASP118      0.3668
     58  OD1        8.9310   55.8410  198.2970 O.co2 118  ASP118     -0.2456
     59  OD2        8.0590   57.3320  196.9380 O.co2 118  ASP118     -0.2456
     60  N         10.8300   57.6300  202.4500 N.3   120  GLU120     -0.1231
     61  CA        12.2110   57.6720  201.9800 C.3   120  GLU120      0.1699
     62  C         13.1180   58.5130  202.8730 C.2   120  GLU120      0.2592
     63  O         13.1410   59.7380  202.7520 O.2   120  GLU120     -0.2718
     64  CB        12.2680   58.2120  200.5510 C.3   120  GLU120      0.0402
     65  CG        11.4220   57.4350  199.5680 C.3   120  GLU120      0.1161
     66  CD        11.6990   57.8140  198.1300 C.2   120  GLU120      0.3649
     67  OE1       12.6020   58.6440  197.8870 O.co2 120  GLU120     -0.2457
     68  OE2       11.0120   57.2730  197.2430 O.co2 120  GLU120     -0.2457
     69  N         13.8760   57.8680  203.7590 N.am  121  TYR121     -0.1976
     70  CA        13.8500   56.4190  203.9530 C.3   121  TYR121      0.1639
     71  C         13.9270   56.1030  205.4400 C.2   121  TYR121      0.2290
     72  O         14.4280   56.9120  206.2190 O.2   121  TYR121     -0.2864
     73  CB        15.0190   55.7360  203.2340 C.3   121  TYR121      0.0560
     74  CG        15.0790   55.9500  201.7420 C.ar  121  TYR121     -0.0198
     75  CD1       14.3920   55.1140  200.8730 C.ar  121  TYR121     -0.0009
     76  CD2       15.8370   56.9790  201.1990 C.ar  121  TYR121     -0.0009
     77  CE1       14.4500   55.3030  199.5080 C.ar  121  TYR121      0.0417
     78  CE2       15.9010   57.1750  199.8330 C.ar  121  TYR121      0.0417
     79  CZ        15.2060   56.3340  198.9920 C.ar  121  TYR121      0.1957
     80  OH        15.2650   56.5220  197.6310 O.3   121  TYR121     -0.2866
     81  N          6.9810   51.6310  198.0320 N.3   159  ALA159     -0.1245
     82  CA         8.1810   51.8700  197.2480 C.3   159  ALA159      0.1562
     83  C          9.3980   51.6970  198.1450 C.2   159  ALA159      0.2260
     84  O          9.4590   52.2540  199.2410 O.2   159  ALA159     -0.2867
     85  CB         8.1570   53.2520  196.6270 C.3   159  ALA159      0.0290
     86  N         12.5800   50.5730  193.7350 N.3   186  MET186     -0.1245
     87  CA        13.0020   51.7270  192.9500 C.3   186  MET186      0.1570
     88  C         14.3980   51.5200  192.3690 C.2   186  MET186      0.2261
     89  O         15.3770   52.0910  192.8530 O.2   186  MET186     -0.2867
     90  CB        12.9620   52.9900  193.8090 C.3   186  MET186      0.0387
     91  CG        11.5890   53.2760  194.3930 C.3   186  MET186      0.0595
     92  SD        11.5750   54.7050  195.4870 S.3   186  MET186     -0.1393
     93  CE        12.5610   54.1090  196.8520 C.3   186  MET186      0.0692
     94  N         16.3220   52.6730  190.1860 N.3   188  TYR188     -0.1227
     95  CA        16.8770   53.7690  189.4050 C.3   188  TYR188      0.1736
     96  C         17.5990   54.7360  190.3350 C.2   188  TYR188      0.2595
     97  O         17.7520   54.4540  191.5240 O.2   188  TYR188     -0.2718
     98  CB        15.7860   54.4870  188.6080 C.3   188  TYR188      0.0548
     99  CG        14.4250   54.4770  189.2650 C.ar  188  TYR188     -0.0200
    100  CD1       14.1410   55.3190  190.3330 C.ar  188  TYR188     -0.0009
    101  CD2       13.4210   53.6330  188.8100 C.ar  188  TYR188     -0.0009
    102  CE1       12.8950   55.3150  190.9340 C.ar  188  TYR188      0.0417
    103  CE2       12.1730   53.6220  189.4030 C.ar  188  TYR188      0.0417
    104  CZ        11.9150   54.4640  190.4640 C.ar  188  TYR188      0.1957
    105  OH        10.6730   54.4560  191.0570 O.3   188  TYR188     -0.2866
    106  N         18.0420   55.8650  189.7890 N.am  189  ASP189     -0.1974
    107  CA        18.8380   56.8430  190.5330 C.3   189  ASP189      0.1709
    108  C         20.0920   56.2320  191.1430 C.2   189  ASP189      0.2293
    109  O         20.4810   56.5910  192.2530 O.2   189  ASP189     -0.2864
    110  CB        18.0160   57.4930  191.6450 C.3   189  ASP189      0.1436
    111  CG        16.8760   58.3240  191.1190 C.2   189  ASP189      0.3671
    112  OD1       16.8720   58.6600  189.9160 O.co2 189  ASP189     -0.2456
    113  OD2       15.9870   58.6480  191.9260 O.co2 189  ASP189     -0.2456
    114  N         12.7360   58.0520  182.4820 N.3   243  TYR243     -0.1241
    115  CA        13.5170   59.2730  182.5060 C.3   243  TYR243      0.1605
    116  C         15.0010   58.9530  182.5130 C.2   243  TYR243      0.2264
    117  O         15.4030   57.8480  182.8700 O.2   243  TYR243     -0.2867
    118  CB        13.1630   60.1110  183.7280 C.3   243  TYR243      0.0534
    119  CG        13.6150   59.5080  185.0420 C.ar  243  TYR243     -0.0201
    120  CD1       12.8020   58.6230  185.7360 C.ar  243  TYR243     -0.0009
    121  CD2       14.8550   59.8260  185.5880 C.ar  243  TYR243     -0.0009
    122  CE1       13.2090   58.0700  186.9350 C.ar  243  TYR243      0.0417
    123  CE2       15.2710   59.2760  186.7850 C.ar  243  TYR243      0.0417
    124  CZ        14.4440   58.3980  187.4550 C.ar  243  TYR243      0.1957
    125  OH        14.8510   57.8480  188.6480 O.3   243  TYR243     -0.2866
    126  N         19.1320   60.4390  183.5480 N.3   245  ARG245     -0.1245
    127  CA        19.8940   61.3260  184.4200 C.3   245  ARG245      0.1563
    128  C         20.9750   62.0400  183.6200 C.2   245  ARG245      0.2260
    129  O         21.8450   61.4020  183.0270 O.2   245  ARG245     -0.2867
    130  CB        20.5140   60.5490  185.5830 C.3   245  ARG245      0.0307
    131  CG        19.5280   60.1770  186.6750 C.3   245  ARG245      0.0489
    132  CD        19.2890   61.3390  187.6220 C.3   245  ARG245      0.2205
    133  NE        18.2040   61.0680  188.5600 N.pl3 245  ARG245     -0.0865
    134  CZ        17.4550   62.0080  189.1280 C.cat 245  ARG245      0.5346
    135  NH1       17.6740   63.2880  188.8550 N.pl3 245  ARG245      0.1354
    136  NH2       16.4870   61.6690  189.9680 N.pl3 245  ARG245      0.1354
    137  N          8.2290   54.5220  186.7100 N.3   337  TRP337     -0.1241
    138  CA         8.3180   55.9250  187.0940 C.3   337  TRP337      0.1605
    139  C          8.8830   56.7620  185.9500 C.2   337  TRP337      0.2264
    140  O         10.0800   56.7070  185.6680 O.2   337  TRP337     -0.2867
    141  CB         9.1860   56.1070  188.3400 C.3   337  TRP337      0.0550
    142  CG         9.1670   57.5190  188.8510 C.ar  337  TRP337      0.0003
    143  CD1        9.8840   58.5780  188.3710 C.ar  337  TRP337      0.0946
    144  CD2        8.3810   58.0270  189.9340 C.ar  337  TRP337      0.0152
    145  NE1        9.5930   59.7120  189.0900 N.ar  337  TRP337     -0.2442
    146  CE2        8.6740   59.3990  190.0560 C.ar  337  TRP337      0.0810
    147  CE3        7.4610   57.4540  190.8150 C.ar  337  TRP337      0.0012
    148  CZ2        8.0790   60.2060  191.0230 C.ar  337  TRP337      0.0191
    149  CZ3        6.8720   58.2550  191.7740 C.ar  337  TRP337      0.0001
    150  CH2        7.1830   59.6160  191.8700 C.ar  337  TRP337      0.0015
@<TRIPOS>BOND
     1   114   115    1
     2   115   116    1
     3   115   118    1
     4   116   117    2
     5   129   128    2
     6   126   127    1
     7   128   127    1
     8   118   119    1
     9   127   130    1
    10   119   121   ar
    11   119   120   ar
    12   130   131    1
    13   121   123   ar
    14   140   139    2
    15   120   122   ar
    16   139   138    1
    17   131   132    1
    18   137   138    1
    19   123   124   ar
    20   122   124   ar
    21   138   141    1
    22     4     3    2
    23    16    15    2
    24   124   125    1
    25   132   133    1
    26    15    14    1
    27     3     2    1
    28     1     2    1
    29   141   142    1
    30   143   142   ar
    31   143   145   ar
    32   133   134    2
    33    98    99    1
    34    98    95    1
    35   101    99   ar
    36   101   103   ar
    37   142   144   ar
    38   135   134    1
    39     2     5    1
    40   145   146   ar
    41   134   136    1
    42    19    21   ar
    43    19    18   ar
    44    99   100   ar
    45   103   104   ar
    46    95    94    1
    47    95    96    1
    48    21    22   ar
    49    14    13    1
    50    14    17    1
    51     5     6    1
    52   106    96   am
    53   106   107    1
    54   112   111   ar
    55   144   146   ar
    56   144   147   ar
    57   146   148   ar
    58    18    17    1
    59    18    20   ar
    60   100   102   ar
    61    96    97    2
    62   104   102   ar
    63   104   105    1
    64    22    20   ar
    65    22    24   ar
    66   107   108    1
    67   107   110    1
    68   147   149   ar
    69    20    23   ar
    70     8     6   ar
    71     8    10   ar
    72   148   150   ar
    73     6     7   ar
    74    24    26   ar
    75   111   110    1
    76   111   113   ar
    77   108   109    2
    78   149   150   ar
    79    23    25   ar
    80    10    11   ar
    81    26    25   ar
    82     7     9   ar
    83    88    89    2
    84    88    87    1
    85    87    86    1
    86    87    90    1
    87    11     9   ar
    88    11    12    1
    89    90    91    1
    90    91    92    1
    91    27    28    1
    92    36    37   ar
    93    36    34   ar
    94    37    35   ar
    95    92    93    1
    96    34    32   ar
    97    35    33   ar
    98    28    29    1
    99    28    31    1
   100    32    33   ar
   101    32    31    1
   102    85    82    1
   103    30    29    2
   104    48    50   ar
   105    48    45   ar
   106    42    43    1
   107    42    39    1
   108    50    51   ar
   109    59    57   ar
   110    45    43   ar
   111    45    47   ar
   112    43    44   ar
   113    68    66   ar
   114    51    49   ar
   115    82    81    1
   116    82    83    1
   117    47    49   ar
   118    47    46   ar
   119    44    46   ar
   120    80    79    1
   121    38    39    1
   122    67    66   ar
   123    57    58   ar
   124    57    56    1
   125    39    40    1
   126    66    65    1
   127    83    84    2
   128    56    53    1
   129    40    41    2
   130    79    77   ar
   131    79    78   ar
   132    77    75   ar
   133    65    64    1
   134    78    76   ar
   135    53    52    1
   136    53    54    1
   137    64    61    1
   138    55    54    2
   139    75    74   ar
   140    76    74   ar
   141    74    73    1
   142    61    60    1
   143    61    62    1
   144    63    62    2
   145    62    69   am
   146    73    70    1
   147    69    70    1
   148    70    71    1
   149    71    72    2
