@<TRIPOS>MOLECULE
tmp/5wvxA00.pdb
 75 71 0 0 0
SMALL
GASTEIGER

@<TRIPOS>ATOM
      1  N        192.7320   40.8790   -1.1550 N.3    58  GLU58      -0.1231
      2  CA       193.1670   41.2380    0.1910 C.3    58  GLU58       0.1699
      3  C        194.4640   42.0380    0.1860 C.2    58  GLU58       0.2592
      4  O        194.6570   42.9040    1.0480 O.2    58  GLU58      -0.2718
      5  CB       193.3300   39.9800    1.0380 C.3    58  GLU58       0.0402
      6  CG       192.0210   39.2730    1.3210 C.3    58  GLU58       0.1161
      7  CD       192.1260   38.2800    2.4560 C.2    58  GLU58       0.3649
      8  OE1      192.4100   38.6990    3.5980 O.co2  58  GLU58      -0.2457
      9  OE2      191.9540   37.0730    2.1920 O.co2  58  GLU58      -0.2457
     10  N        195.3540   41.7670   -0.7640 N.am   59  ASN59      -0.1974
     11  CA       196.5920   42.5180   -0.9110 C.3    59  ASN59       0.1688
     12  C        196.4860   43.5110   -2.0620 C.2    59  ASN59       0.2292
     13  O        195.9290   43.2020   -3.1190 O.2    59  ASN59      -0.2864
     14  CB       197.7890   41.5780   -1.1240 C.3    59  ASN59       0.1181
     15  CG       197.6710   40.7280   -2.3830 C.2    59  ASN59       0.2629
     16  OD1      196.5990   40.6080   -2.9740 O.2    59  ASN59      -0.2716
     17  ND2      198.7900   40.1410   -2.8020 N.am   59  ASN59      -0.0877
     18  N        191.3620   31.6000   -7.3370 N.3    68  GLY68      -0.1210
     19  CA       191.8570   30.9610   -6.1400 C.3    68  GLY68       0.1956
     20  C        192.3910   31.8970   -5.0740 C.2    68  GLY68       0.2613
     21  O        192.5240   31.4790   -3.9190 O.2    68  GLY68      -0.2717
     22  N        192.7050   33.1430   -5.4210 N.am   69  SER69      -0.1938
     23  CA       193.2120   34.0950   -4.4420 C.3    69  SER69       0.2055
     24  C        192.0610   34.7190   -3.6640 C.2    69  SER69       0.2643
     25  O        191.0470   35.1170   -4.2420 O.2    69  SER69      -0.2714
     26  CB       194.0390   35.1800   -5.1320 C.3    69  SER69       0.2130
     27  OG       195.1140   34.6110   -5.8630 O.3    69  SER69      -0.2179
     28  N        192.2220   34.7990   -2.3450 N.am   70  THR70      -0.1950
     29  CA       191.1430   35.2520   -1.4770 C.3    70  THR70       0.1897
     30  C        190.8900   36.7480   -1.6550 C.2    70  THR70       0.2313
     31  O        191.7820   37.5100   -2.0400 O.2    70  THR70      -0.2863
     32  CB       191.4660   34.9510   -0.0140 C.3    70  THR70       0.1794
     33  OG1      192.8080   35.3540    0.2700 O.3    70  THR70      -0.2208
     34  CG2      191.3260   33.4600    0.2760 C.3    70  THR70       0.0378
     35  N        194.7280   39.0140    9.5110 N.3   103  HIS103     -0.1226
     36  CA       195.4970   38.1630   10.4020 C.3   103  HIS103      0.1752
     37  C        195.4800   36.7400    9.8350 C.2   103  HIS103      0.2596
     38  O        195.4680   36.5660    8.6040 O.2   103  HIS103     -0.2718
     39  CB       194.9400   38.2850   11.8190 C.3   103  HIS103      0.0759
     40  CG       195.9260   37.9120   12.8820 C.ar  103  HIS103      0.0818
     41  ND1      197.2760   38.1590   12.7550 N.ar  103  HIS103     -0.2268
     42  CD2      195.7630   37.3170   14.0880 C.ar  103  HIS103      0.1154
     43  CE1      197.9030   37.7290   13.8350 C.ar  103  HIS103      0.1986
     44  NE2      197.0080   37.2150   14.6600 N.ar  103  HIS103     -0.2212
     45  N        195.4770   35.7330   10.7080 N.am  104  ASN104     -0.1960
     46  CA       195.4800   34.3560   10.2280 C.3   104  ASN104      0.1819
     47  C        194.0550   33.8900    9.9330 C.2   104  ASN104      0.2622
     48  O        193.1450   34.7170    9.8030 O.2   104  ASN104     -0.2715
     49  CB       196.1780   33.4320   11.2310 C.3   104  ASN104      0.1195
     50  CG       197.6890   33.6710   11.2980 C.2   104  ASN104      0.2630
     51  OD1      198.1820   34.7350   10.9190 O.2   104  ASN104     -0.2716
     52  ND2      198.4280   32.6710   11.7760 N.am  104  ASN104     -0.0877
     53  N        193.8510   32.5800    9.8290 N.am  105  SER105     -0.1950
     54  CA       192.6090   32.0210    9.3020 C.3   105  SER105      0.1924
     55  C        191.4450   32.2560   10.2710 C.2   105  SER105      0.2314
     56  O        191.5200   33.0600   11.2050 O.2   105  SER105     -0.2863
     57  CB       192.7970   30.5390    8.9920 C.3   105  SER105      0.2116
     58  OG       193.4800   30.3620    7.7600 O.3   105  SER105     -0.2180
     59  N        186.1080   36.0350    3.8460 N.3   110  ARG110     -0.1245
     60  CA       186.9740   35.9080    2.6840 C.3   110  ARG110      0.1563
     61  C        186.3970   34.8920    1.7060 C.2   110  ARG110      0.2260
     62  O        186.0970   33.7560    2.0850 O.2   110  ARG110     -0.2867
     63  CB       188.3790   35.4800    3.1070 C.3   110  ARG110      0.0307
     64  CG       188.9850   36.2990    4.2310 C.3   110  ARG110      0.0489
     65  CD       190.4130   35.8600    4.4780 C.3   110  ARG110      0.2205
     66  NE       191.0460   36.5350    5.6060 N.pl3 110  ARG110     -0.0865
     67  CZ       191.3430   35.9420    6.7560 C.cat 110  ARG110      0.5346
     68  NH1      191.0580   34.6610    6.9320 N.pl3 110  ARG110      0.1354
     69  NH2      191.9240   36.6330    7.7290 N.pl3 110  ARG110      0.1354
     70  N        189.8130   29.6420    2.7000 N.3   125  SER125     -0.1217
     71  CA       191.1890   30.0420    2.9460 C.3   125  SER125      0.1889
     72  C        192.0100   28.7690    2.8150 C.2   125  SER125      0.2288
     73  O        192.9270   28.6810    1.9920 O.2   125  SER125     -0.2866
     74  CB       191.3510   30.6860    4.3240 C.3   125  SER125      0.2089
     75  OG       192.4230   31.6130    4.3310 O.3   125  SER125     -0.2183
@<TRIPOS>BOND
     1    18    19    1
     2    19    20    1
     3    27    26    1
     4    22    20   am
     5    22    23    1
     6    26    23    1
     7    20    21    2
     8    23    24    1
     9    25    24    2
    10    24    28   am
    11    13    12    2
    12    16    15    2
    13    17    15   am
    14    15    14    1
    15    28    29    1
    16    12    11    1
    17    31    30    2
    18    30    29    1
    19    29    32    1
    20     1     2    1
    21    14    11    1
    22    11    10    1
    23    10     3   am
    24    32    33    1
    25    32    34    1
    26     3     2    1
    27     3     4    2
    28     2     5    1
    29     5     6    1
    30     6     7    1
    31    61    62    2
    32    61    60    1
    33    73    72    2
    34     9     7   ar
    35     7     8   ar
    36    60    63    1
    37    60    59    1
    38    70    71    1
    39    72    71    1
    40    71    74    1
    41    63    64    1
    42    64    65    1
    43    74    75    1
    44    65    66    1
    45    66    67    2
    46    67    68    1
    47    67    69    1
    48    58    57    1
    49    38    37    2
    50    57    54    1
    51    54    53    1
    52    54    55    1
    53    35    36    1
    54    48    47    2
    55    53    47   am
    56    37    36    1
    57    37    45   am
    58    47    46    1
    59    46    45    1
    60    46    49    1
    61    55    56    2
    62    36    39    1
    63    51    50    2
    64    49    50    1
    65    50    52   am
    66    39    40    1
    67    41    40   ar
    68    41    43   ar
    69    40    42   ar
    70    43    44   ar
    71    42    44   ar
