@<TRIPOS>MOLECULE
tmp/5wwrA00.pdb
 162 155 0 0 0
SMALL
GASTEIGER

@<TRIPOS>ATOM
      1  N         58.8140   -4.5900   37.6140 N.3   218  GLN218     -0.1245
      2  CA        58.9650   -3.1520   37.4650 C.3   218  GLN218      0.1566
      3  C         59.5480   -2.5390   38.7290 C.2   218  GLN218      0.2260
      4  O         59.0750   -2.8150   39.8310 O.2   218  GLN218     -0.2867
      5  CB        57.6110   -2.5200   37.1330 C.3   218  GLN218      0.0367
      6  CG        57.6630   -1.0540   36.7490 C.3   218  GLN218      0.0905
      7  CD        56.3090   -0.5290   36.3130 C.2   218  GLN218      0.2608
      8  OE1       55.3500   -1.2890   36.1900 O.2   218  GLN218     -0.2717
      9  NE2       56.2240    0.7730   36.0780 N.am  218  GLN218     -0.0878
     10  N         52.3530    9.0700   26.4720 N.3   239  ASP239     -0.1225
     11  CA        53.7560    9.0440   26.8650 C.3   239  ASP239      0.1805
     12  C         54.6450    8.9530   25.6230 C.2   239  ASP239      0.2598
     13  O         54.6240    7.9610   24.8970 O.2   239  ASP239     -0.2718
     14  CB        54.0440    7.8940   27.8430 C.3   239  ASP239      0.1424
     15  CG        53.6230    6.5410   27.3100 C.2   239  ASP239      0.3668
     16  OD1       52.7570    6.4920   26.4110 O.co2 239  ASP239     -0.2456
     17  OD2       54.1540    5.5230   27.8060 O.co2 239  ASP239     -0.2456
     18  N         55.4100   10.0150   25.3840 N.am  240  LEU240     -0.1966
     19  CA        56.2320   10.1540   24.1840 C.3   240  LEU240      0.1728
     20  C         57.2330    9.0170   24.0240 C.2   240  LEU240      0.2616
     21  O         57.3850    8.4630   22.9380 O.2   240  LEU240     -0.2715
     22  CB        56.9720   11.4910   24.2110 C.3   240  LEU240      0.0311
     23  CG        56.1300   12.7570   24.0620 C.3   240  LEU240      0.0022
     24  CD1       56.9560   13.9920   24.3810 C.3   240  LEU240      0.0001
     25  CD2       55.5720   12.8420   22.6540 C.3   240  LEU240      0.0001
     26  N         57.9200    8.6820   25.1100 N.am  241  CYS241     -0.1954
     27  CA        58.8760    7.5820   25.1120 C.3   241  CYS241      0.1843
     28  C         58.3350    6.4480   25.9710 C.2   241  CYS241      0.2625
     29  O         58.3770    6.5230   27.1990 O.2   241  CYS241     -0.2714
     30  CB        60.2300    8.0560   25.6320 C.3   241  CYS241      0.0997
     31  SG        60.7140    9.6690   24.9930 S.3   241  CYS241     -0.0797
     32  N         57.8400    5.3940   25.3280 N.am  242  ALA242     -0.1963
     33  CA        56.9920    4.4200   26.0120 C.3   242  ALA242      0.1728
     34  C         57.5630    3.0090   26.1290 C.2   242  ALA242      0.2616
     35  O         57.4020    2.3610   27.1610 O.2   242  ALA242     -0.2715
     36  CB        55.6510    4.3570   25.3160 C.3   242  ALA242      0.0334
     37  N         58.2040    2.5290   25.0700 N.am  243  ALA243     -0.1964
     38  CA        58.6610    1.1410   24.9970 C.3   243  ALA243      0.1713
     39  C         59.5830    0.7370   26.1450 C.2   243  ALA243      0.2458
     40  O         60.4190    1.5280   26.5770 O.2   243  ALA243     -0.2730
     41  CB        59.3500    0.9050   23.6790 C.3   243  ALA243      0.0333
     42  N         59.4510   -0.5100   26.6280 N.am  244  PRO244     -0.2727
     43  CA        58.5360   -1.5500   26.1390 C.3   244  PRO244      0.1402
     44  C         57.1060   -1.4270   26.6630 C.2   244  PRO244      0.2269
     45  O         56.3120   -2.3470   26.4680 O.2   244  PRO244     -0.2865
     46  CB        59.1800   -2.8380   26.6490 C.3   244  PRO244      0.0296
     47  CG        59.8590   -2.4300   27.8980 C.3   244  PRO244      0.0237
     48  CD        60.3480   -1.0230   27.6780 C.3   244  PRO244      0.0939
     49  N         55.9400   -0.3580   30.0670 N.3   246  GLY246     -0.1210
     50  CA        55.6300   -0.6900   31.4440 C.3   246  GLY246      0.1956
     51  C         54.6780    0.3310   32.0310 C.2   246  GLY246      0.2611
     52  O         53.5650    0.0020   32.4580 O.2   246  GLY246     -0.2717
     53  N         55.1220    1.5830   32.0400 N.am  247  LYS247     -0.1979
     54  CA        54.3170    2.6860   32.5410 C.3   247  LYS247      0.1596
     55  C         53.0810    2.9060   31.6730 C.2   247  LYS247      0.2287
     56  O         52.0650    3.3980   32.1530 O.2   247  LYS247     -0.2864
     57  CB        55.1550    3.9640   32.6120 C.3   247  LYS247      0.0298
     58  CG        56.3770    3.8430   33.5130 C.3   247  LYS247      0.0038
     59  CD        57.2070    5.1170   33.5080 C.3   247  LYS247      0.0206
     60  CE        58.5140    4.9170   34.2530 C.3   247  LYS247      0.1093
     61  NZ        59.3400    3.8590   33.6210 N.3   247  LYS247     -0.1314
     62  N         57.1240    5.6690   20.0790 N.3   265  ASP265     -0.1225
     63  CA        58.5290    5.2810   20.2220 C.3   265  ASP265      0.1805
     64  C         59.2690    5.4030   18.8940 C.2   265  ASP265      0.2598
     65  O         58.6590    5.3460   17.8300 O.2   265  ASP265     -0.2718
     66  CB        58.6530    3.8550   20.7670 C.3   265  ASP265      0.1424
     67  CG        59.9860    3.6070   21.4490 C.2   265  ASP265      0.3668
     68  OD1       60.1110    3.9370   22.6450 O.co2 265  ASP265     -0.2456
     69  OD2       60.9120    3.0840   20.7970 O.co2 265  ASP265     -0.2456
     70  N         60.5860    5.5650   18.9640 N.am  266  LYS266     -0.1966
     71  CA        61.3930    5.8170   17.7760 C.3   266  LYS266      0.1728
     72  C         61.7590    4.5280   17.0440 C.2   266  LYS266      0.2616
     73  O         61.7870    4.4900   15.8130 O.2   266  LYS266     -0.2715
     74  CB        62.6620    6.5820   18.1550 C.3   266  LYS266      0.0311
     75  CG        63.1060    7.6110   17.1290 C.3   266  LYS266      0.0038
     76  CD        64.3910    8.3060   17.5650 C.3   266  LYS266      0.0206
     77  CE        64.7640    9.4270   16.6060 C.3   266  LYS266      0.1093
     78  NZ        66.0730   10.0530   16.9440 N.3   266  LYS266     -0.1314
     79  N         62.0380    3.4750   17.8060 N.am  267  ILE267     -0.1977
     80  CA        62.4410    2.1940   17.2330 C.3   267  ILE267      0.1596
     81  C         61.2400    1.2670   17.0370 C.2   267  ILE267      0.2287
     82  O         60.4090    1.1140   17.9310 O.2   267  ILE267     -0.2864
     83  CB        63.4950    1.4960   18.1190 C.3   267  ILE267      0.0276
     84  CG1       64.6580    2.4490   18.4110 C.3   267  ILE267      0.0022
     85  CG2       63.9970    0.2230   17.4560 C.3   267  ILE267      0.0022
     86  CD1       65.7500    1.8460   19.2660 C.3   267  ILE267      0.0001
     87  N         60.6870   -2.0340   19.2660 N.3   270  LYS270     -0.1245
     88  CA        60.2750   -1.5840   20.5870 C.3   270  LYS270      0.1561
     89  C         58.7690   -1.3130   20.6490 C.2   270  LYS270      0.2260
     90  O         58.0940   -1.7070   21.6070 O.2   270  LYS270     -0.2867
     91  CB        61.0640   -0.3320   20.9740 C.3   270  LYS270      0.0271
     92  CG        62.5020   -0.5980   21.4080 C.3   270  LYS270      0.0035
     93  CD        63.2190    0.6990   21.7660 C.3   270  LYS270      0.0206
     94  CE        64.5190    0.4370   22.5140 C.3   270  LYS270      0.1093
     95  NZ        64.2850   -0.2530   23.8130 N.3   270  LYS270     -0.1314
     96  N         57.2710    6.5520   15.9720 N.3   291  PHE291     -0.1227
     97  CA        57.3000    7.9660   15.6160 C.3   291  PHE291      0.1736
     98  C         58.2940    8.7620   16.4600 C.2   291  PHE291      0.2595
     99  O         58.5060    8.4590   17.6330 O.2   291  PHE291     -0.2718
    100  CB        55.8980    8.5590   15.7660 C.3   291  PHE291      0.0547
    101  CG        55.7070    9.8600   15.0500 C.ar  291  PHE291     -0.0202
    102  CD1       55.3850    9.8800   13.7050 C.ar  291  PHE291     -0.0042
    103  CD2       55.8330   11.0610   15.7210 C.ar  291  PHE291     -0.0042
    104  CE1       55.2030   11.0760   13.0410 C.ar  291  PHE291     -0.0003
    105  CE2       55.6520   12.2580   15.0620 C.ar  291  PHE291     -0.0003
    106  CZ        55.3360   12.2660   13.7210 C.ar  291  PHE291     -0.0000
    107  N         58.8980    9.7820   15.8570 N.am  292  ASP292     -0.1960
    108  CA        59.8190   10.6660   16.5640 C.3   292  ASP292      0.1840
    109  C         59.0400   11.6390   17.4450 C.2   292  ASP292      0.2622
    110  O         58.2730   12.4630   16.9450 O.2   292  ASP292     -0.2715
    111  CB        60.6960   11.4310   15.5680 C.3   292  ASP292      0.1450
    112  CG        61.8820   12.1220   16.2260 C.2   292  ASP292      0.3671
    113  OD1       61.7620   12.5820   17.3800 O.co2 292  ASP292     -0.2456
    114  OD2       62.9450   12.2100   15.5770 O.co2 292  ASP292     -0.2456
    115  N         59.2450   11.5460   18.7550 N.am  293  GLY293     -0.1954
    116  CA        58.5390   12.3930   19.6980 C.3   293  GLY293      0.1869
    117  C         58.8270   13.8720   19.5290 C.2   293  GLY293      0.2309
    118  O         57.9760   14.7110   19.8210 O.2   293  GLY293     -0.2863
    119  N         53.0870   11.9340   29.7570 N.3   316  LEU316     -0.1245
    120  CA        54.1890   11.3570   30.5170 C.3   316  LEU316      0.1561
    121  C         55.4860   11.3490   29.7150 C.2   316  LEU316      0.2260
    122  O         55.6560   10.5460   28.8020 O.2   316  LEU316     -0.2867
    123  CB        53.8470    9.9300   30.9580 C.3   316  LEU316      0.0270
    124  CG        54.9910    9.1170   31.5710 C.3   316  LEU316      0.0019
    125  CD1       55.4940    9.7930   32.8250 C.3   316  LEU316      0.0001
    126  CD2       54.5590    7.6930   31.8680 C.3   316  LEU316      0.0001
    127  N         58.7360   10.0920   30.0250 N.3   318  ASP318     -0.1225
    128  CA        59.7420    9.2220   30.6150 C.3   318  ASP318      0.1805
    129  C         60.9630    9.2680   29.7070 C.2   318  ASP318      0.2598
    130  O         61.3330    8.2690   29.0930 O.2   318  ASP318     -0.2718
    131  CB        59.2150    7.7930   30.7680 C.3   318  ASP318      0.1424
    132  CG        59.9040    7.0240   31.8840 C.2   318  ASP318      0.3668
    133  OD1       60.2950    7.6440   32.8950 O.co2 318  ASP318     -0.2456
    134  OD2       60.0480    5.7920   31.7540 O.co2 318  ASP318     -0.2456
    135  N         61.5650   10.4530   29.6250 N.am  319  ALA319     -0.1966
    136  CA        62.6580   10.7540   28.7020 C.3   319  ALA319      0.1713
    137  C         63.8140    9.7610   28.7650 C.2   319  ALA319      0.2458
    138  O         64.1190    9.2280   29.8310 O.2   319  ALA319     -0.2730
    139  CB        63.1770   12.1570   28.9750 C.3   319  ALA319      0.0333
    140  N         64.4660    9.5170   27.6140 N.am  320  PRO320     -0.2727
    141  CA        65.6910    8.7130   27.5910 C.3   320  PRO320      0.1402
    142  C         66.7840    9.3910   28.4070 C.2   320  PRO320      0.2269
    143  O         66.8630   10.6190   28.4020 O.2   320  PRO320     -0.2865
    144  CB        66.0540    8.6600   26.1020 C.3   320  PRO320      0.0296
    145  CG        65.3820    9.8530   25.5050 C.3   320  PRO320      0.0237
    146  CD        64.1020    9.9970   26.2700 C.3   320  PRO320      0.0939
    147  N         68.0820   16.4400   23.7670 N.3   345  LEU345     -0.1245
    148  CA        66.9760   15.5880   23.3390 C.3   345  LEU345      0.1561
    149  C         65.8170   15.6540   24.3270 C.2   345  LEU345      0.2260
    150  O         64.6550   15.7780   23.9290 O.2   345  LEU345     -0.2867
    151  CB        67.4420   14.1400   23.1730 C.3   345  LEU345      0.0270
    152  CG        66.3680   13.1230   22.7800 C.3   345  LEU345      0.0019
    153  CD1       65.6940   13.5280   21.4830 C.3   345  LEU345      0.0001
    154  CD2       66.9610   11.7270   22.6600 C.3   345  LEU345      0.0001
    155  N         62.0180   16.9350   23.4500 N.3   349  LEU349     -0.1245
    156  CA        60.8640   16.1210   23.8120 C.3   349  LEU349      0.1561
    157  C         59.9660   16.8550   24.8050 C.2   349  LEU349      0.2260
    158  O         58.7390   16.7480   24.7420 O.2   349  LEU349     -0.2867
    159  CB        61.3170   14.7810   24.3980 C.3   349  LEU349      0.0270
    160  CG        61.9880   13.7930   23.4420 C.3   349  LEU349      0.0019
    161  CD1       62.6280   12.6480   24.2070 C.3   349  LEU349      0.0001
    162  CD2       60.9750   13.2610   22.4470 C.3   349  LEU349      0.0001
@<TRIPOS>BOND
     1   104   102   ar
     2   104   106   ar
     3   102   101   ar
     4   106   105   ar
     5   101   103   ar
     6   101   100    1
     7   105   103   ar
     8   111   112    1
     9   111   108    1
    10   114   112   ar
    11    97   100    1
    12    97    96    1
    13    97    98    1
    14    73    72    2
    15   107    98   am
    16   107   108    1
    17   112   113   ar
    18    98    99    2
    19   108   109    1
    20    77    78    1
    21    77    76    1
    22   110   109    2
    23    81    80    1
    24    81    82    2
    25    72    71    1
    26    72    79   am
    27    75    76    1
    28    75    74    1
    29    80    79    1
    30    80    83    1
    31   109   115   am
    32    85    83    1
    33    71    74    1
    34    71    70    1
    35    65    64    2
    36    83    84    1
    37    84    86    1
    38   115   116    1
    39    64    70   am
    40    64    63    1
    41    87    88    1
    42   117   116    1
    43   117   118    2
    44    62    63    1
    45    63    66    1
    46    88    89    1
    47    88    91    1
    48    89    90    2
    49    66    67    1
    50    69    67   ar
    51    91    92    1
    52    92    93    1
    53    67    68   ar
    54   153   152    1
    55    93    94    1
    56   162   160    1
    57    94    95    1
    58    25    23    1
    59   154   152    1
    60   152   151    1
    61    21    20    2
    62   151   148    1
    63   148   147    1
    64   148   149    1
    65   160   161    1
    66   160   159    1
    67   155   156    1
    68    41    38    1
    69   156   159    1
    70   156   157    1
    71   150   149    2
    72    20    19    1
    73    20    26   am
    74    23    22    1
    75    23    24    1
    76    19    22    1
    77    19    18    1
    78   158   157    2
    79    13    12    2
    80    31    30    1
    81    38    37    1
    82    38    39    1
    83    37    34   am
    84    26    27    1
    85    27    30    1
    86    27    28    1
    87    36    33    1
    88    32    28   am
    89    32    33    1
    90    18    12   am
    91   145   144    1
    92   145   146    1
    93    12    11    1
    94    28    29    2
    95    33    34    1
    96   144   141    1
    97    34    35    2
    98    43    42    1
    99    43    46    1
   100    43    44    1
   101    39    40    2
   102    39    42   am
   103   146   140    1
   104    16    15   ar
   105    45    44    2
   106    10    11    1
   107    42    48    1
   108    46    47    1
   109    11    14    1
   110    15    17   ar
   111    15    14    1
   112   141   140    1
   113   141   142    1
   114   140   137   am
   115    48    47    1
   116   143   142    2
   117   136   137    1
   118   136   139    1
   119   136   135    1
   120   137   138    2
   121   122   121    2
   122   130   129    2
   123   135   129   am
   124   129   128    1
   125   121   120    1
   126   119   120    1
   127   127   128    1
   128    49    50    1
   129   120   123    1
   130   128   131    1
   131   131   132    1
   132   123   124    1
   133    50    51    1
   134   124   126    1
   135   124   125    1
   136    55    56    2
   137    55    54    1
   138   134   132   ar
   139   132   133   ar
   140    51    53   am
   141    51    52    2
   142    53    54    1
   143    54    57    1
   144    57    58    1
   145    59    58    1
   146    59    60    1
   147    61    60    1
   148     9     7   am
   149     8     7    2
   150     7     6    1
   151     6     5    1
   152     5     2    1
   153     2     1    1
   154     2     3    1
   155     3     4    2
