@<TRIPOS>MOLECULE
tmp/5wwsC00.pdb
 192 184 0 0 0
SMALL
GASTEIGER

@<TRIPOS>ATOM
      1  N         53.4910   -7.6290   35.9470 N.3   216  PHE216     -0.1241
      2  CA        54.4100   -6.8200   35.1600 C.3   216  PHE216      0.1605
      3  C         55.5480   -6.3700   36.0650 C.2   216  PHE216      0.2264
      4  O         55.3480   -5.5530   36.9660 O.2   216  PHE216     -0.2867
      5  CB        53.7080   -5.6150   34.5340 C.3   216  PHE216      0.0534
      6  CG        54.4930   -4.9660   33.4300 C.ar  216  PHE216     -0.0203
      7  CD1       55.4920   -4.0490   33.7120 C.ar  216  PHE216     -0.0042
      8  CD2       54.2330   -5.2780   32.1060 C.ar  216  PHE216     -0.0042
      9  CE1       56.2160   -3.4540   32.6930 C.ar  216  PHE216     -0.0003
     10  CE2       54.9530   -4.6870   31.0830 C.ar  216  PHE216     -0.0003
     11  CZ        55.9450   -3.7740   31.3760 C.ar  216  PHE216     -0.0000
     12  N         58.1770   -4.2780   37.4130 N.3   218  GLN218     -0.1245
     13  CA        58.2970   -2.8350   37.2770 C.3   218  GLN218      0.1566
     14  C         58.8610   -2.2130   38.5480 C.2   218  GLN218      0.2260
     15  O         58.3830   -2.4980   39.6460 O.2   218  GLN218     -0.2867
     16  CB        56.9320   -2.2310   36.9440 C.3   218  GLN218      0.0367
     17  CG        56.9650   -0.7860   36.4890 C.3   218  GLN218      0.0905
     18  CD        55.5860   -0.2730   36.1190 C.2   218  GLN218      0.2608
     19  OE1       54.6220   -1.0350   36.0740 O.2   218  GLN218     -0.2717
     20  NE2       55.4880    1.0220   35.8470 N.am  218  GLN218     -0.0878
     21  N         51.7390    9.3940   26.2660 N.3   239  ASP239     -0.1225
     22  CA        53.1450    9.3720   26.6440 C.3   239  ASP239      0.1805
     23  C         54.0200    9.2900   25.3960 C.2   239  ASP239      0.2598
     24  O         53.9540    8.3250   24.6330 O.2   239  ASP239     -0.2718
     25  CB        53.4450    8.2170   27.6070 C.3   239  ASP239      0.1424
     26  CG        52.9650    6.8770   27.0880 C.2   239  ASP239      0.3668
     27  OD1       52.0210    6.8520   26.2680 O.co2 239  ASP239     -0.2456
     28  OD2       53.5330    5.8470   27.5110 O.co2 239  ASP239     -0.2456
     29  N         54.8230   10.3310   25.1930 N.am  240  LEU240     -0.1966
     30  CA        55.6780   10.4550   24.0180 C.3   240  LEU240      0.1728
     31  C         56.6260    9.2700   23.8830 C.2   240  LEU240      0.2616
     32  O         56.7490    8.6760   22.8140 O.2   240  LEU240     -0.2715
     33  CB        56.4770   11.7560   24.0840 C.3   240  LEU240      0.0311
     34  CG        55.6870   13.0440   23.8630 C.3   240  LEU240      0.0022
     35  CD1       56.5320   14.2480   24.2300 C.3   240  LEU240      0.0001
     36  CD2       55.2180   13.1350   22.4220 C.3   240  LEU240      0.0001
     37  N         57.3050    8.9420   24.9760 N.am  241  CYS241     -0.1954
     38  CA        58.2220    7.8120   25.0040 C.3   241  CYS241      0.1843
     39  C         57.6280    6.6950   25.8530 C.2   241  CYS241      0.2625
     40  O         57.6020    6.7860   27.0800 O.2   241  CYS241     -0.2714
     41  CB        59.5810    8.2460   25.5440 C.3   241  CYS241      0.0997
     42  SG        60.0930    9.8730   24.9560 S.3   241  CYS241     -0.0797
     43  N         57.1530    5.6410   25.1950 N.am  242  ALA242     -0.1963
     44  CA        56.2730    4.6770   25.8490 C.3   242  ALA242      0.1728
     45  C         56.8320    3.2580   25.9230 C.2   242  ALA242      0.2616
     46  O         56.5900    2.5490   26.8970 O.2   242  ALA242     -0.2715
     47  CB        54.9330    4.6570   25.1460 C.3   242  ALA242      0.0334
     48  N         57.5580    2.8400   24.8930 N.am  243  ALA243     -0.1964
     49  CA        58.0190    1.4570   24.7880 C.3   243  ALA243      0.1713
     50  C         58.9180    1.0380   25.9460 C.2   243  ALA243      0.2458
     51  O         59.7540    1.8180   26.3950 O.2   243  ALA243     -0.2730
     52  CB        58.7360    1.2590   23.4800 C.3   243  ALA243      0.0333
     53  N         58.7600   -0.2090   26.4250 N.am  244  PRO244     -0.2727
     54  CA        57.8350   -1.2360   25.9260 C.3   244  PRO244      0.1402
     55  C         56.4180   -1.1490   26.4980 C.2   244  PRO244      0.2269
     56  O         55.6710   -2.1240   26.4090 O.2   244  PRO244     -0.2865
     57  CB        58.5060   -2.5370   26.3660 C.3   244  PRO244      0.0296
     58  CG        59.2000   -2.1740   27.6230 C.3   244  PRO244      0.0237
     59  CD        59.6640   -0.7470   27.4580 C.3   244  PRO244      0.0939
     60  N         55.2420   -0.0260   29.9020 N.3   246  GLY246     -0.1210
     61  CA        54.9500   -0.3510   31.2850 C.3   246  GLY246      0.1956
     62  C         54.0110    0.6840   31.8710 C.2   246  GLY246      0.2611
     63  O         52.9040    0.3680   32.3230 O.2   246  GLY246     -0.2717
     64  N         54.4560    1.9360   31.8430 N.am  247  LYS247     -0.1979
     65  CA        53.6550    3.0500   32.3310 C.3   247  LYS247      0.1596
     66  C         52.4180    3.2600   31.4670 C.2   247  LYS247      0.2287
     67  O         51.4020    3.7560   31.9430 O.2   247  LYS247     -0.2864
     68  CB        54.4920    4.3300   32.3740 C.3   247  LYS247      0.0298
     69  CG        55.7080    4.2300   33.2770 C.3   247  LYS247      0.0038
     70  CD        56.5270    5.5080   33.2580 C.3   247  LYS247      0.0206
     71  CE        57.8130    5.3340   34.0460 C.3   247  LYS247      0.1093
     72  NZ        58.6470    4.2360   33.4850 N.3   247  LYS247     -0.1314
     73  N         56.5120    5.9350   19.9190 N.3   265  ASP265     -0.1225
     74  CA        57.9230    5.5660   20.0540 C.3   265  ASP265      0.1805
     75  C         58.6520    5.7060   18.7190 C.2   265  ASP265      0.2598
     76  O         58.0390    5.6230   17.6590 O.2   265  ASP265     -0.2718
     77  CB        58.0690    4.1400   20.5920 C.3   265  ASP265      0.1424
     78  CG        59.4130    3.9050   21.2560 C.2   265  ASP265      0.3668
     79  OD1       60.3840    3.5760   20.5440 O.co2 265  ASP265     -0.2456
     80  OD2       59.4990    4.0580   22.4930 O.co2 265  ASP265     -0.2456
     81  N         59.9620    5.9210   18.7790 N.am  266  LYS266     -0.1966
     82  CA        60.7510    6.1850   17.5790 C.3   266  LYS266      0.1728
     83  C         61.1500    4.8970   16.8560 C.2   266  LYS266      0.2616
     84  O         61.2830    4.8780   15.6310 O.2   266  LYS266     -0.2715
     85  CB        61.9970    6.9980   17.9410 C.3   266  LYS266      0.0311
     86  CG        62.7050    7.6370   16.7570 C.3   266  LYS266      0.0038
     87  CD        63.8210    8.5610   17.2260 C.3   266  LYS266      0.0206
     88  CE        64.4220    9.3450   16.0710 C.3   266  LYS266      0.1093
     89  NZ        65.4530   10.3150   16.5370 N.3   266  LYS266     -0.1314
     90  N         61.3420    3.8260   17.6200 N.am  267  ILE267     -0.1977
     91  CA        61.7600    2.5410   17.0640 C.3   267  ILE267      0.1596
     92  C         60.5680    1.5990   16.8670 C.2   267  ILE267      0.2287
     93  O         59.7280    1.4580   17.7560 O.2   267  ILE267     -0.2864
     94  CB        62.8110    1.8670   17.9690 C.3   267  ILE267      0.0276
     95  CG1       63.9690    2.8330   18.2380 C.3   267  ILE267      0.0022
     96  CG2       63.3110    0.5730   17.3440 C.3   267  ILE267      0.0022
     97  CD1       65.0130    2.2930   19.1920 C.3   267  ILE267      0.0001
     98  N         60.0470   -1.7440   19.0960 N.3   270  LYS270     -0.1245
     99  CA        59.6360   -1.2860   20.4150 C.3   270  LYS270      0.1561
    100  C         58.1260   -1.0440   20.4730 C.2   270  LYS270      0.2260
    101  O         57.4510   -1.4640   21.4220 O.2   270  LYS270     -0.2867
    102  CB        60.3960   -0.0110   20.7830 C.3   270  LYS270      0.0271
    103  CG        61.8450   -0.2270   21.1900 C.3   270  LYS270      0.0035
    104  CD        62.4890    1.0810   21.6310 C.3   270  LYS270      0.0206
    105  CE        63.7790    0.8400   22.4000 C.3   270  LYS270      0.1093
    106  NZ        63.5450    0.0700   23.6530 N.3   270  LYS270     -0.1314
    107  N         56.6630    6.8910   15.8190 N.3   291  PHE291     -0.1227
    108  CA        56.6930    8.3030   15.4600 C.3   291  PHE291      0.1736
    109  C         57.6780    9.1020   16.3110 C.2   291  PHE291      0.2595
    110  O         57.8920    8.8010   17.4850 O.2   291  PHE291     -0.2718
    111  CB        55.2870    8.8960   15.5830 C.3   291  PHE291      0.0547
    112  CG        55.1110   10.1950   14.8590 C.ar  291  PHE291     -0.0202
    113  CD1       54.7630   10.2150   13.5190 C.ar  291  PHE291     -0.0042
    114  CD2       55.2830   11.3980   15.5190 C.ar  291  PHE291     -0.0042
    115  CE1       54.5990   11.4110   12.8500 C.ar  291  PHE291     -0.0003
    116  CE2       55.1190   12.5960   14.8560 C.ar  291  PHE291     -0.0003
    117  CZ        54.7770   12.6040   13.5210 C.ar  291  PHE291     -0.0000
    118  N         58.2730   10.1250   15.7060 N.am  292  ASP292     -0.1960
    119  CA        59.2160   10.9920   16.4020 C.3   292  ASP292      0.1840
    120  C         58.4650   11.9810   17.2920 C.2   292  ASP292      0.2623
    121  O         57.7140   12.8240   16.8040 O.2   292  ASP292     -0.2715
    122  CB        60.0980   11.7330   15.3920 C.3   292  ASP292      0.1450
    123  CG        61.3120   12.3880   16.0320 C.2   292  ASP292      0.3671
    124  OD1       61.2140   12.8670   17.1820 O.co2 292  ASP292     -0.2456
    125  OD2       62.3750   12.4220   15.3760 O.co2 292  ASP292     -0.2456
    126  N         58.6790   11.8700   18.6000 N.am  293  GLY293     -0.1940
    127  CA        58.0000   12.7130   19.5660 C.3   293  GLY293      0.2014
    128  C         58.3150   14.1880   19.4210 C.2   293  GLY293      0.2639
    129  O         57.4820   15.0390   19.7290 O.2   293  GLY293     -0.2714
    130  N         59.5220   14.4940   18.9530 N.am  294  THR294     -0.1950
    131  CA        59.9460   15.8790   18.7780 C.3   294  THR294      0.1897
    132  C         59.1890   16.5570   17.6400 C.2   294  THR294      0.2313
    133  O         59.1120   17.7850   17.5780 O.2   294  THR294     -0.2863
    134  CB        61.4570   15.9760   18.4990 C.3   294  THR294      0.1794
    135  OG1       61.7740   15.2500   17.3050 O.3   294  THR294     -0.2208
    136  CG2       62.2500   15.4020   19.6620 C.3   294  THR294      0.0378
    137  N         52.4930   12.2680   29.5780 N.3   315  LEU315     -0.1245
    138  CA        53.6060   11.6830   30.3170 C.3   315  LEU315      0.1561
    139  C         54.9010   11.6660   29.5070 C.2   315  LEU315      0.2260
    140  O         55.0410   10.9020   28.5550 O.2   315  LEU315     -0.2867
    141  CB        53.2600   10.2580   30.7580 C.3   315  LEU315      0.0270
    142  CG        54.4280    9.4250   31.2970 C.3   315  LEU315      0.0019
    143  CD1       55.0100   10.0610   32.5440 C.3   315  LEU315      0.0001
    144  CD2       53.9920    7.9940   31.5690 C.3   315  LEU315      0.0001
    145  N         58.1210   10.3120   29.8550 N.3   317  ASP317     -0.1225
    146  CA        59.0990    9.4150   30.4520 C.3   317  ASP317      0.1805
    147  C         60.3570    9.4630   29.5950 C.2   317  ASP317      0.2598
    148  O         60.7610    8.4600   29.0040 O.2   317  ASP317     -0.2718
    149  CB        58.5550    7.9890   30.5490 C.3   317  ASP317      0.1424
    150  CG        59.2810    7.1570   31.5880 C.2   317  ASP317      0.3668
    151  OD1       59.7280    7.7320   32.6030 O.co2 317  ASP317     -0.2456
    152  OD2       59.3990    5.9270   31.3980 O.co2 317  ASP317     -0.2456
    153  N         60.9600   10.6480   29.5390 N.am  318  ALA318     -0.1966
    154  CA        62.0480   10.9590   28.6150 C.3   318  ALA318      0.1713
    155  C         63.2140    9.9810   28.6900 C.2   318  ALA318      0.2458
    156  O         63.5320    9.4710   29.7650 O.2   318  ALA318     -0.2730
    157  CB        62.5440   12.3780   28.8690 C.3   318  ALA318      0.0333
    158  N         63.8480    9.7090   27.5370 N.am  319  PRO319     -0.2716
    159  CA        65.0710    8.9040   27.4990 C.3   319  PRO319      0.1536
    160  C         66.1820    9.6080   28.2640 C.2   319  PRO319      0.2598
    161  O         66.2440   10.8380   28.2520 O.2   319  PRO319     -0.2715
    162  CB        65.3910    8.8090   26.0040 C.3   319  PRO319      0.0310
    163  CG        64.7040    9.9820   25.3940 C.3   319  PRO319      0.0237
    164  CD        63.4530   10.1680   26.1940 C.3   319  PRO319      0.0939
    165  N         67.0420    8.8430   28.9250 N.am  320  CYS320     -0.1968
    166  CA        68.0390    9.4350   29.8040 C.3   320  CYS320      0.1712
    167  C         69.3220    8.6200   29.8650 C.2   320  CYS320      0.2296
    168  O         69.4240    7.5500   29.2630 O.2   320  CYS320     -0.2864
    169  CB        67.4600    9.5970   31.2090 C.3   320  CYS320      0.0983
    170  SG        66.6670    8.1010   31.8470 S.3   320  CYS320     -0.0798
    171  N         67.4920   16.7600   23.7460 N.3   344  LEU344     -0.1245
    172  CA        66.4050   15.8960   23.2940 C.3   344  LEU344      0.1561
    173  C         65.2340   15.9460   24.2720 C.2   344  LEU344      0.2260
    174  O         64.0690   16.0320   23.8680 O.2   344  LEU344     -0.2867
    175  CB        66.8970   14.4570   23.1260 C.3   344  LEU344      0.0270
    176  CG        65.8550   13.4200   22.7060 C.3   344  LEU344      0.0019
    177  CD1       65.1950   13.8220   21.3960 C.3   344  LEU344      0.0001
    178  CD2       66.4880   12.0430   22.5890 C.3   344  LEU344      0.0001
    179  N         61.4190   17.1900   23.3600 N.3   348  LEU348     -0.1245
    180  CA        60.2570   16.3830   23.7160 C.3   348  LEU348      0.1561
    181  C         59.3560   17.1210   24.7020 C.2   348  LEU348      0.2260
    182  O         58.1310   17.0150   24.6390 O.2   348  LEU348     -0.2867
    183  CB        60.6950   15.0410   24.3070 C.3   348  LEU348      0.0270
    184  CG        61.3500   14.0440   23.3490 C.3   348  LEU348      0.0019
    185  CD1       62.0320   12.9240   24.1190 C.3   348  LEU348      0.0001
    186  CD2       60.3220   13.4780   22.3830 C.3   348  LEU348      0.0001
    187  N         65.0080    8.2090   34.8360 N.3   367  CYS367     -0.1235
    188  CA        65.5790    7.2280   35.7540 C.3   367  CYS367      0.1677
    189  C         67.0590    7.5200   35.9940 C.2   367  CYS367      0.2270
    190  O         67.8250    6.6360   36.3760 O.2   367  CYS367     -0.2867
    191  CB        65.3990    5.8030   35.2210 C.3   367  CYS367      0.0956
    192  SG        66.0490    5.5220   33.5630 S.3   367  CYS367     -0.0801
@<TRIPOS>BOND
     1   115   113   ar
     2   115   117   ar
     3   113   112   ar
     4   117   116   ar
     5   116   114   ar
     6   112   114   ar
     7   112   111    1
     8   125   123   ar
     9   122   123    1
    10   122   119    1
    11   108   111    1
    12   108   107    1
    13   108   109    1
    14    84    83    2
    15   118   109   am
    16   118   119    1
    17   123   124   ar
    18    88    89    1
    19    88    87    1
    20   109   110    2
    21   119   120    1
    22    86    87    1
    23    86    85    1
    24   121   120    2
    25    83    82    1
    26    83    90   am
    27    92    91    1
    28    92    93    2
    29    91    90    1
    30    91    94    1
    31   120   126   am
    32   135   134    1
    33    96    94    1
    34   133   132    2
    35    82    85    1
    36    82    81    1
    37   132   131    1
    38    76    75    2
    39    94    95    1
    40    95    97    1
    41   134   131    1
    42   134   136    1
    43   126   127    1
    44    75    81   am
    45    75    74    1
    46   131   130    1
    47   130   128   am
    48    98    99    1
    49   128   127    1
    50   128   129    2
    51    73    74    1
    52    74    77    1
    53    99   100    1
    54    99   102    1
    55   100   101    2
    56    79    78   ar
    57    77    78    1
    58   102   103    1
    59   103   104    1
    60    78    80   ar
    61   177   176    1
    62   104   105    1
    63   186   184    1
    64   105   106    1
    65    36    34    1
    66   178   176    1
    67   176   175    1
    68    32    31    2
    69   175   172    1
    70   172   171    1
    71   172   173    1
    72   184   185    1
    73   184   183    1
    74   179   180    1
    75    52    49    1
    76   180   183    1
    77   180   181    1
    78    34    33    1
    79    34    35    1
    80   174   173    2
    81    31    30    1
    82    31    37   am
    83    30    33    1
    84    30    29    1
    85    24    23    2
    86   182   181    2
    87    49    48    1
    88    49    50    1
    89    48    45   am
    90    42    41    1
    91    37    38    1
    92    38    41    1
    93    38    39    1
    94    47    44    1
    95    29    23   am
    96    43    44    1
    97    43    39   am
    98   163   162    1
    99   163   164    1
   100    23    22    1
   101    44    45    1
   102    39    40    2
   103    45    46    2
   104    54    57    1
   105    54    53    1
   106    54    55    1
   107    50    51    2
   108    50    53   am
   109   162   159    1
   110   164   158    1
   111    21    22    1
   112    27    26   ar
   113    57    58    1
   114    56    55    2
   115    53    59    1
   116    22    25    1
   117    26    28   ar
   118    26    25    1
   119    59    58    1
   120   159   158    1
   121   159   160    1
   122   158   155   am
   123   161   160    2
   124   160   165   am
   125   140   139    2
   126   154   155    1
   127   154   157    1
   128   154   153    1
   129   155   156    2
   130   165   166    1
   131   148   147    2
   132   168   167    2
   133   139   138    1
   134   153   147   am
   135   137   138    1
   136   147   146    1
   137   166   167    1
   138   166   169    1
   139   145   146    1
   140    60    61    1
   141   138   141    1
   142   146   149    1
   143   149   150    1
   144   141   142    1
   145    10    11   ar
   146    10     8   ar
   147   169   170    1
   148    61    62    1
   149   142   144    1
   150   142   143    1
   151    11     9   ar
   152   152   150   ar
   153    66    67    2
   154    66    65    1
   155   150   151   ar
   156    64    62   am
   157    64    65    1
   158    62    63    2
   159     8     6   ar
   160    65    68    1
   161    68    69    1
   162     9     7   ar
   163    70    69    1
   164    70    71    1
   165     6     7   ar
   166     6     5    1
   167    72    71    1
   168   192   191    1
   169     5     2    1
   170   187   188    1
   171     2     1    1
   172     2     3    1
   173   191   188    1
   174   188   189    1
   175    20    18   am
   176   189   190    2
   177     3     4    2
   178    19    18    2
   179    18    17    1
   180    17    16    1
   181    16    13    1
   182    13    12    1
   183    13    14    1
   184    14    15    2
