@<TRIPOS>MOLECULE
tmp/5wwvC01.pdb
 120 115 0 0 0
SMALL
GASTEIGER

@<TRIPOS>ATOM
      1  N         28.2600  -62.3150   -9.8420 N.3    49  ALA49      -0.1231
      2  CA        28.2570  -61.8800   -8.4260 C.3    49  ALA49       0.1694
      3  C         27.6300  -62.8610   -7.4130 C.2    49  ALA49       0.2593
      4  O         28.1670  -63.0730   -6.3370 O.2    49  ALA49      -0.2718
      5  CB        27.5590  -60.5450   -8.3240 C.3    49  ALA49       0.0304
      6  N         26.4980  -63.4550   -7.7610 N.am   50  GLY50      -0.1942
      7  CA        25.8630  -64.4530   -6.9060 C.3    50  GLY50       0.2014
      8  C         25.1330  -63.8050   -5.7440 C.2    50  GLY50       0.2638
      9  O         25.6820  -63.6600   -4.6450 O.2    50  GLY50      -0.2714
     10  N         23.8920  -63.4220   -6.0050 N.am   51  LEU51      -0.1977
     11  CA        23.1030  -62.6360   -5.0840 C.3    51  LEU51       0.1596
     12  C         21.6690  -62.8070   -5.4750 C.2    51  LEU51       0.2287
     13  O         21.3230  -62.6430   -6.6510 O.2    51  LEU51      -0.2864
     14  CB        23.4620  -61.1550   -5.1610 C.3    51  LEU51       0.0297
     15  CG        22.5780  -60.2390   -4.2830 C.3    51  LEU51       0.0022
     16  CD1       22.8450  -60.5020   -2.8060 C.3    51  LEU51       0.0001
     17  CD2       22.7510  -58.7500   -4.5480 C.3    51  LEU51       0.0001
     18  N         18.2120  -61.6300   -5.9710 N.3    53  GLN53      -0.1245
     19  CA        17.5120  -60.3500   -6.2110 C.3    53  GLN53       0.1566
     20  C         16.9670  -60.3830   -7.6270 C.2    53  GLN53       0.2260
     21  O         17.7280  -60.4630   -8.5730 O.2    53  GLN53      -0.2867
     22  CB        18.4230  -59.1100   -6.0110 C.3    53  GLN53       0.0367
     23  CG        17.6850  -57.7720   -6.0580 C.3    53  GLN53       0.0905
     24  CD        18.0370  -56.7940   -4.9300 C.2    53  GLN53       0.2608
     25  OE1       18.1880  -57.1670   -3.7520 O.2    53  GLN53      -0.2717
     26  NE2       18.0940  -55.5240   -5.2810 N.am   53  GLN53      -0.0878
     27  N         14.8030  -58.6210  -10.9240 N.3    55  TYR55      -0.1241
     28  CA        14.6820  -57.2590  -11.4410 C.3    55  TYR55       0.1605
     29  C         13.6480  -56.4970  -10.6250 C.2    55  TYR55       0.2264
     30  O         12.6770  -57.0740  -10.1340 O.2    55  TYR55      -0.2867
     31  CB        14.2550  -57.2380  -12.8990 C.3    55  TYR55       0.0534
     32  CG        15.2120  -57.8700  -13.8920 C.ar   55  TYR55      -0.0201
     33  CD1       16.6070  -57.9400  -13.6700 C.ar   55  TYR55      -0.0009
     34  CD2       14.7170  -58.3820  -15.0970 C.ar   55  TYR55      -0.0009
     35  CE1       17.4590  -58.5200  -14.6170 C.ar   55  TYR55       0.0417
     36  CE2       15.5610  -58.9530  -16.0450 C.ar   55  TYR55       0.0417
     37  CZ        16.9270  -59.0210  -15.8110 C.ar   55  TYR55       0.1957
     38  OH        17.7170  -59.5970  -16.7890 O.3    55  TYR55      -0.2866
     39  N         28.1700  -58.2380  -19.5560 N.3   200  GLY200     -0.1225
     40  CA        28.4920  -57.7360  -18.2420 C.3   200  GLY200      0.1811
     41  C         29.9520  -57.9310  -17.9290 C.2   200  GLY200      0.2280
     42  O         30.4490  -59.0390  -17.8840 O.2   200  GLY200     -0.2866
     43  N         26.1440  -55.5670    0.6540 N.3   213  PHE213     -0.1241
     44  CA        25.9680  -55.2360   -0.7580 C.3   213  PHE213      0.1605
     45  C         25.3730  -53.8360   -0.9820 C.2   213  PHE213      0.2264
     46  O         24.6730  -53.2790   -0.1520 O.2   213  PHE213     -0.2867
     47  CB        25.1880  -56.2920   -1.5120 C.3   213  PHE213      0.0534
     48  CG        23.7470  -56.3520   -1.1790 C.ar  213  PHE213     -0.0203
     49  CD1       22.8530  -55.5100   -1.7890 C.ar  213  PHE213     -0.0042
     50  CD2       23.2820  -57.2780   -0.2860 C.ar  213  PHE213     -0.0042
     51  CE1       21.5140  -55.5680   -1.4880 C.ar  213  PHE213     -0.0003
     52  CE2       21.9480  -57.3650    0.0080 C.ar  213  PHE213     -0.0003
     53  CZ        21.0530  -56.5120   -0.5880 C.ar  213  PHE213     -0.0000
     54  N         23.6200  -51.8330   -4.2460 N.3   215  ILE215     -0.1245
     55  CA        23.2210  -51.8280   -5.6370 C.3   215  ILE215      0.1561
     56  C         22.6580  -50.4560   -5.9750 C.2   215  ILE215      0.2260
     57  O         21.7810  -50.0100   -5.2720 O.2   215  ILE215     -0.2867
     58  CB        22.1290  -52.8390   -5.8390 C.3   215  ILE215      0.0252
     59  CG1       22.6200  -54.2010   -5.4260 C.3   215  ILE215      0.0019
     60  CG2       21.7750  -52.9010   -7.2900 C.3   215  ILE215      0.0019
     61  CD1       21.5480  -55.2770   -5.3050 C.3   215  ILE215      0.0001
     62  N         21.2720  -52.5860  -14.1870 N.3   224  TYR224     -0.1241
     63  CA        22.6720  -52.9950  -13.9530 C.3   224  TYR224      0.1605
     64  C         23.7110  -52.2610  -14.8340 C.2   224  TYR224      0.2264
     65  O         24.8360  -52.7350  -15.0360 O.2   224  TYR224     -0.2867
     66  CB        22.8150  -54.5420  -13.9170 C.3   224  TYR224      0.0534
     67  CG        21.7930  -55.1750  -12.9710 C.ar  224  TYR224     -0.0201
     68  CD1       21.7450  -54.8090  -11.6170 C.ar  224  TYR224     -0.0009
     69  CD2       20.8490  -56.0960  -13.4320 C.ar  224  TYR224     -0.0009
     70  CE1       20.7950  -55.3470  -10.7590 C.ar  224  TYR224      0.0417
     71  CE2       19.9000  -56.6450  -12.5690 C.ar  224  TYR224      0.0417
     72  CZ        19.8690  -56.2670  -11.2340 C.ar  224  TYR224      0.1957
     73  OH        18.9210  -56.8110  -10.3780 O.3   224  TYR224     -0.2866
     74  N         27.3510  -51.5550   -8.7940 N.3   228  TYR228     -0.1227
     75  CA        27.0210  -52.4390   -7.6740 C.3   228  TYR228      0.1736
     76  C         28.2830  -52.9540   -7.0060 C.2   228  TYR228      0.2595
     77  O         29.3410  -52.9460   -7.5960 O.2   228  TYR228     -0.2718
     78  CB        26.1350  -53.6040   -8.0830 C.3   228  TYR228      0.0548
     79  CG        26.6830  -54.5480   -9.1450 C.ar  228  TYR228     -0.0200
     80  CD1       27.5290  -55.6110   -8.8230 C.ar  228  TYR228     -0.0009
     81  CD2       26.2970  -54.4230  -10.4550 C.ar  228  TYR228     -0.0009
     82  CE1       27.9900  -56.5070   -9.7950 C.ar  228  TYR228      0.0417
     83  CE2       26.7550  -55.3010  -11.4290 C.ar  228  TYR228      0.0417
     84  CZ        27.5980  -56.3520  -11.1060 C.ar  228  TYR228      0.1957
     85  OH        28.0370  -57.1910  -12.1220 O.3   228  TYR228     -0.2866
     86  N         28.1500  -53.3620   -5.7500 N.am  229  ILE229     -0.1966
     87  CA        29.2400  -53.8980   -4.9610 C.3   229  ILE229      0.1727
     88  C         28.6460  -55.0620   -4.2190 C.2   229  ILE229      0.2616
     89  O         27.8320  -54.8650   -3.3420 O.2   229  ILE229     -0.2715
     90  CB        29.7750  -52.8850   -3.9400 C.3   229  ILE229      0.0290
     91  CG1       30.4100  -51.7040   -4.6670 C.3   229  ILE229      0.0022
     92  CG2       30.7800  -53.5410   -2.9860 C.3   229  ILE229      0.0023
     93  CD1       30.8690  -50.6020   -3.7270 C.3   229  ILE229      0.0001
     94  N         29.0720  -56.2650   -4.5760 N.am  230  ALA230     -0.1977
     95  CA        28.5830  -57.4860   -3.9700 C.3   230  ALA230      0.1597
     96  C         29.6910  -58.2250   -3.2190 C.2   230  ALA230      0.2287
     97  O         30.5240  -58.8600   -3.8530 O.2   230  ALA230     -0.2864
     98  CB        28.0030  -58.3830   -5.0500 C.3   230  ALA230      0.0319
     99  N         28.0590  -53.0380  -15.6370 N.3   241  THR241     -0.1203
    100  CA        27.6160  -52.7590  -16.9880 C.3   241  THR241      0.1994
    101  C         26.7300  -53.9530  -17.3000 C.2   241  THR241      0.2617
    102  O         26.9980  -55.0420  -16.7740 O.2   241  THR241     -0.2717
    103  CB        28.8050  -52.6220  -17.9830 C.3   241  THR241      0.1784
    104  OG1       29.3410  -53.9130  -18.3390 O.3   241  THR241     -0.2211
    105  CG2       29.9140  -51.7110  -17.3960 C.3   241  THR241      0.0376
    106  N         25.6650  -53.7380  -18.0820 N.am  242  PHE242     -0.1975
    107  CA        24.8250  -54.8280  -18.6130 C.3   242  PHE242      0.1639
    108  C         24.2200  -54.4500  -19.9820 C.2   242  PHE242      0.2290
    109  O         23.0330  -54.1220  -20.0790 O.2   242  PHE242     -0.2864
    110  CB        23.7440  -55.2080  -17.5810 C.3   242  PHE242      0.0560
    111  CG        23.1990  -56.6260  -17.7150 C.ar  242  PHE242     -0.0200
    112  CD1       24.0410  -57.7270  -17.9010 C.ar  242  PHE242     -0.0042
    113  CD2       21.8350  -56.8690  -17.5720 C.ar  242  PHE242     -0.0042
    114  CE1       23.5260  -59.0180  -17.9880 C.ar  242  PHE242     -0.0003
    115  CE2       21.3240  -58.1550  -17.6700 C.ar  242  PHE242     -0.0003
    116  CZ        22.1670  -59.2310  -17.8750 C.ar  242  PHE242     -0.0000
    117  N         19.6220  -61.7960  -16.0940 N.3   313  GLY313     -0.1225
    118  CA        20.3760  -61.5000  -14.8790 C.3   313  GLY313      0.1811
    119  C         19.8650  -62.1300  -13.5850 C.2   313  GLY313      0.2280
    120  O         20.1970  -61.6620  -12.5150 O.2   313  GLY313     -0.2866
@<TRIPOS>BOND
     1   109   108    2
     2   108   107    1
     3    39    40    1
     4   107   106    1
     5   107   110    1
     6   104   103    1
     7    40    41    1
     8   106   101   am
     9   114   112   ar
    10   114   116   ar
    11   103   105    1
    12   103   100    1
    13    41    42    2
    14   112   111   ar
    15   116   115   ar
    16   111   110    1
    17   111   113   ar
    18   115   113   ar
    19   101   100    1
    20   101   102    2
    21   100    99    1
    22    38    37    1
    23   117   118    1
    24    36    37   ar
    25    36    34   ar
    26    37    35   ar
    27    34    32   ar
    28    65    64    2
    29   118   119    1
    30    64    63    1
    31    35    33   ar
    32    62    63    1
    33    63    66    1
    34    66    67    1
    35    32    33   ar
    36    32    31    1
    37   119   120    2
    38    69    67   ar
    39    69    71   ar
    40    67    68   ar
    41    31    28    1
    42    71    72   ar
    43    85    84    1
    44    68    70   ar
    45    28    27    1
    46    28    29    1
    47    83    84   ar
    48    83    81   ar
    49    72    70   ar
    50    72    73    1
    51    84    82   ar
    52    29    30    2
    53    81    79   ar
    54     1     2    1
    55    82    80   ar
    56    79    80   ar
    57    79    78    1
    58    74    75    1
    59    21    20    2
    60     2     5    1
    61     2     3    1
    62    78    75    1
    63     6     3   am
    64     6     7    1
    65    75    76    1
    66    20    19    1
    67    77    76    2
    68     3     4    2
    69    60    58    1
    70    76    86   am
    71     7     8    1
    72    13    12    2
    73    19    22    1
    74    19    18    1
    75    23    22    1
    76    23    24    1
    77    10     8   am
    78    10    11    1
    79    56    55    1
    80    56    57    2
    81    58    55    1
    82    58    59    1
    83    86    87    1
    84     8     9    2
    85    55    54    1
    86    12    11    1
    87    59    61    1
    88    26    24   am
    89    14    11    1
    90    14    15    1
    91    98    95    1
    92    87    88    1
    93    87    90    1
    94    24    25    2
    95    91    90    1
    96    91    93    1
    97    94    88   am
    98    94    95    1
    99    17    15    1
   100    15    16    1
   101    88    89    2
   102    95    96    1
   103    90    92    1
   104    97    96    2
   105    49    51   ar
   106    49    48   ar
   107    47    48    1
   108    47    44    1
   109    51    53   ar
   110    48    50   ar
   111    45    44    1
   112    45    46    2
   113    44    43    1
   114    53    52   ar
   115    50    52   ar
