@<TRIPOS>MOLECULE
tmp/5wx2D02.pdb
 100 99 0 0 0
SMALL
GASTEIGER

@<TRIPOS>ATOM
      1  N         52.3160  -50.0990   27.3890 N.3    38  ARG38      -0.1245
      2  CA        51.8830  -50.9060   26.2230 C.3    38  ARG38       0.1563
      3  C         51.2470  -50.0540   25.1320 C.2    38  ARG38       0.2260
      4  O         50.2660  -49.3750   25.3970 O.2    38  ARG38      -0.2867
      5  CB        50.8370  -51.9610   26.6310 C.3    38  ARG38       0.0307
      6  CG        51.2870  -52.9910   27.6520 C.3    38  ARG38       0.0489
      7  CD        52.2940  -53.9550   27.0570 C.3    38  ARG38       0.2205
      8  NE        53.3100  -54.3070   28.0390 N.pl3  38  ARG38      -0.0865
      9  CZ        53.1890  -55.2650   28.9520 C.cat  38  ARG38       0.5346
     10  NH1       52.0910  -56.0250   29.0190 N.pl3  38  ARG38       0.1354
     11  NH2       54.1860  -55.4780   29.8020 N.pl3  38  ARG38       0.1354
     12  N         49.2150  -54.0400   21.4020 N.3    42  PHE42      -0.1227
     13  CA        49.2930  -54.8210   22.6560 C.3    42  PHE42       0.1736
     14  C         48.4620  -54.3000   23.8430 C.2    42  PHE42       0.2596
     15  O         48.8070  -54.5600   24.9950 O.2    42  PHE42      -0.2718
     16  CB        50.7740  -54.9540   23.0610 C.3    42  PHE42       0.0547
     17  CG        51.5740  -55.8520   22.1530 C.ar   42  PHE42      -0.0202
     18  CD1       51.4180  -57.2390   22.2190 C.ar   42  PHE42      -0.0042
     19  CD2       52.4640  -55.3210   21.2310 C.ar   42  PHE42      -0.0042
     20  CE1       52.1760  -58.0750   21.4330 C.ar   42  PHE42      -0.0003
     21  CE2       53.2010  -56.1550   20.4080 C.ar   42  PHE42      -0.0003
     22  CZ        53.0770  -57.5350   20.5320 C.ar   42  PHE42      -0.0000
     23  N         47.3420  -53.6340   23.5640 N.am   43  THR43      -0.1939
     24  CA        46.4860  -53.0640   24.6120 C.3    43  THR43       0.2028
     25  C         45.1050  -53.7240   24.5870 C.2    43  THR43       0.2642
     26  O         44.7130  -54.2980   23.5770 O.2    43  THR43      -0.2714
     27  CB        46.3560  -51.5160   24.4850 C.3    43  THR43       0.1808
     28  OG1       45.1410  -51.1360   23.8130 O.3    43  THR43      -0.2208
     29  CG2       47.5650  -50.9200   23.7640 C.3    43  THR43       0.0379
     30  N         44.3360  -53.5690   25.6670 N.am   44  THR44      -0.1950
     31  CA        42.9720  -54.1080   25.7180 C.3    44  THR44       0.1897
     32  C         42.1480  -53.6660   24.5060 C.2    44  THR44       0.2313
     33  O         41.4880  -54.4710   23.8850 O.2    44  THR44      -0.2863
     34  CB        42.2490  -53.7230   27.0240 C.3    44  THR44       0.1794
     35  OG1       43.0540  -54.1060   28.1520 O.3    44  THR44      -0.2208
     36  CG2       40.8860  -54.4150   27.1150 C.3    44  THR44       0.0378
     37  N         42.3950  -55.8740   21.4730 N.3    47  VAL47      -0.1245
     38  CA        41.6810  -57.1380   21.6880 C.3    47  VAL47       0.1561
     39  C         40.1810  -57.0400   21.4110 C.2    47  VAL47       0.2260
     40  O         39.5780  -58.0290   21.0030 O.2    47  VAL47      -0.2867
     41  CB        41.9730  -57.7100   23.1290 C.3    47  VAL47       0.0252
     42  CG1       40.7800  -58.3900   23.7870 C.3    47  VAL47       0.0019
     43  CG2       43.1430  -58.6730   23.0930 C.3    47  VAL47       0.0019
     44  N         44.1690  -51.0880   34.9750 N.3   185  TRP185     -0.1241
     45  CA        45.3030  -50.9650   35.8960 C.3   185  TRP185      0.1605
     46  C         45.3730  -49.6040   36.5670 C.2   185  TRP185      0.2264
     47  O         46.4290  -49.2550   37.0900 O.2   185  TRP185     -0.2867
     48  CB        46.6290  -51.2530   35.1640 C.3   185  TRP185      0.0550
     49  CG        46.6300  -52.5700   34.5030 C.ar  185  TRP185      0.0003
     50  CD1       46.6960  -53.7800   35.1160 C.ar  185  TRP185      0.0946
     51  CD2       46.3650  -52.8280   33.1250 C.ar  185  TRP185      0.0152
     52  NE1       46.4790  -54.7850   34.2030 N.ar  185  TRP185     -0.2442
     53  CE2       46.2680  -54.2270   32.9710 C.ar  185  TRP185      0.0810
     54  CE3       46.1330  -52.0110   32.0140 C.ar  185  TRP185      0.0012
     55  CZ2       46.0220  -54.8320   31.7330 C.ar  185  TRP185      0.0191
     56  CZ3       45.8840  -52.6130   30.7700 C.ar  185  TRP185      0.0001
     57  CH2       45.8530  -54.0090   30.6430 C.ar  185  TRP185      0.0015
     58  N         45.5920  -63.7130   33.1820 N.3   249  GLU249     -0.1245
     59  CA        45.8150  -63.3610   31.7830 C.3   249  GLU249      0.1567
     60  C         46.3310  -64.4820   30.8930 C.2   249  GLU249      0.2260
     61  O         46.6720  -64.2120   29.7660 O.2   249  GLU249     -0.2867
     62  CB        46.7030  -62.1280   31.6770 C.3   249  GLU249      0.0388
     63  CG        48.1880  -62.3550   31.8120 C.3   249  GLU249      0.1160
     64  CD        48.8640  -61.1690   32.4820 C.2   249  GLU249      0.3649
     65  OE1       48.6250  -60.9760   33.7000 O.co2 249  GLU249     -0.2457
     66  OE2       49.5790  -60.3980   31.7970 O.co2 249  GLU249     -0.2457
     67  N         42.9990  -64.8360   22.4370 N.3   279  TYR279     -0.1227
     68  CA        43.4400  -63.6920   23.2350 C.3   279  TYR279      0.1736
     69  C         42.5640  -63.4800   24.4570 C.2   279  TYR279      0.2596
     70  O         41.3490  -63.6620   24.4120 O.2   279  TYR279     -0.2718
     71  CB        43.4230  -62.4040   22.4070 C.3   279  TYR279      0.0548
     72  CG        44.0380  -62.5490   21.0480 C.ar  279  TYR279     -0.0200
     73  CD1       45.3950  -62.4460   20.8620 C.ar  279  TYR279     -0.0009
     74  CD2       43.2550  -62.8980   19.9560 C.ar  279  TYR279     -0.0009
     75  CE1       45.9550  -62.6150   19.6120 C.ar  279  TYR279      0.0417
     76  CE2       43.8090  -63.0860   18.7070 C.ar  279  TYR279      0.0417
     77  CZ        45.1580  -62.9350   18.5430 C.ar  279  TYR279      0.1957
     78  OH        45.6800  -63.1420   17.2900 O.3   279  TYR279     -0.2866
     79  N         43.2040  -63.0360   25.5290 N.am  280  THR280     -0.1939
     80  CA        42.5340  -62.6470   26.7480 C.3   280  THR280      0.2028
     81  C         42.8120  -61.1540   26.9360 C.2   280  THR280      0.2643
     82  O         43.8390  -60.6260   26.4750 O.2   280  THR280     -0.2714
     83  CB        43.0500  -63.4910   27.9270 C.3   280  THR280      0.1808
     84  OG1       42.9080  -64.8750   27.5910 O.3   280  THR280     -0.2208
     85  CG2       42.2850  -63.1980   29.2330 C.3   280  THR280      0.0379
     86  N         41.8480  -60.4710   27.5410 N.am  281  GLY281     -0.1939
     87  CA        41.9180  -59.0340   27.7240 C.3   281  GLY281      0.2014
     88  C         41.0130  -58.6310   28.8480 C.2   281  GLY281      0.2638
     89  O         40.0270  -59.2930   29.1220 O.2   281  GLY281     -0.2714
     90  N         41.3110  -57.4900   29.4420 N.am  282  PHE282     -0.1973
     91  CA        40.6750  -57.0870   30.6770 C.3   282  PHE282      0.1639
     92  C         39.9130  -55.7710   30.5170 C.2   282  PHE282      0.2290
     93  O         40.5060  -54.6850   30.4730 O.2   282  PHE282     -0.2864
     94  CB        41.7440  -56.9620   31.7590 C.3   282  PHE282      0.0560
     95  CG        42.3990  -58.2620   32.1190 C.ar  282  PHE282     -0.0200
     96  CD1       41.6700  -59.2930   32.7020 C.ar  282  PHE282     -0.0042
     97  CD2       43.7590  -58.4160   31.9740 C.ar  282  PHE282     -0.0042
     98  CE1       42.2850  -60.4720   33.0860 C.ar  282  PHE282     -0.0003
     99  CE2       44.3850  -59.5890   32.3380 C.ar  282  PHE282     -0.0003
    100  CZ        43.6410  -60.6330   32.8710 C.ar  282  PHE282     -0.0000
@<TRIPOS>BOND
     1    78    77    1
     2    77    76   ar
     3    77    75   ar
     4    76    74   ar
     5    75    73   ar
     6    74    72   ar
     7    21    22   ar
     8    21    19   ar
     9    22    20   ar
    10    73    72   ar
    11    40    39    2
    12    72    71    1
    13    19    17   ar
    14    12    13    1
    15    39    38    1
    16    20    18   ar
    17    37    38    1
    18    38    41    1
    19    17    18   ar
    20    17    16    1
    21    71    68    1
    22    67    68    1
    23    13    16    1
    24    13    14    1
    25    43    41    1
    26    41    42    1
    27    68    69    1
    28    23    14   am
    29    23    24    1
    30    26    25    2
    31    29    27    1
    32    28    27    1
    33    14    15    2
    34    33    32    2
    35    70    69    2
    36    69    79   am
    37    27    24    1
    38    32    31    1
    39    25    24    1
    40    25    30   am
    41     3     4    2
    42     3     2    1
    43    79    80    1
    44    30    31    1
    45    31    34    1
    46     2     5    1
    47     2     1    1
    48    82    81    2
    49     5     6    1
    50    80    81    1
    51    80    83    1
    52    81    86   am
    53    34    36    1
    54    34    35    1
    55     7     6    1
    56     7     8    1
    57    86    87    1
    58    84    83    1
    59    87    88    1
    60    83    85    1
    61     8     9    2
    62    88    89    2
    63    88    90   am
    64     9    10    1
    65     9    11    1
    66    90    91    1
    67    61    60    2
    68    93    92    2
    69    92    91    1
    70    57    56   ar
    71    57    55   ar
    72    91    94    1
    73    56    54   ar
    74    60    59    1
    75    62    59    1
    76    62    63    1
    77    55    53   ar
    78    94    95    1
    79    59    58    1
    80    66    64   ar
    81    63    64    1
    82    97    95   ar
    83    97    99   ar
    84    54    51   ar
    85    95    96   ar
    86    99   100   ar
    87    64    65   ar
    88    96    98   ar
    89   100    98   ar
    90    53    51   ar
    91    53    52   ar
    92    51    49   ar
    93    52    50   ar
    94    49    50   ar
    95    49    48    1
    96    44    45    1
    97    48    45    1
    98    45    46    1
    99    46    47    2
