@<TRIPOS>MOLECULE
tmp/5wx2B01.pdb
 121 118 0 0 0
SMALL
GASTEIGER

@<TRIPOS>ATOM
      1  N          7.9620   -7.4260  -18.7760 N.3    49  ALA49      -0.1245
      2  CA         7.1740   -8.1300  -17.7600 C.3    49  ALA49       0.1562
      3  C          7.9950   -8.9300  -16.7270 C.2    49  ALA49       0.2260
      4  O          7.5200   -9.1120  -15.6300 O.2    49  ALA49      -0.2867
      5  CB         6.1360   -9.0280  -18.4330 C.3    49  ALA49       0.0290
      6  N          9.2900  -12.2610  -16.9410 N.3    51  LEU51      -0.1245
      7  CA         9.2060  -13.7370  -16.8890 C.3    51  LEU51       0.1561
      8  C         10.0370  -14.4810  -17.9350 C.2    51  LEU51       0.2260
      9  O         10.1010  -14.0440  -19.0820 O.2    51  LEU51      -0.2867
     10  CB         7.7420  -14.1670  -17.0520 C.3    51  LEU51       0.0270
     11  CG         7.4360  -15.6420  -16.7350 C.3    51  LEU51       0.0019
     12  CD1        7.4940  -15.8750  -15.2310 C.3    51  LEU51       0.0001
     13  CD2        6.0900  -16.0960  -17.2680 C.3    51  LEU51       0.0001
     14  N          9.9510  -17.3910  -20.4270 N.3    53  GLN53      -0.1231
     15  CA         9.1590  -18.3440  -21.2210 C.3    53  GLN53       0.1683
     16  C          9.3940  -18.1180  -22.7260 C.2    53  GLN53       0.2434
     17  O          9.1120  -17.0430  -23.2430 O.2    53  GLN53      -0.2733
     18  CB         7.6680  -18.2380  -20.8900 C.3    53  GLN53       0.0380
     19  CG         6.9240  -19.5520  -20.9620 C.3    53  GLN53       0.0905
     20  CD         5.4360  -19.4130  -20.6590 C.2    53  GLN53       0.2608
     21  OE1        4.7040  -18.8510  -21.4590 O.2    53  GLN53      -0.2717
     22  NE2        4.9690  -20.0370  -19.5800 N.am   53  GLN53      -0.0878
     23  N         10.0100  -19.1020  -23.4160 N.am   54  PRO54      -0.2718
     24  CA        10.1290  -18.9330  -24.8690 C.3    54  PRO54       0.1535
     25  C          8.7870  -19.1340  -25.5880 C.2    54  PRO54       0.2599
     26  O          7.7550  -19.4500  -24.9540 O.2    54  PRO54      -0.2715
     27  CB        11.1380  -20.0300  -25.2850 C.3    54  PRO54       0.0310
     28  CG        11.8270  -20.4500  -24.0350 C.3    54  PRO54       0.0237
     29  CD        10.8510  -20.2140  -22.9200 C.3    54  PRO54       0.0939
     30  N          8.8210  -18.9400  -26.9030 N.am   55  TYR55      -0.1960
     31  CA         7.6680  -19.2100  -27.7290 C.3    55  TYR55       0.1771
     32  C          7.4170  -20.7150  -27.6830 C.2    55  TYR55       0.2620
     33  O          8.3430  -21.4820  -27.5160 O.2    55  TYR55      -0.2715
     34  CB         7.8820  -18.7160  -29.1670 C.3    55  TYR55       0.0574
     35  CG         6.6800  -18.9230  -30.0560 C.ar   55  TYR55      -0.0198
     36  CD1        5.4540  -18.3440  -29.7340 C.ar   55  TYR55      -0.0009
     37  CD2        6.7400  -19.7760  -31.1690 C.ar   55  TYR55      -0.0009
     38  CE1        4.3100  -18.6310  -30.4680 C.ar   55  TYR55       0.0417
     39  CE2        5.6130  -20.0310  -31.9400 C.ar   55  TYR55       0.0417
     40  CZ         4.3960  -19.4790  -31.5670 C.ar   55  TYR55       0.1957
     41  OH         3.2600  -19.7530  -32.2890 O.3    55  TYR55      -0.2866
     42  N          6.1470  -21.0990  -27.7990 N.am   56  THR56      -0.1951
     43  CA         5.6760  -22.4850  -27.7180 C.3    56  THR56       0.1897
     44  C          6.3550  -23.4450  -28.7180 C.2    56  THR56       0.2313
     45  O          6.8180  -24.5170  -28.3280 O.2    56  THR56      -0.2863
     46  CB         4.1340  -22.5490  -27.8970 C.3    56  THR56       0.1794
     47  OG1        3.7800  -22.1460  -29.2180 O.3    56  THR56      -0.2208
     48  CG2        3.4120  -21.6210  -26.9030 C.3    56  THR56       0.0378
     49  N         -0.9610  -16.2950  -18.0330 N.3   215  ILE215     -0.1245
     50  CA        -0.6400  -15.8780  -19.3880 C.3   215  ILE215      0.1561
     51  C         -1.6300  -16.5280  -20.3340 C.2   215  ILE215      0.2260
     52  O         -1.6420  -17.7490  -20.4670 O.2   215  ILE215     -0.2867
     53  CB         0.7780  -16.3210  -19.7340 C.3   215  ILE215      0.0252
     54  CG1        1.7670  -15.5460  -18.8740 C.3   215  ILE215      0.0019
     55  CG2        1.1050  -16.1130  -21.2050 C.3   215  ILE215      0.0019
     56  CD1        3.1310  -16.1920  -18.8680 C.3   215  ILE215      0.0001
     57  N         -3.2180  -16.8680  -24.2080 N.3   217  HIS217     -0.1241
     58  CA        -2.7230  -16.9110  -25.5770 C.3   217  HIS217      0.1621
     59  C         -3.8680  -16.8140  -26.5650 C.2   217  HIS217      0.2264
     60  O         -4.8330  -17.5640  -26.4810 O.2   217  HIS217     -0.2867
     61  CB        -2.0470  -18.2540  -25.8520 C.3   217  HIS217      0.0745
     62  CG        -0.8240  -18.5050  -25.0300 C.ar  217  HIS217      0.0817
     63  ND1        0.4450  -18.4950  -25.5670 N.ar  217  HIS217     -0.2268
     64  CD2       -0.6810  -18.8570  -23.7300 C.ar  217  HIS217      0.1154
     65  CE1        1.3210  -18.7460  -24.6120 C.ar  217  HIS217      0.1986
     66  NE2        0.6620  -19.0160  -23.4990 N.ar  217  HIS217     -0.2212
     67  N          1.7970  -13.5400  -30.0640 N.3   223  ILE223     -0.1231
     68  CA         2.3290  -13.3180  -28.7300 C.3   223  ILE223      0.1692
     69  C          2.1210  -11.8770  -28.2050 C.2   223  ILE223      0.2592
     70  O          2.1170  -10.9200  -28.9810 O.2   223  ILE223     -0.2718
     71  CB         3.8330  -13.7270  -28.6360 C.3   223  ILE223      0.0266
     72  CG1        4.7590  -12.7720  -29.3880 C.3   223  ILE223      0.0019
     73  CG2        4.0470  -15.1450  -29.1500 C.3   223  ILE223      0.0020
     74  CD1        6.2200  -12.9900  -29.0830 C.3   223  ILE223      0.0001
     75  N          1.8980  -11.7640  -26.8860 N.am  224  TYR224     -0.1976
     76  CA         1.6040  -10.5100  -26.1820 C.3   224  TYR224      0.1639
     77  C          0.2890   -9.8020  -26.5940 C.2   224  TYR224      0.2290
     78  O          0.0180   -8.6890  -26.1100 O.2   224  TYR224     -0.2864
     79  CB         2.7790   -9.5260  -26.2850 C.3   224  TYR224      0.0560
     80  CG         4.0330   -9.9060  -25.5590 C.ar  224  TYR224     -0.0198
     81  CD1        5.0290  -10.6420  -26.1940 C.ar  224  TYR224     -0.0009
     82  CD2        4.3000   -9.3970  -24.2920 C.ar  224  TYR224     -0.0009
     83  CE1        6.2150  -10.9440  -25.5420 C.ar  224  TYR224      0.0417
     84  CE2        5.4840   -9.6810  -23.6250 C.ar  224  TYR224      0.0417
     85  CZ         6.4430  -10.4310  -24.2600 C.ar  224  TYR224      0.1957
     86  OH         7.6130  -10.6990  -23.6210 O.3   224  TYR224     -0.2866
     87  N         -1.9750  -10.8890  -20.0490 N.3   228  TYR228     -0.1241
     88  CA        -1.0680  -11.5660  -19.1110 C.3   228  TYR228      0.1605
     89  C         -0.9250  -10.8180  -17.8000 C.2   228  TYR228      0.2264
     90  O         -0.9150   -9.5970  -17.7810 O.2   228  TYR228     -0.2867
     91  CB         0.3070  -11.8560  -19.7220 C.3   228  TYR228      0.0534
     92  CG         1.0840  -10.6420  -20.1500 C.ar  228  TYR228     -0.0201
     93  CD1        1.9400   -9.9810  -19.2490 C.ar  228  TYR228     -0.0009
     94  CD2        1.0290  -10.1820  -21.4640 C.ar  228  TYR228     -0.0009
     95  CE1        2.6690   -8.8700  -19.6430 C.ar  228  TYR228      0.0417
     96  CE2        1.7080   -9.0470  -21.8400 C.ar  228  TYR228      0.0417
     97  CZ         2.5700   -8.4260  -20.9480 C.ar  228  TYR228      0.1957
     98  OH         3.3310   -7.3470  -21.3410 O.3   228  TYR228     -0.2866
     99  N         10.7030  -10.1920  -28.4480 N.3   313  GLY313     -0.1210
    100  CA         9.8640  -10.5150  -27.3070 C.3   313  GLY313      0.1956
    101  C         10.5410  -11.2910  -26.1970 C.2   313  GLY313      0.2611
    102  O          9.8630  -11.7110  -25.2630 O.2   313  GLY313     -0.2717
    103  N         11.8550  -11.5070  -26.2950 N.am  314  TYR314     -0.1976
    104  CA        12.5480  -12.4890  -25.4420 C.3   314  TYR314      0.1639
    105  C         13.9740  -12.0960  -25.0160 C.2   314  TYR314      0.2290
    106  O         14.7850  -12.9530  -24.6750 O.2   314  TYR314     -0.2864
    107  CB        12.5920  -13.8460  -26.1670 C.3   314  TYR314      0.0560
    108  CG        11.2510  -14.3210  -26.6640 C.ar  314  TYR314     -0.0198
    109  CD1       10.3950  -15.0260  -25.8230 C.ar  314  TYR314     -0.0009
    110  CD2       10.8090  -14.0200  -27.9540 C.ar  314  TYR314     -0.0009
    111  CE1        9.1300  -15.4270  -26.2540 C.ar  314  TYR314      0.0417
    112  CE2        9.5820  -14.4780  -28.4200 C.ar  314  TYR314      0.0417
    113  CZ         8.7470  -15.1800  -27.5670 C.ar  314  TYR314      0.1957
    114  OH         7.5290  -15.6290  -27.9820 O.3   314  TYR314     -0.2866
    115  N         14.8080  -13.7240  -21.7020 N.3   317  THR317     -0.1218
    116  CA        14.7010  -15.1870  -21.8170 C.3   317  THR317      0.1862
    117  C         15.8910  -15.8120  -22.6020 C.2   317  THR317      0.2287
    118  O         16.1040  -17.0180  -22.5620 O.2   317  THR317     -0.2866
    119  CB        13.3330  -15.5610  -22.4360 C.3   317  THR317      0.1770
    120  OG1       12.3160  -14.7670  -21.8220 O.3   317  THR317     -0.2211
    121  CG2       12.9740  -16.9890  -22.2040 C.3   317  THR317      0.0375
@<TRIPOS>BOND
     1    41    40    1
     2    39    40   ar
     3    39    37   ar
     4    40    38   ar
     5    37    35   ar
     6    38    36   ar
     7    67    68    1
     8    35    36   ar
     9    35    34    1
    10    72    74    1
    11    72    71    1
    12    47    46    1
    13    34    31    1
    14    73    71    1
    15    70    69    2
    16    68    71    1
    17    68    69    1
    18    44    45    2
    19    44    43    1
    20    99   100    1
    21   112   110   ar
    22   112   113   ar
    23    69    75   am
    24   114   113    1
    25   110   108   ar
    26    46    43    1
    27    46    48    1
    28    42    43    1
    29    42    32   am
    30    31    32    1
    31    31    30    1
    32    32    33    2
    33   113   111   ar
    34   100   101    1
    35    30    25   am
    36    75    76    1
    37   108   107    1
    38   108   109   ar
    39    77    76    1
    40    77    78    2
    41    59    60    2
    42    59    58    1
    43   103   101   am
    44   103   104    1
    45    79    76    1
    46    79    80    1
    47   111   109   ar
    48   101   102    2
    49    81    80   ar
    50    81    83   ar
    51   107   104    1
    52    61    58    1
    53    61    62    1
    54    25    26    2
    55    25    24    1
    56    58    57    1
    57    63    62   ar
    58    63    65   ar
    59    80    82   ar
    60    83    85   ar
    61   104   105    1
    62    27    24    1
    63    27    28    1
    64    62    64   ar
    65   105   106    2
    66    24    23    1
    67    65    66   ar
    68    82    84   ar
    69    85    84   ar
    70    85    86    1
    71    28    29    1
    72    64    66   ar
    73    23    29    1
    74    23    16   am
    75    17    16    2
    76    16    15    1
    77   117   118    2
    78   117   116    1
    79   119   121    1
    80   119   120    1
    81   119   116    1
    82    96    94   ar
    83    96    97   ar
    84   116   115    1
    85    94    92   ar
    86    21    20    2
    87    98    97    1
    88    15    18    1
    89    15    14    1
    90    55    53    1
    91    19    18    1
    92    19    20    1
    93    97    95   ar
    94    20    22   am
    95    52    51    2
    96    51    50    1
    97    92    91    1
    98    92    93   ar
    99    87    88    1
   100    53    50    1
   101    53    54    1
   102    91    88    1
   103    95    93   ar
   104    50    49    1
   105    88    89    1
   106     9     8    2
   107    54    56    1
   108     1     2    1
   109     5     2    1
   110     8     7    1
   111    89    90    2
   112     2     3    1
   113    13    11    1
   114    10     7    1
   115    10    11    1
   116     6     7    1
   117    11    12    1
   118     3     4    2
