@<TRIPOS>MOLECULE
tmp/5wx2D01.pdb
 85 80 0 0 0
SMALL
GASTEIGER

@<TRIPOS>ATOM
      1  N         36.2730  -56.7690   20.4410 N.3    49  ALA49      -0.1245
      2  CA        35.4630  -57.2620   19.3240 C.3    49  ALA49       0.1562
      3  C         35.2270  -56.1960   18.2650 C.2    49  ALA49       0.2260
      4  O         35.0800  -56.5200   17.0930 O.2    49  ALA49      -0.2867
      5  CB        34.1320  -57.7870   19.8460 C.3    49  ALA49       0.0290
      6  N         32.6370  -53.5720   18.3130 N.3    51  LEU51      -0.1245
      7  CA        31.2730  -53.2460   17.9020 C.3    51  LEU51       0.1561
      8  C         30.7030  -52.1420   18.7540 C.2    51  LEU51       0.2260
      9  O         30.8280  -52.2000   19.9790 O.2    51  LEU51      -0.2867
     10  CB        30.3850  -54.4800   18.0380 C.3    51  LEU51       0.0270
     11  CG        29.0180  -54.3440   17.3810 C.3    51  LEU51       0.0019
     12  CD1       29.1540  -54.6540   15.8970 C.3    51  LEU51       0.0001
     13  CD2       27.9950  -55.2550   18.0280 C.3    51  LEU51       0.0001
     14  N         27.8820  -50.7930   20.7000 N.3    53  GLN53      -0.1245
     15  CA        26.6410  -51.1910   21.3390 C.3    53  GLN53       0.1566
     16  C         26.8010  -51.0380   22.8250 C.2    53  GLN53       0.2260
     17  O         27.6530  -51.7120   23.4080 O.2    53  GLN53      -0.2867
     18  CB        26.2780  -52.6410   21.0340 C.3    53  GLN53       0.0367
     19  CG        24.8540  -52.9780   21.4100 C.3    53  GLN53       0.0905
     20  CD        24.2870  -54.0680   20.5340 C.2    53  GLN53       0.2608
     21  OE1       23.8870  -55.1280   21.0260 O.2    53  GLN53      -0.2717
     22  NE2       24.2620  -53.8210   19.2160 N.am   53  GLN53      -0.0878
     23  N         24.6890  -61.2560   18.6420 N.3   215  ILE215     -0.1245
     24  CA        24.9560  -61.0740   20.0730 C.3   215  ILE215      0.1561
     25  C         23.8490  -61.7230   20.8790 C.2   215  ILE215      0.2260
     26  O         22.6780  -61.6770   20.5140 O.2   215  ILE215     -0.2867
     27  CB        25.0630  -59.5710   20.4210 C.3   215  ILE215      0.0252
     28  CG1       26.1790  -58.9220   19.5940 C.3   215  ILE215      0.0019
     29  CG2       25.3800  -59.3490   21.8960 C.3   215  ILE215      0.0019
     30  CD1       25.9110  -57.4880   19.2360 C.3   215  ILE215      0.0001
     31  N         28.8540  -64.6150   21.5320 N.3   228  TYR228     -0.1241
     32  CA        28.7270  -63.5800   20.5050 C.3   228  TYR228      0.1605
     33  C         29.7130  -63.7290   19.3740 C.2   228  TYR228      0.2264
     34  O         30.8210  -64.2080   19.5580 O.2   228  TYR228     -0.2867
     35  CB        28.8080  -62.1950   21.1050 C.3   228  TYR228      0.0534
     36  CG        30.1540  -61.8170   21.6190 C.ar  228  TYR228     -0.0201
     37  CD1       31.0890  -61.2000   20.7900 C.ar  228  TYR228     -0.0009
     38  CD2       30.4360  -61.9060   22.9680 C.ar  228  TYR228     -0.0009
     39  CE1       32.2950  -60.7610   21.2820 C.ar  228  TYR228      0.0417
     40  CE2       31.6370  -61.4620   23.4660 C.ar  228  TYR228      0.0417
     41  CZ        32.5580  -60.8920   22.6240 C.ar  228  TYR228      0.1957
     42  OH        33.7350  -60.4320   23.1690 O.3   228  TYR228     -0.2866
     43  N         31.2530  -61.4680   15.9820 N.3   230  ALA230     -0.1245
     44  CA        31.5030  -60.0770   15.6540 C.3   230  ALA230      0.1562
     45  C         32.3850  -59.9450   14.4360 C.2   230  ALA230      0.2260
     46  O         33.6020  -59.8960   14.5790 O.2   230  ALA230     -0.2867
     47  CB        32.1760  -59.4150   16.8490 C.3   230  ALA230      0.0290
     48  N         32.4310  -64.6610   24.7280 N.3   240  GLY240     -0.1210
     49  CA        31.4340  -64.9600   25.7770 C.3   240  GLY240      0.1956
     50  C         31.2530  -63.8130   26.7640 C.2   240  GLY240      0.2613
     51  O         31.7730  -62.7080   26.5590 O.2   240  GLY240     -0.2717
     52  N         30.4870  -64.0550   27.8270 N.am  241  THR241     -0.1938
     53  CA        30.3990  -63.0700   28.9220 C.3   241  THR241      0.2028
     54  C         31.7410  -62.9730   29.6950 C.2   241  THR241      0.2642
     55  O         32.6010  -63.8550   29.6210 O.2   241  THR241     -0.2714
     56  CB        29.1510  -63.2460   29.8680 C.3   241  THR241      0.1808
     57  OG1       28.6050  -64.5730   29.7750 O.3   241  THR241     -0.2208
     58  CG2       28.0350  -62.2280   29.4910 C.3   241  THR241      0.0379
     59  N         31.9930  -61.7780   30.1970 N.am  242  PHE242     -0.1973
     60  CA        33.1440  -61.4990   31.0270 C.3   242  PHE242      0.1639
     61  C         33.0930  -62.3430   32.3040 C.2   242  PHE242      0.2290
     62  O         32.0210  -62.7730   32.7240 O.2   242  PHE242     -0.2864
     63  CB        33.1470  -60.0030   31.4140 C.3   242  PHE242      0.0560
     64  CG        33.6070  -59.0550   30.3180 C.ar  242  PHE242     -0.0200
     65  CD1       33.7070  -59.4410   28.9750 C.ar  242  PHE242     -0.0042
     66  CD2       33.8640  -57.7250   30.6360 C.ar  242  PHE242     -0.0042
     67  CE1       34.1630  -58.5500   28.0200 C.ar  242  PHE242     -0.0003
     68  CE2       34.3220  -56.8360   29.6830 C.ar  242  PHE242     -0.0003
     69  CZ        34.4670  -57.2450   28.3740 C.ar  242  PHE242     -0.0000
     70  N         33.2080  -53.0060   29.2560 N.3   313  GLY313     -0.1210
     71  CA        33.2320  -53.5850   27.9020 C.3   313  GLY313      0.1956
     72  C         32.6470  -52.7060   26.7990 C.2   313  GLY313      0.2611
     73  O         32.1070  -53.2330   25.8180 O.2   313  GLY313     -0.2717
     74  N         32.7340  -51.3770   26.9660 N.am  314  TYR314     -0.1976
     75  CA        32.0560  -50.4060   26.0940 C.3   314  TYR314      0.1639
     76  C         32.8880  -49.1640   25.7770 C.2   314  TYR314      0.2290
     77  O         32.3480  -48.1610   25.3220 O.2   314  TYR314     -0.2864
     78  CB        30.7490  -49.9670   26.7600 C.3   314  TYR314      0.0560
     79  CG        29.8370  -51.1260   27.0730 C.ar  314  TYR314     -0.0198
     80  CD1       29.0770  -51.7310   26.0680 C.ar  314  TYR314     -0.0009
     81  CD2       29.8110  -51.6960   28.3350 C.ar  314  TYR314     -0.0009
     82  CE1       28.2670  -52.8380   26.3320 C.ar  314  TYR314      0.0417
     83  CE2       29.0000  -52.7970   28.6150 C.ar  314  TYR314      0.0417
     84  CZ        28.2490  -53.3720   27.6130 C.ar  314  TYR314      0.1957
     85  OH        27.5020  -54.4750   27.9150 O.3   314  TYR314     -0.2866
@<TRIPOS>BOND
     1    45    46    2
     2    45    44    1
     3    44    43    1
     4    44    47    1
     5    12    11    1
     6     4     3    2
     7    11    13    1
     8    11    10    1
     9     7    10    1
    10     7     6    1
    11     7     8    1
    12     3     2    1
    13    23    24    1
    14     8     9    2
    15    22    20   am
    16    30    28    1
    17     2     5    1
    18     2     1    1
    19    33    34    2
    20    33    32    1
    21    28    27    1
    22    24    27    1
    23    24    25    1
    24    27    29    1
    25    32    35    1
    26    32    31    1
    27    26    25    2
    28    20    21    2
    29    20    19    1
    30    14    15    1
    31    37    39   ar
    32    37    36   ar
    33    18    15    1
    34    18    19    1
    35    35    36    1
    36    39    41   ar
    37    15    16    1
    38    36    38   ar
    39    41    42    1
    40    41    40   ar
    41    16    17    2
    42    38    40   ar
    43    48    49    1
    44    77    76    2
    45    49    50    1
    46    76    75    1
    47    73    72    2
    48    80    82   ar
    49    80    79   ar
    50    75    78    1
    51    75    74    1
    52    82    84   ar
    53    51    50    2
    54    78    79    1
    55    50    52   am
    56    72    74   am
    57    72    71    1
    58    79    81   ar
    59    84    85    1
    60    84    83   ar
    61    52    53    1
    62    71    70    1
    63    67    69   ar
    64    67    65   ar
    65    81    83   ar
    66    69    68   ar
    67    53    54    1
    68    53    56    1
    69    65    64   ar
    70    58    56    1
    71    55    54    2
    72    68    66   ar
    73    54    59   am
    74    57    56    1
    75    59    60    1
    76    64    66   ar
    77    64    63    1
    78    60    63    1
    79    60    61    1
    80    61    62    2
