@<TRIPOS>MOLECULE
tmp/5wx3C00.pdb
 214 205 0 0 0
SMALL
GASTEIGER

@<TRIPOS>ATOM
      1  N         16.6420   13.0190   68.1010 N.3    40  LYS40      -0.1245
      2  CA        15.2370   13.3400   67.8970 C.3    40  LYS40       0.1561
      3  C         14.3900   12.0730   67.8100 C.2    40  LYS40       0.2260
      4  O         13.3050   11.9990   68.4040 O.2    40  LYS40      -0.2867
      5  CB        15.0870   14.1890   66.6300 C.3    40  LYS40       0.0271
      6  CG        13.6520   14.5110   66.2500 C.3    40  LYS40       0.0035
      7  CD        13.5740   15.2140   64.8930 C.3    40  LYS40       0.0206
      8  CE        14.2860   16.5580   64.9100 C.3    40  LYS40       0.1093
      9  NZ        13.6640   17.5090   65.8730 N.3    40  LYS40      -0.1314
     10  N         13.6820   10.5580   71.1970 N.3    43  ARG43      -0.1231
     11  CA        12.6220   11.2530   71.9270 C.3    43  ARG43       0.1694
     12  C         11.2450   10.9080   71.3710 C.2    43  ARG43       0.2591
     13  O         10.2860   10.7430   72.1340 O.2    43  ARG43      -0.2718
     14  CB        12.8670   12.7620   71.8940 C.3    43  ARG43       0.0321
     15  CG        13.9900   13.2160   72.8200 C.3    43  ARG43       0.0489
     16  CD        14.0370   14.7490   72.9670 C.3    43  ARG43       0.2205
     17  NE        14.3110   15.3980   71.6890 N.pl3  43  ARG43      -0.0865
     18  CZ        15.5320   15.5990   71.2090 C.cat  43  ARG43       0.5346
     19  NH1       16.5930   15.2070   71.9130 N.pl3  43  ARG43       0.1354
     20  NH2       15.6880   16.1850   70.0300 N.pl3  43  ARG43       0.1354
     21  N         11.1280   10.7800   70.0480 N.am   44  MET44      -0.1979
     22  CA         9.8640   10.3550   69.4580 C.3    44  MET44       0.1605
     23  C          9.4440    8.9930   69.9960 C.2    44  MET44       0.2287
     24  O          8.3010    8.8090   70.4320 O.2    44  MET44      -0.2864
     25  CB         9.9760   10.3110   67.9330 C.3    44  MET44       0.0413
     26  CG        10.0990   11.6750   67.2640 C.3    44  MET44       0.0598
     27  SD         9.9510   11.5630   65.4540 S.3    44  MET44      -0.1393
     28  CE        11.4030   10.6880   65.0750 C.3    44  MET44       0.0692
     29  N          8.4290    9.1420   73.6950 N.3    47  LYS47      -0.1231
     30  CA         7.1360    9.7840   73.9020 C.3    47  LYS47       0.1693
     31  C          5.9850    9.0210   73.2590 C.2    47  LYS47       0.2592
     32  O          4.8240    9.4050   73.4600 O.2    47  LYS47      -0.2718
     33  CB         7.1590   11.2110   73.3550 C.3    47  LYS47       0.0285
     34  CG         8.0560   12.1710   74.1050 C.3    47  LYS47       0.0035
     35  CD         7.3520   12.7580   75.3190 C.3    47  LYS47       0.0206
     36  CE         7.9800   14.0860   75.7470 C.3    47  LYS47       0.1093
     37  NZ         9.4610   13.9820   75.8830 N.3    47  LYS47      -0.1314
     38  N          6.2820    7.9590   72.4970 N.am   48  SER48      -0.1952
     39  CA         5.2580    7.2470   71.7310 C.3    48  SER48       0.1924
     40  C          4.2690    6.5000   72.6170 C.2    48  SER48       0.2314
     41  O          3.1370    6.2620   72.1750 O.2    48  SER48      -0.2863
     42  CB         5.8960    6.2530   70.7410 C.3    48  SER48       0.2116
     43  OG         6.6210    5.2240   71.4080 O.3    48  SER48      -0.2180
     44  N         -6.2320    4.3200   58.1890 N.3   149  CYS149     -0.1235
     45  CA        -6.5810    3.9550   59.5580 C.3   149  CYS149      0.1677
     46  C         -8.0850    3.9770   59.8560 C.2   149  CYS149      0.2270
     47  O         -8.4750    3.6330   60.9770 O.2   149  CYS149     -0.2867
     48  CB        -5.8310    4.8590   60.5510 C.3   149  CYS149      0.0956
     49  SG        -4.0370    5.0160   60.2940 S.3   149  CYS149     -0.0801
     50  N         10.8590   14.8920   58.4630 N.3   192  LEU192     -0.1231
     51  CA        10.4620   14.4540   59.8010 C.3   192  LEU192      0.1693
     52  C          9.0610   13.8530   59.8020 C.2   192  LEU192      0.2592
     53  O          8.7350   13.0490   60.6820 O.2   192  LEU192     -0.2718
     54  CB        10.5280   15.6280   60.7820 C.3   192  LEU192      0.0284
     55  CG        11.8980   16.2910   60.8710 C.3   192  LEU192      0.0019
     56  CD1       11.9050   17.4000   61.9320 C.3   192  LEU192      0.0001
     57  CD2       12.9650   15.2340   61.1230 C.3   192  LEU192      0.0001
     58  N          8.2250   14.2440   58.8380 N.am  193  ASP193     -0.1974
     59  CA         6.8700   13.7230   58.6870 C.3   193  ASP193      0.1709
     60  C          6.8560   12.2980   58.1590 C.2   193  ASP193      0.2293
     61  O          5.8140   11.6320   58.2330 O.2   193  ASP193     -0.2864
     62  CB         6.0400   14.6620   57.7750 C.3   193  ASP193      0.1436
     63  CG         6.7980   15.0970   56.5130 C.2   193  ASP193      0.3671
     64  OD1        6.1510   15.5810   55.5670 O.co2 193  ASP193     -0.2456
     65  OD2        8.0360   14.9600   56.4520 O.co2 193  ASP193     -0.2456
     66  N          8.3290   10.2280   61.8820 N.3   196  VAL196     -0.1245
     67  CA         7.3850    9.9530   62.9700 C.3   196  VAL196      0.1561
     68  C          6.6710    8.6140   62.7550 C.2   196  VAL196      0.2260
     69  O          6.3540    7.9020   63.7250 O.2   196  VAL196     -0.2867
     70  CB         6.3860   11.1240   63.1090 C.3   196  VAL196      0.0252
     71  CG1        5.5660   11.3070   61.8260 C.3   196  VAL196      0.0019
     72  CG2        5.4740   10.9110   64.2990 C.3   196  VAL196      0.0019
     73  N          8.4470    5.6710   64.2070 N.3   199  ALA199     -0.1231
     74  CA         8.2880    5.5320   65.6440 C.3   199  ALA199      0.1694
     75  C          6.9720    4.8740   66.0590 C.2   199  ALA199      0.2592
     76  O          6.9160    4.3210   67.1660 O.2   199  ALA199     -0.2718
     77  CB         8.3940    6.9000   66.3250 C.3   199  ALA199      0.0304
     78  N          5.9160    4.9340   65.2410 N.am  200  ILE200     -0.1966
     79  CA         4.5950    4.5200   65.7240 C.3   200  ILE200      0.1727
     80  C          3.9070    3.4660   64.8630 C.2   200  ILE200      0.2616
     81  O          3.0200    2.7620   65.3790 O.2   200  ILE200     -0.2715
     82  CB         3.6480    5.7340   65.9200 C.3   200  ILE200      0.0290
     83  CG1        3.3520    6.4350   64.5910 C.3   200  ILE200      0.0022
     84  CG2        4.2100    6.7060   66.9440 C.3   200  ILE200      0.0023
     85  CD1        2.5250    7.7190   64.7630 C.3   200  ILE200      0.0001
     86  N          4.2290    3.3050   63.5760 N.am  201  PHE201     -0.1974
     87  CA         3.5090    2.3640   62.7190 C.3   201  PHE201      0.1639
     88  C          3.9860    0.9310   62.9450 C.2   201  PHE201      0.2290
     89  O          5.1520    0.6900   63.2590 O.2   201  PHE201     -0.2864
     90  CB         3.6860    2.7230   61.2430 C.3   201  PHE201      0.0560
     91  CG         3.1120    4.0680   60.8520 C.ar  201  PHE201     -0.0200
     92  CD1        2.1330    4.6960   61.6260 C.ar  201  PHE201     -0.0042
     93  CD2        3.5570    4.7020   59.7010 C.ar  201  PHE201     -0.0042
     94  CE1        1.6050    5.9340   61.2540 C.ar  201  PHE201     -0.0003
     95  CE2        3.0270    5.9360   59.3200 C.ar  201  PHE201     -0.0003
     96  CZ         2.0610    6.5610   60.0980 C.ar  201  PHE201     -0.0000
     97  N         -3.0700   13.6830   56.6340 N.3   240  ILE240     -0.1245
     98  CA        -2.4910   12.3620   56.4010 C.3   240  ILE240      0.1561
     99  C         -2.4540   12.1380   54.8960 C.2   240  ILE240      0.2260
    100  O         -3.5010   12.1410   54.2350 O.2   240  ILE240     -0.2867
    101  CB        -3.2660   11.2370   57.1130 C.3   240  ILE240      0.0252
    102  CG1       -3.3470   11.5110   58.6130 C.3   240  ILE240      0.0019
    103  CG2       -2.5930    9.8910   56.8800 C.3   240  ILE240      0.0019
    104  CD1       -4.4200   10.7050   59.3020 C.3   240  ILE240      0.0001
    105  N          2.7820   12.5950   57.8440 N.3   253  LEU253     -0.1231
    106  CA         1.9850   12.8820   59.0330 C.3   253  LEU253      0.1693
    107  C          2.1720   14.3300   59.4580 C.2   253  LEU253      0.2593
    108  O          3.2940   14.7490   59.7710 O.2   253  LEU253     -0.2718
    109  CB         2.3670   11.9600   60.1850 C.3   253  LEU253      0.0284
    110  CG         1.7430   10.5870   60.2320 C.3   253  LEU253      0.0019
    111  CD1        1.5850   10.2050   61.6850 C.3   253  LEU253      0.0001
    112  CD2        0.4070   10.5740   59.5020 C.3   253  LEU253      0.0001
    113  N          1.0700   15.0730   59.5090 N.am  254  SER254     -0.1938
    114  CA         1.0870   16.4640   59.9250 C.3   254  SER254      0.2055
    115  C          1.0670   16.5840   61.4490 C.2   254  SER254      0.2642
    116  O          0.5350   15.7190   62.1570 O.2   254  SER254     -0.2714
    117  CB        -0.1160   17.1940   59.3290 C.3   254  SER254      0.2130
    118  OG        -0.3770   18.4020   60.0170 O.3   254  SER254     -0.2179
    119  N          1.6450   17.6850   61.9530 N.am  255  ARG255     -0.1977
    120  CA         1.7040   17.9150   63.3960 C.3   255  ARG255      0.1597
    121  C          0.3540   18.3220   63.9690 C.2   255  ARG255      0.2287
    122  O          0.1650   18.2700   65.1890 O.2   255  ARG255     -0.2864
    123  CB         2.7450   19.0020   63.7270 C.3   255  ARG255      0.0334
    124  CG         4.1440   18.7300   63.1700 C.3   255  ARG255      0.0492
    125  CD         5.1080   19.8930   63.4330 C.3   255  ARG255      0.2205
    126  NE         5.3680   20.0390   64.8590 N.pl3 255  ARG255     -0.0865
    127  CZ         6.3940   19.4790   65.4880 C.cat 255  ARG255      0.5346
    128  NH1        7.2660   18.7520   64.8070 N.pl3 255  ARG255      0.1354
    129  NH2        6.5530   19.6520   66.7930 N.pl3 255  ARG255      0.1354
    130  N         -2.7020   16.9740   63.1090 N.3   257  VAL257     -0.1231
    131  CA        -3.7590   15.9560   63.0100 C.3   257  VAL257      0.1678
    132  C         -4.4730   15.7200   64.3420 C.2   257  VAL257      0.2434
    133  O         -5.7100   15.7820   64.3690 O.2   257  VAL257     -0.2733
    134  CB        -3.2020   14.6650   62.3920 C.3   257  VAL257      0.0265
    135  CG1       -4.1910   13.5240   62.5420 C.3   257  VAL257      0.0020
    136  CG2       -2.8830   14.8770   60.9310 C.3   257  VAL257      0.0020
    137  N         -3.7780   15.4670   65.4680 N.am  258  PRO258     -0.2729
    138  CA        -4.5170   15.2720   66.7320 C.3   258  PRO258      0.1401
    139  C         -5.3470   16.4780   67.1470 C.2   258  PRO258      0.2269
    140  O         -6.4660   16.3180   67.6550 O.2   258  PRO258     -0.2865
    141  CB        -3.3990   14.9740   67.7450 C.3   258  PRO258      0.0296
    142  CG        -2.2710   14.4370   66.9250 C.3   258  PRO258      0.0237
    143  CD        -2.3300   15.2230   65.6490 C.3   258  PRO258      0.0939
    144  N         -3.9880    6.2990   66.8640 N.3   269  GLY269     -0.1210
    145  CA        -3.1000    6.9550   65.9140 C.3   269  GLY269      0.1956
    146  C         -1.8120    7.4230   66.5550 C.2   269  GLY269      0.2612
    147  O         -0.7860    7.5470   65.8800 O.2   269  GLY269     -0.2717
    148  N         -1.8470    7.6660   67.8630 N.am  270  GLY270     -0.1942
    149  CA        -0.7010    8.0400   68.6470 C.3   270  GLY270      0.1998
    150  C         -1.2000    8.4610   70.0160 C.2   270  GLY270      0.2481
    151  O         -2.4110    8.5510   70.2450 O.2   270  GLY270     -0.2729
    152  N         -0.2900    8.7210   70.9610 N.am  271  PRO271     -0.2715
    153  CA        -0.7500    9.1110   72.3060 C.3   271  PRO271      0.1536
    154  C         -1.5550   10.4050   72.3140 C.2   271  PRO271      0.2598
    155  O         -2.5740   10.4920   73.0110 O.2   271  PRO271     -0.2715
    156  CB         0.5620    9.2360   73.0960 C.3   271  PRO271      0.0310
    157  CG         1.6130    9.5100   72.0530 C.3   271  PRO271      0.0237
    158  CD         1.1810    8.6960   70.8620 C.3   271  PRO271      0.0939
    159  N         -1.1260   11.4120   71.5410 N.am  272  ALA272     -0.1964
    160  CA        -1.8220   12.6980   71.5070 C.3   272  ALA272      0.1728
    161  C         -3.2940   12.5340   71.1520 C.2   272  ALA272      0.2616
    162  O         -4.1440   13.2860   71.6510 O.2   272  ALA272     -0.2715
    163  CB        -1.1380   13.6320   70.5100 C.3   272  ALA272      0.0334
    164  N         -3.6080   11.5510   70.3010 N.am  273  VAL273     -0.1977
    165  CA        -4.9910   11.2760   69.9170 C.3   273  VAL273      0.1596
    166  C         -5.8060   10.8260   71.1250 C.2   273  VAL273      0.2287
    167  O         -6.8670   11.3830   71.4270 O.2   273  VAL273     -0.2864
    168  CB        -5.0250   10.2170   68.8010 C.3   273  VAL273      0.0276
    169  CG1       -6.4420    9.7590   68.5690 C.3   273  VAL273      0.0022
    170  CG2       -4.3710   10.7500   67.5170 C.3   273  VAL273      0.0022
    171  N         -5.1310   11.1240   74.2920 N.3   275  ARG275     -0.1245
    172  CA        -5.2220   12.1600   75.3160 C.3   275  ARG275      0.1563
    173  C         -6.2360   13.2290   74.9200 C.2   275  ARG275      0.2260
    174  O         -6.9930   13.7180   75.7700 O.2   275  ARG275     -0.2867
    175  CB        -3.8450   12.7840   75.5730 C.3   275  ARG275      0.0307
    176  CG        -2.8140   11.8350   76.1960 C.3   275  ARG275      0.0489
    177  CD        -1.5530   12.5760   76.6570 C.3   275  ARG275      0.2205
    178  NE        -0.7410   13.0360   75.5350 N.pl3 275  ARG275     -0.0865
    179  CZ         0.3960   12.4630   75.1520 C.cat 275  ARG275      0.5346
    180  NH1        0.8690   11.4100   75.8170 N.pl3 275  ARG275      0.1354
    181  NH2        1.0610   12.9470   74.1080 N.pl3 275  ARG275      0.1354
    182  N          0.4730    1.4090   66.3590 N.3   300  ASN300     -0.1240
    183  CA        -0.5710    1.8580   65.4350 C.3   300  ASN300      0.1653
    184  C         -0.4910    1.0040   64.1730 C.2   300  ASN300      0.2266
    185  O          0.3790    1.2120   63.3220 O.2   300  ASN300     -0.2867
    186  CB        -0.4080    3.3500   65.1330 C.3   300  ASN300      0.1155
    187  CG        -1.3280    3.8480   64.0190 C.2   300  ASN300      0.2627
    188  OD1       -2.2230    3.1400   63.5500 O.2   300  ASN300     -0.2716
    189  ND2       -1.1100    5.0870   63.6000 N.am  300  ASN300     -0.0877
    190  N         -2.8480    0.7960   61.7520 N.3   302  TRP302     -0.1241
    191  CA        -3.8180    1.3140   60.7690 C.3   302  TRP302      0.1605
    192  C         -5.0920    0.4750   60.8850 C.2   302  TRP302      0.2264
    193  O         -5.5300    0.2190   62.0150 O.2   302  TRP302     -0.2867
    194  CB        -3.2110    1.3440   59.3730 C.3   302  TRP302      0.0550
    195  CG        -1.9230    2.0870   59.2070 C.ar  302  TRP302      0.0003
    196  CD1       -1.2200    2.7970   60.1550 C.ar  302  TRP302      0.0946
    197  CD2       -1.1700    2.1810   57.9980 C.ar  302  TRP302      0.0152
    198  NE1       -0.0850    3.3380   59.5930 N.ar  302  TRP302     -0.2442
    199  CE2       -0.0330    2.9750   58.2700 C.ar  302  TRP302      0.0810
    200  CE3       -1.3550    1.6750   56.7020 C.ar  302  TRP302      0.0012
    201  CZ2        0.9230    3.2700   57.2910 C.ar  302  TRP302      0.0191
    202  CZ3       -0.4090    1.9640   55.7330 C.ar  302  TRP302      0.0001
    203  CH2        0.7190    2.7510   56.0360 C.ar  302  TRP302      0.0015
    204  N        -10.2080    6.8310   62.0530 N.3   337  PHE337     -0.1241
    205  CA        -9.9400    8.0290   61.2690 C.3   337  PHE337      0.1605
    206  C         -8.6830    7.8380   60.4420 C.2   337  PHE337      0.2264
    207  O         -7.8930    6.9290   60.6830 O.2   337  PHE337     -0.2867
    208  CB        -9.8180    9.2810   62.1460 C.3   337  PHE337      0.0534
    209  CG        -9.0550    9.0650   63.4110 C.ar  337  PHE337     -0.0203
    210  CD1       -7.6720    9.0080   63.3940 C.ar  337  PHE337     -0.0042
    211  CD2       -9.7240    8.9480   64.6220 C.ar  337  PHE337     -0.0042
    212  CE1       -6.9650    8.8170   64.5590 C.ar  337  PHE337     -0.0003
    213  CE2       -9.0330    8.7520   65.7910 C.ar  337  PHE337     -0.0003
    214  CZ        -7.6530    8.6830   65.7590 C.ar  337  PHE337     -0.0000
@<TRIPOS>BOND
     1   100    99    2
     2    99    98    1
     3    64    63   ar
     4   202   203   ar
     5   202   200   ar
     6   203   201   ar
     7    98    97    1
     8    98   101    1
     9    65    63   ar
    10    63    62    1
    11   200   197   ar
    12   103   101    1
    13   101   102    1
    14   201   199   ar
    15    62    59    1
    16   105   106    1
    17   197   199   ar
    18   197   195   ar
    19    60    61    2
    20    60    59    1
    21    44    45    1
    22   199   198   ar
    23    50    51    1
    24   102   104    1
    25    59    58    1
    26    58    52   am
    27   106   107    1
    28   106   109    1
    29   195   194    1
    30   195   196   ar
    31    95    93   ar
    32    95    96   ar
    33   117   114    1
    34   117   118    1
    35   194   191    1
    36   107   113   am
    37   107   108    2
    38   112   110    1
    39   113   114    1
    40    45    46    1
    41    45    48    1
    42   198   196   ar
    43    93    91   ar
    44    51    52    1
    45    51    54    1
    46    52    53    2
    47    46    47    2
    48   114   115    1
    49    96    94   ar
    50   109   110    1
    51   110   111    1
    52    49    48    1
    53   206   207    2
    54   206   205    1
    55   191   192    1
    56   191   190    1
    57    54    55    1
    58    91    90    1
    59    91    92   ar
    60    55    57    1
    61    55    56    1
    62   192   193    2
    63   136   134    1
    64    90    87    1
    65    94    92   ar
    66   205   204    1
    67   205   208    1
    68   115   119   am
    69   115   116    2
    70    71    70    1
    71    66    67    1
    72   119   120    1
    73   208   209    1
    74   134   135    1
    75   134   131    1
    76    87    88    1
    77    87    86    1
    78    68    67    1
    79    68    69    2
    80    88    89    2
    81    67    70    1
    82   131   130    1
    83   131   132    1
    84    70    72    1
    85   124   125    1
    86   124   123    1
    87   185   184    2
    88   210   209   ar
    89   210   212   ar
    90   120   123    1
    91   120   121    1
    92   209   211   ar
    93   125   126    1
    94   188   187    2
    95    86    80   am
    96   189   187   am
    97   121   122    2
    98   187   186    1
    99   184   183    1
   100    73    74    1
   101   132   133    2
   102   132   137   am
   103   212   214   ar
   104    83    85    1
   105    83    82    1
   106   211   213   ar
   107   128   127    1
   108   126   127    2
   109    80    81    2
   110    80    79    1
   111     7     8    1
   112     7     6    1
   113     8     9    1
   114    28    27    1
   115   186   183    1
   116    78    79    1
   117    78    75   am
   118   183   182    1
   119    27    26    1
   120   137   143    1
   121   137   138    1
   122   127   129    1
   123    74    75    1
   124    74    77    1
   125   143   142    1
   126    79    82    1
   127   214   213   ar
   128   147   146    2
   129   145   146    1
   130   145   144    1
   131    82    84    1
   132    75    76    2
   133     6     5    1
   134   146   148   am
   135     5     2    1
   136   138   139    1
   137   138   141    1
   138   142   141    1
   139   139   140    2
   140    26    25    1
   141   170   168    1
   142     3     2    1
   143     3     4    2
   144   148   149    1
   145     2     1    1
   146    25    22    1
   147   169   168    1
   148   149   150    1
   149   168   165    1
   150    22    23    1
   151    22    21    1
   152   165   164    1
   153   165   166    1
   154    23    24    2
   155   150   151    2
   156   150   152   am
   157    20    18    1
   158    21    12   am
   159   164   161   am
   160   163   160    1
   161    42    43    1
   162    42    39    1
   163   158   152    1
   164   158   157    1
   165   152   153    1
   166   166   167    2
   167   161   160    1
   168   161   162    2
   169    10    11    1
   170    18    17    2
   171    18    19    1
   172    12    11    1
   173    12    13    2
   174   160   159    1
   175   159   154   am
   176    17    16    1
   177    39    38    1
   178    39    40    1
   179    14    11    1
   180    14    15    1
   181   157   156    1
   182    41    40    2
   183   153   154    1
   184   153   156    1
   185   154   155    2
   186    38    31   am
   187    15    16    1
   188    31    32    2
   189    31    30    1
   190    33    30    1
   191    33    34    1
   192    29    30    1
   193    34    35    1
   194   181   179    1
   195   171   172    1
   196   173   172    1
   197   173   174    2
   198   179   178    2
   199   179   180    1
   200   172   175    1
   201    35    36    1
   202   178   177    1
   203   175   176    1
   204    36    37    1
   205   176   177    1
