@<TRIPOS>MOLECULE
tmp/5wx6B00.pdb
 210 200 0 0 0
SMALL
GASTEIGER

@<TRIPOS>ATOM
      1  N         41.1630  -23.5680   43.1840 N.3    40  LYS40      -0.1245
      2  CA        42.0050  -24.2780   42.2330 C.3    40  LYS40       0.1561
      3  C         42.9380  -23.3320   41.4880 C.2    40  LYS40       0.2260
      4  O         44.0990  -23.6710   41.2330 O.2    40  LYS40      -0.2867
      5  CB        41.1120  -25.0380   41.2630 C.3    40  LYS40       0.0271
      6  CG        41.8360  -25.8120   40.2020 C.3    40  LYS40       0.0035
      7  CD        40.8080  -26.4290   39.2460 C.3    40  LYS40       0.0206
      8  CE        40.2380  -27.7340   39.7900 C.3    40  LYS40       0.1093
      9  NZ        41.1290  -28.8950   39.4790 N.3    40  LYS40      -0.1314
     10  N         45.8750  -22.2650   43.7220 N.3    43  ARG43      -0.1231
     11  CA        46.9150  -23.2890   43.7870 C.3    43  ARG43       0.1694
     12  C         47.7510  -23.2930   42.5170 C.2    43  ARG43       0.2591
     13  O         48.9730  -23.4890   42.5750 O.2    43  ARG43      -0.2718
     14  CB        46.3120  -24.6780   44.0160 C.3    43  ARG43       0.0321
     15  CG        45.6790  -24.8900   45.3780 C.3    43  ARG43       0.0489
     16  CD        45.1940  -26.3330   45.5830 C.3    43  ARG43       0.2205
     17  NE        44.0370  -26.7140   44.7680 N.pl3  43  ARG43      -0.0865
     18  CZ        42.7660  -26.5500   45.1380 C.cat  43  ARG43       0.5346
     19  NH1       42.4710  -25.9970   46.3060 N.pl3  43  ARG43       0.1354
     20  NH2       41.7870  -26.9340   44.3370 N.pl3  43  ARG43       0.1354
     21  N         47.1050  -23.0950   41.3620 N.am   44  MET44      -0.1979
     22  CA        47.8390  -23.0010   40.1080 C.3    44  MET44       0.1605
     23  C         48.8010  -21.8250   40.1190 C.2    44  MET44       0.2287
     24  O         49.9530  -21.9540   39.6950 O.2    44  MET44      -0.2864
     25  CB        46.8740  -22.8680   38.9400 C.3    44  MET44       0.0413
     26  CG        46.0260  -24.0830   38.6770 C.3    44  MET44       0.0598
     27  SD        45.0110  -23.6970   37.2460 S.3    44  MET44      -0.1393
     28  CE        44.1680  -25.2500   37.0290 C.3    44  MET44       0.0692
     29  N         51.8170  -22.4560   42.4950 N.3    47  LYS47      -0.1231
     30  CA        52.7910  -23.4050   41.9690 C.3    47  LYS47       0.1693
     31  C         53.5000  -22.9090   40.7080 C.2    47  LYS47       0.2592
     32  O         54.4010  -23.5950   40.2120 O.2    47  LYS47      -0.2718
     33  CB        52.1020  -24.7510   41.6930 C.3    47  LYS47       0.0285
     34  CG        51.5120  -25.3840   42.9480 C.3    47  LYS47       0.0035
     35  CD        51.4900  -26.8990   42.8630 C.3    47  LYS47       0.0206
     36  CE        52.0170  -27.5730   44.1430 C.3    47  LYS47       0.1093
     37  NZ        52.4220  -28.9970   43.9050 N.3    47  LYS47      -0.1314
     38  N         53.1440  -21.7280   40.1920 N.am   48  SER48      -0.1952
     39  CA        53.6530  -21.2740   38.9000 C.3    48  SER48       0.1924
     40  C         55.1010  -20.8130   38.9430 C.2    48  SER48       0.2314
     41  O         55.7320  -20.7370   37.8850 O.2    48  SER48      -0.2863
     42  CB        52.8060  -20.1220   38.3740 C.3    48  SER48       0.2116
     43  OG        52.9770  -18.9960   39.2220 O.3    48  SER48      -0.2180
     44  N         55.2770  -20.1280   21.2050 N.3   149  CYS149     -0.1235
     45  CA        56.4530  -19.9250   22.0330 C.3   149  CYS149      0.1677
     46  C         57.7510  -20.3710   21.3700 C.2   149  CYS149      0.2270
     47  O         58.7980  -20.3560   22.0270 O.2   149  CYS149     -0.2867
     48  CB        56.2690  -20.6470   23.3660 C.3   149  CYS149      0.0956
     49  SG        54.7320  -20.2510   24.2170 S.3   149  CYS149     -0.0801
     50  N         39.1840  -26.2480   32.3770 N.3   192  LEU192     -0.1231
     51  CA        40.3500  -25.9650   33.2090 C.3   192  LEU192      0.1693
     52  C         41.5790  -25.4960   32.4360 C.2   192  LEU192      0.2592
     53  O         42.5510  -25.0340   33.0310 O.2   192  LEU192     -0.2718
     54  CB        40.6990  -27.1840   34.0670 C.3   192  LEU192      0.0284
     55  CG        39.6190  -27.6190   35.0590 C.3   192  LEU192      0.0019
     56  CD1       40.1950  -28.5470   36.1180 C.3   192  LEU192      0.0001
     57  CD2       38.9630  -26.4070   35.7030 C.3   192  LEU192      0.0001
     58  N         41.5350  -25.6100   31.1130 N.am  193  ASP193     -0.1974
     59  CA        42.6550  -25.1810   30.2840 C.3   193  ASP193      0.1709
     60  C         42.8670  -23.6740   30.3970 C.2   193  ASP193      0.2293
     61  O         44.0020  -23.1990   30.4320 O.2   193  ASP193     -0.2864
     62  CB        42.4310  -25.5770   28.8260 C.3   193  ASP193      0.1436
     63  CG        42.1540  -27.0570   28.6630 C.2   193  ASP193      0.3671
     64  OD1       43.1060  -27.8140   28.3840 O.co2 193  ASP193     -0.2456
     65  OD2       40.9830  -27.4620   28.8160 O.co2 193  ASP193     -0.2456
     66  N         44.8430  -22.5440   33.5620 N.3   196  VAL196     -0.1245
     67  CA        46.2850  -22.6710   33.4190 C.3   196  VAL196      0.1561
     68  C         46.8900  -21.4840   32.6770 C.2   196  VAL196      0.2260
     69  O         47.8870  -20.9150   33.1180 O.2   196  VAL196     -0.2867
     70  CB        46.6680  -23.9690   32.6830 C.3   196  VAL196      0.0252
     71  CG1       48.1620  -23.9950   32.4010 C.3   196  VAL196      0.0019
     72  CG2       46.2520  -25.1820   33.4990 C.3   196  VAL196      0.0019
     73  N         47.0950  -18.2170   34.5810 N.3   199  ALA199     -0.1231
     74  CA        48.0980  -18.2360   35.6350 C.3   199  ALA199      0.1694
     75  C         49.5040  -17.9200   35.1310 C.2   199  ALA199      0.2592
     76  O         50.3370  -17.5080   35.9350 O.2   199  ALA199     -0.2718
     77  CB        48.1060  -19.5960   36.3320 C.3   199  ALA199      0.0304
     78  N         49.7910  -18.0760   33.8290 N.am  200  ILE200     -0.1966
     79  CA        51.1800  -18.0560   33.3650 C.3   200  ILE200      0.1727
     80  C         51.4710  -17.0480   32.2550 C.2   200  ILE200      0.2616
     81  O         52.6000  -16.5580   32.1520 O.2   200  ILE200     -0.2715
     82  CB        51.6420  -19.4630   32.9120 C.3   200  ILE200      0.0290
     83  CG1       50.8590  -19.9310   31.6850 C.3   200  ILE200      0.0022
     84  CG2       51.5950  -20.4730   34.0790 C.3   200  ILE200      0.0023
     85  CD1       51.3500  -21.2120   31.1030 C.3   200  ILE200      0.0001
     86  N         50.5030  -16.7490   31.4000 N.am  201  PHE201     -0.1974
     87  CA        50.7740  -15.9510   30.2060 C.3   201  PHE201      0.1639
     88  C         50.9200  -14.4750   30.5490 C.2   201  PHE201      0.2290
     89  O         50.2120  -13.9550   31.4140 O.2   201  PHE201     -0.2864
     90  CB        49.6590  -16.1380   29.1720 C.3   201  PHE201      0.0560
     91  CG        49.6780  -17.4810   28.4970 C.ar  201  PHE201     -0.0200
     92  CD1       50.8910  -18.0930   28.1730 C.ar  201  PHE201     -0.0042
     93  CD2       48.4980  -18.1440   28.2160 C.ar  201  PHE201     -0.0042
     94  CE1       50.9210  -19.3390   27.5660 C.ar  201  PHE201     -0.0003
     95  CE2       48.5200  -19.3840   27.6170 C.ar  201  PHE201     -0.0003
     96  CZ        49.7370  -19.9810   27.2870 C.ar  201  PHE201     -0.0000
     97  N         49.2170  -28.4780   22.7740 N.3   240  ILE240     -0.1245
     98  CA        49.0420  -27.0260   22.8280 C.3   240  ILE240      0.1561
     99  C         48.1830  -26.6440   21.6220 C.2   240  ILE240      0.2260
    100  O         48.6180  -26.7960   20.4710 O.2   240  ILE240     -0.2867
    101  CB        50.3810  -26.2690   22.8030 C.3   240  ILE240      0.0252
    102  CG1       51.2400  -26.5880   24.0170 C.3   240  ILE240      0.0019
    103  CG2       50.1550  -24.7740   22.7700 C.3   240  ILE240      0.0019
    104  CD1       52.6560  -26.1350   23.8430 C.3   240  ILE240      0.0001
    105  N         45.6770  -26.3400   26.9430 N.3   253  LEU253     -0.1231
    106  CA        46.9550  -26.8820   27.3870 C.3   253  LEU253      0.1693
    107  C         46.8030  -28.2340   28.0740 C.2   253  LEU253      0.2593
    108  O         46.1160  -28.3540   29.0860 O.2   253  LEU253     -0.2718
    109  CB        47.6550  -25.8960   28.3250 C.3   253  LEU253      0.0284
    110  CG        47.8550  -24.4760   27.7910 C.3   253  LEU253      0.0019
    111  CD1       48.3220  -23.5450   28.8980 C.3   253  LEU253      0.0001
    112  CD2       48.8380  -24.4700   26.6310 C.3   253  LEU253      0.0001
    113  N         47.4480  -29.2500   27.5110 N.am  254  SER254     -0.1938
    114  CA        47.4060  -30.5920   28.0700 C.3   254  SER254      0.2055
    115  C         48.2510  -30.6550   29.3390 C.2   254  SER254      0.2642
    116  O         49.3020  -30.0160   29.4290 O.2   254  SER254     -0.2714
    117  CB        47.9190  -31.5880   27.0360 C.3   254  SER254      0.2130
    118  OG        48.2290  -32.8290   27.6320 O.3   254  SER254     -0.2179
    119  N         47.7850  -31.4120   30.3370 N.am  255  ARG255     -0.1977
    120  CA        48.5690  -31.5480   31.5640 C.3   255  ARG255      0.1597
    121  C         49.9270  -32.1890   31.3170 C.2   255  ARG255      0.2287
    122  O         50.8630  -31.9650   32.0940 O.2   255  ARG255     -0.2864
    123  CB        47.8050  -32.3660   32.6100 C.3   255  ARG255      0.0334
    124  CG        47.2140  -31.5240   33.7190 C.3   255  ARG255      0.0492
    125  CD        46.3590  -32.3240   34.6980 C.3   255  ARG255      0.2205
    126  NE        47.0220  -32.5350   35.9860 N.pl3 255  ARG255     -0.0865
    127  CZ        46.4620  -33.1430   37.0300 C.cat 255  ARG255      0.5346
    128  NH1       45.2160  -33.5970   36.9480 N.pl3 255  ARG255      0.1354
    129  NH2       47.1460  -33.2900   38.1610 N.pl3 255  ARG255      0.1354
    130  N         52.0310  -31.7590   28.7010 N.3   257  VAL257     -0.1231
    131  CA        52.9670  -31.0810   27.7880 C.3   257  VAL257      0.1678
    132  C         54.3430  -30.8680   28.4060 C.2   257  VAL257      0.2434
    133  O         55.3490  -31.0890   27.7060 O.2   257  VAL257     -0.2733
    134  CB        52.3390  -29.7890   27.2450 C.3   257  VAL257      0.0265
    135  CG1       53.3840  -28.8960   26.6190 C.3   257  VAL257      0.0020
    136  CG2       51.3500  -30.1400   26.2110 C.3   257  VAL257      0.0020
    137  N         54.4840  -30.4560   29.6830 N.am  258  PRO258     -0.2729
    138  CA        55.8430  -30.2650   30.2370 C.3   258  PRO258      0.1401
    139  C         56.7010  -31.5120   30.2070 C.2   258  PRO258      0.2269
    140  O         57.9130  -31.4180   29.9760 O.2   258  PRO258     -0.2865
    141  CB        55.5690  -29.8140   31.6730 C.3   258  PRO258      0.0296
    142  CG        54.2220  -29.1710   31.6020 C.3   258  PRO258      0.0237
    143  CD        53.4450  -29.9900   30.6250 C.3   258  PRO258      0.0939
    144  N         62.9030  -22.0510   26.9500 N.3   289  HIS289     -0.1241
    145  CA        61.6570  -21.3050   27.0170 C.3   289  HIS289      0.1621
    146  C         60.8890  -21.7040   28.2720 C.2   289  HIS289      0.2264
    147  O         60.5560  -22.8890   28.4370 O.2   289  HIS289     -0.2867
    148  CB        60.7690  -21.5420   25.8050 C.3   289  HIS289      0.0745
    149  CG        59.4130  -20.9230   25.9630 C.ar  289  HIS289      0.0817
    150  ND1       59.1890  -19.5750   25.7860 N.ar  289  HIS289     -0.2268
    151  CD2       58.2330  -21.4500   26.3660 C.ar  289  HIS289      0.1154
    152  CE1       57.9200  -19.3030   26.0360 C.ar  289  HIS289      0.1986
    153  NE2       57.3210  -20.4220   26.3970 N.ar  289  HIS289     -0.2212
    154  N         58.1240  -22.4590   29.7770 N.3   291  GLY291     -0.1210
    155  CA        56.7200  -22.7930   29.5580 C.3   291  GLY291      0.1956
    156  C         55.9520  -22.9760   30.8520 C.2   291  GLY291      0.2612
    157  O         54.7790  -22.6000   30.9590 O.2   291  GLY291     -0.2717
    158  N         56.5960  -23.5780   31.8370 N.am  292  GLY292     -0.1942
    159  CA        56.1610  -23.5730   33.2090 C.3   292  GLY292      0.1998
    160  C         57.3520  -24.0350   34.0150 C.2   292  GLY292      0.2481
    161  O         58.4450  -24.2270   33.4660 O.2   292  GLY292     -0.2729
    162  N         57.1780  -24.2410   35.3220 N.am  293  PRO293     -0.2715
    163  CA        58.3180  -24.7160   36.1240 C.3   293  PRO293      0.1536
    164  C         58.7260  -26.1500   35.8090 C.2   293  PRO293      0.2598
    165  O         59.9100  -26.4760   35.9280 O.2   293  PRO293     -0.2715
    166  CB        57.8310  -24.5600   37.5760 C.3   293  PRO293      0.0310
    167  CG        56.3160  -24.4830   37.4790 C.3   293  PRO293      0.0237
    168  CD        56.0070  -23.8780   36.1390 C.3   293  PRO293      0.0939
    169  N         57.7940  -27.0160   35.3900 N.am  294  ALA294     -0.1964
    170  CA        58.1270  -28.4330   35.2820 C.3   294  ALA294      0.1728
    171  C         59.1110  -28.7140   34.1500 C.2   294  ALA294      0.2616
    172  O         59.9220  -29.6370   34.2680 O.2   294  ALA294     -0.2715
    173  CB        56.8600  -29.2650   35.1090 C.3   294  ALA294      0.0334
    174  N         59.0660  -27.9540   33.0510 N.am  295  VAL295     -0.1977
    175  CA        60.0030  -28.2320   31.9640 C.3   295  VAL295      0.1596
    176  C         61.4260  -27.8570   32.3750 C.2   295  VAL295      0.2287
    177  O         62.3830  -28.5530   32.0180 O.2   295  VAL295     -0.2864
    178  CB        59.5650  -27.5360   30.6530 C.3   295  VAL295      0.0276
    179  CG1       59.5030  -26.0420   30.8180 C.3   295  VAL295      0.0022
    180  CG2       60.5080  -27.8900   29.5140 C.3   295  VAL295      0.0022
    181  N         62.5480  -28.0390   35.4600 N.3   297  ARG297     -0.1245
    182  CA        62.9330  -29.0850   36.3980 C.3   297  ARG297      0.1563
    183  C         63.2760  -30.4090   35.7060 C.2   297  ARG297      0.2260
    184  O         64.1380  -31.1470   36.1990 O.2   297  ARG297     -0.2867
    185  CB        61.8170  -29.2930   37.4180 C.3   297  ARG297      0.0307
    186  CG        61.6090  -28.1250   38.3570 C.3   297  ARG297      0.0489
    187  CD        60.5250  -28.4850   39.3600 C.3   297  ARG297      0.2205
    188  NE        60.0950  -27.3610   40.1950 N.pl3 297  ARG297     -0.0865
    189  CZ        58.8300  -26.9640   40.3100 C.cat 297  ARG297      0.5346
    190  NH1       57.8730  -27.6020   39.6480 N.pl3 297  ARG297      0.1354
    191  NH2       58.5190  -25.9380   41.0930 N.pl3 297  ARG297      0.1354
    192  N         55.3460  -16.2370   31.5010 N.3   322  ASN322     -0.1240
    193  CA        55.4960  -16.8840   30.1900 C.3   322  ASN322      0.1653
    194  C         55.0480  -15.9010   29.1140 C.2   322  ASN322      0.2266
    195  O         53.8510  -15.7880   28.8150 O.2   322  ASN322     -0.2867
    196  CB        54.6950  -18.1850   30.1360 C.3   322  ASN322      0.1155
    197  CG        54.8590  -18.9410   28.8160 C.2   322  ASN322      0.2627
    198  OD1       55.4040  -18.4270   27.8400 O.2   322  ASN322     -0.2716
    199  ND2       54.3490  -20.1640   28.7780 N.am  322  ASN322     -0.0877
    200  N         59.6930  -23.9090   22.0230 N.3   359  PHE359     -0.1241
    201  CA        58.7390  -24.9460   21.6400 C.3   359  PHE359      0.1605
    202  C         57.3280  -24.3780   21.6670 C.2   359  PHE359      0.2264
    203  O         57.0670  -23.3400   22.2720 O.2   359  PHE359     -0.2867
    204  CB        58.8310  -26.1800   22.5410 C.3   359  PHE359      0.0534
    205  CG        58.7620  -25.8660   23.9920 C.ar  359  PHE359     -0.0203
    206  CD1       57.5360  -25.8010   24.6410 C.ar  359  PHE359     -0.0042
    207  CD2       59.9290  -25.6460   24.7180 C.ar  359  PHE359     -0.0042
    208  CE1       57.4790  -25.5130   25.9910 C.ar  359  PHE359     -0.0003
    209  CE2       59.8820  -25.3530   26.0660 C.ar  359  PHE359     -0.0003
    210  CZ        58.6620  -25.2870   26.7040 C.ar  359  PHE359     -0.0000
@<TRIPOS>BOND
     1   100    99    2
     2    44    45    1
     3    46    47    2
     4    46    45    1
     5    99    98    1
     6   201   202    1
     7   201   200    1
     8   201   204    1
     9   202   203    2
    10    45    48    1
    11   204   205    1
    12   103   101    1
    13    97    98    1
    14   101    98    1
    15   101   102    1
    16    48    49    1
    17   104   102    1
    18   205   206   ar
    19   205   207   ar
    20   206   208   ar
    21   207   209   ar
    22   150   149   ar
    23   150   152   ar
    24   148   149    1
    25   148   145    1
    26   149   151   ar
    27   208   210   ar
    28   152   153   ar
    29   209   210   ar
    30   136   134    1
    31   151   153   ar
    32   135   134    1
    33   112   110    1
    34   105   106    1
    35   144   145    1
    36   145   146    1
    37   117   118    1
    38   117   114    1
    39   134   131    1
    40    96    94   ar
    41    96    95   ar
    42   106   107    1
    43   106   109    1
    44   113   114    1
    45   113   107   am
    46    94    92   ar
    47    95    93   ar
    48   133   132    2
    49   131   132    1
    50   131   130    1
    51   110   109    1
    52   110   111    1
    53   198   197    2
    54   114   115    1
    55   107   108    2
    56    92    91   ar
    57    93    91   ar
    58   146   147    2
    59    64    63   ar
    60   132   137   am
    61    91    90    1
    62    63    65   ar
    63    63    62    1
    64   199   197   am
    65   195   194    2
    66   197   196    1
    67    62    59    1
    68   194   193    1
    69    90    87    1
    70   115   116    2
    71   115   119   am
    72   180   178    1
    73   155   154    1
    74   155   156    1
    75   137   138    1
    76   137   143    1
    77   140   139    2
    78   196   193    1
    79   193   192    1
    80    87    88    1
    81    87    86    1
    82   139   138    1
    83   138   141    1
    84    59    60    1
    85    59    58    1
    86   119   120    1
    87    60    61    2
    88    88    89    2
    89   143   142    1
    90   178   179    1
    91   178   175    1
    92   156   157    2
    93   156   158   am
    94    85    83    1
    95    58    52   am
    96   121   120    1
    97   121   122    2
    98    86    80   am
    99   120   123    1
   100   142   141    1
   101    83    82    1
   102   158   159    1
   103   175   176    1
   104   175   174    1
   105   177   176    2
   106    81    80    2
   107    80    79    1
   108    50    51    1
   109    71    70    1
   110    52    53    2
   111    52    51    1
   112   123   124    1
   113    68    69    2
   114    68    67    1
   115    70    67    1
   116    70    72    1
   117    82    79    1
   118    82    84    1
   119   174   171   am
   120   159   160    1
   121    51    54    1
   122    79    78    1
   123    67    66    1
   124   161   160    2
   125   124   125    1
   126    78    75   am
   127   160   162   am
   128    54    55    1
   129   171   172    2
   130   171   170    1
   131    73    74    1
   132   125   126    1
   133    55    57    1
   134    55    56    1
   135   173   170    1
   136    75    74    1
   137    75    76    2
   138   170   169    1
   139   162   163    1
   140   162   168    1
   141   169   164   am
   142   181   182    1
   143    74    77    1
   144   183   184    2
   145   183   182    1
   146   164   165    2
   147   164   163    1
   148   126   127    2
   149   163   166    1
   150   168   167    1
   151   182   185    1
   152   128   127    1
   153    28    27    1
   154   127   129    1
   155    27    26    1
   156   185   186    1
   157   167   166    1
   158    41    40    2
   159   186   187    1
   160    42    39    1
   161    42    43    1
   162    26    25    1
   163    39    40    1
   164    39    38    1
   165    25    22    1
   166     7     8    1
   167     7     6    1
   168   187   188    1
   169     9     8    1
   170   190   189    1
   171    24    23    2
   172    22    23    1
   173    22    21    1
   174    38    31   am
   175   188   189    2
   176     6     5    1
   177    32    31    2
   178   189   191    1
   179    31    30    1
   180     4     3    2
   181     5     2    1
   182    21    12   am
   183     3     2    1
   184    33    30    1
   185    33    34    1
   186    30    29    1
   187     2     1    1
   188    12    13    2
   189    12    11    1
   190    35    34    1
   191    35    36    1
   192    10    11    1
   193    11    14    1
   194    37    36    1
   195    14    15    1
   196    20    18    1
   197    17    18    2
   198    17    16    1
   199    18    19    1
   200    15    16    1
