@<TRIPOS>MOLECULE
tmp/5wxsA00.pdb
 164 162 0 0 0
SMALL
GASTEIGER

@<TRIPOS>ATOM
      1  N         -2.7520  -25.2450  -17.0800 N.3    31  CYS31      -0.1235
      2  CA        -2.4520  -26.6620  -16.9090 C.3    31  CYS31       0.1677
      3  C         -3.1840  -27.2630  -15.7210 C.2    31  CYS31       0.2270
      4  O         -3.6700  -26.5620  -14.8740 O.2    31  CYS31      -0.2867
      5  CB        -0.9650  -26.8040  -16.6440 C.3    31  CYS31       0.0956
      6  SG         0.0900  -26.9360  -18.0970 S.3    31  CYS31      -0.0801
      7  N          7.1490  -27.5770  -17.4130 N.3    46  HIS46      -0.1241
      8  CA         7.0190  -26.8990  -18.7160 C.3    46  HIS46       0.1621
      9  C          5.7810  -26.0550  -18.7980 C.2    46  HIS46       0.2264
     10  O          5.6620  -25.2130  -19.6900 O.2    46  HIS46      -0.2867
     11  CB         7.0630  -27.8770  -19.8950 C.3    46  HIS46       0.0745
     12  CG         5.7430  -28.4820  -20.2580 C.ar   46  HIS46       0.0817
     13  ND1        5.3690  -29.7450  -19.8540 N.ar   46  HIS46      -0.2268
     14  CD2        4.7330  -28.0220  -21.0350 C.ar   46  HIS46       0.1154
     15  CE1        4.1860  -30.0340  -20.3630 C.ar   46  HIS46       0.1986
     16  NE2        3.7740  -29.0030  -21.0760 N.ar   46  HIS46      -0.2212
     17  N         12.0710  -30.6100  -29.0600 N.3    91  THR91      -0.1203
     18  CA        10.8220  -30.3060  -29.7600 C.3    91  THR91       0.1994
     19  C          9.7150  -31.2630  -29.3540 C.2    91  THR91       0.2617
     20  O          8.5420  -30.9850  -29.5590 O.2    91  THR91      -0.2717
     21  CB        10.9760  -30.3830  -31.2780 C.3    91  THR91       0.1784
     22  OG1       12.3590  -30.2880  -31.6090 O.3    91  THR91      -0.2211
     23  CG2       10.2350  -29.2580  -31.9150 C.3    91  THR91       0.0376
     24  N         10.1240  -32.4210  -28.8510 N.am   92  LEU92      -0.1979
     25  CA         9.2300  -33.4890  -28.4980 C.3    92  LEU92       0.1596
     26  C          9.1330  -33.7660  -27.0200 C.2    92  LEU92       0.2287
     27  O          8.0970  -33.5840  -26.4400 O.2    92  LEU92      -0.2864
     28  CB         9.7380  -34.7450  -29.1690 C.3    92  LEU92       0.0297
     29  CG         8.8410  -35.9450  -29.3640 C.3    92  LEU92       0.0022
     30  CD1        8.6590  -36.1510  -30.8440 C.3    92  LEU92       0.0001
     31  CD2        9.5950  -37.1230  -28.8210 C.3    92  LEU92       0.0001
     32  N         10.0860  -33.9590  -22.8120 N.3    94  HIS94      -0.1241
     33  CA        10.4090  -33.0930  -21.7020 C.3    94  HIS94       0.1621
     34  C         10.9420  -33.8580  -20.5210 C.2    94  HIS94       0.2264
     35  O         10.3580  -34.8150  -20.1180 O.2    94  HIS94      -0.2867
     36  CB         9.1880  -32.2940  -21.3010 C.3    94  HIS94       0.0745
     37  CG         8.6670  -31.4060  -22.3740 C.ar   94  HIS94       0.0817
     38  ND1        8.4800  -30.0640  -22.1900 N.ar   94  HIS94      -0.2268
     39  CD2        8.2880  -31.6630  -23.6400 C.ar   94  HIS94       0.1154
     40  CE1        8.0160  -29.5270  -23.2940 C.ar   94  HIS94       0.1986
     41  NE2        7.8900  -30.4770  -24.1900 N.ar   94  HIS94      -0.2212
     42  N         -6.3720  -40.7890  -25.2360 N.3   192  ASP192     -0.1225
     43  CA        -5.1170  -40.3120  -24.7310 C.3   192  ASP192      0.1805
     44  C         -5.2590  -38.9080  -24.1930 C.2   192  ASP192      0.2598
     45  O         -6.2620  -38.2900  -24.3760 O.2   192  ASP192     -0.2718
     46  CB        -4.1440  -40.3040  -25.9110 C.3   192  ASP192      0.1424
     47  CG        -2.7250  -40.1910  -25.5070 C.2   192  ASP192      0.3668
     48  OD1       -2.3920  -40.3450  -24.3520 O.co2 192  ASP192     -0.2456
     49  OD2       -1.9120  -39.9550  -26.3740 O.co2 192  ASP192     -0.2456
     50  N         -4.2170  -38.4140  -23.5470 N.am  193  SER193     -0.1938
     51  CA        -4.1400  -37.0470  -23.0710 C.3   193  SER193      0.2055
     52  C         -3.6720  -36.1960  -24.2540 C.2   193  SER193      0.2643
     53  O         -3.2790  -36.7340  -25.2480 O.2   193  SER193     -0.2714
     54  CB        -3.2290  -36.9230  -21.8730 C.3   193  SER193      0.2130
     55  OG        -1.9290  -37.2980  -22.1940 O.3   193  SER193     -0.2179
     56  N         -4.0530  -34.9480  -24.2560 N.am  194  CYS194     -0.1953
     57  CA        -3.6810  -34.0590  -25.3330 C.3   194  CYS194      0.1843
     58  C         -3.3180  -32.7010  -24.7600 C.2   194  CYS194      0.2625
     59  O         -3.3320  -32.5340  -23.5830 O.2   194  CYS194     -0.2714
     60  CB        -4.8270  -33.9520  -26.3330 C.3   194  CYS194      0.0997
     61  SG        -4.6980  -33.5390  -28.0870 S.3   194  CYS194     -0.0797
     62  N         -2.6890  -31.6660  -25.4980 N.am  195  GLN195     -0.1963
     63  CA        -2.3350  -30.3250  -25.0530 C.3   195  GLN195      0.1733
     64  C         -3.4580  -29.7770  -24.2040 C.2   195  GLN195      0.2616
     65  O         -4.5990  -29.9230  -24.5250 O.2   195  GLN195     -0.2715
     66  CB        -2.0690  -29.4200  -26.2460 C.3   195  GLN195      0.0408
     67  CG        -0.6940  -29.5990  -26.8600 C.3   195  GLN195      0.0908
     68  CD        -0.4990  -30.9220  -27.5880 C.2   195  GLN195      0.2608
     69  OE1       -1.2960  -31.3050  -28.4050 O.2   195  GLN195     -0.2717
     70  NE2        0.5760  -31.6020  -27.2900 N.am  195  GLN195     -0.0878
     71  N         -3.0880  -29.1510  -23.1010 N.am  196  GLY196     -0.1955
     72  CA        -4.0210  -28.6950  -22.0730 C.3   196  GLY196      0.1869
     73  C         -4.1320  -29.6430  -20.8840 C.2   196  GLY196      0.2309
     74  O         -4.4550  -29.2120  -19.7780 O.2   196  GLY196     -0.2863
     75  N         -1.5060  -31.2430  -19.6360 N.3   198  SER198     -0.1217
     76  CA        -0.2280  -31.3000  -18.9590 C.3   198  SER198      0.1889
     77  C         -0.2870  -30.7520  -17.5450 C.2   198  SER198      0.2288
     78  O         -1.0150  -29.8560  -17.2700 O.2   198  SER198     -0.2866
     79  CB         0.8530  -30.5850  -19.7680 C.3   198  SER198      0.2089
     80  OG         0.8560  -30.6780  -21.1380 O.3   198  SER198     -0.2183
     81  N          1.1360  -35.6670  -16.3750 N.3   216  VAL216     -0.1231
     82  CA         1.0210  -35.5680  -17.8200 C.3   216  VAL216      0.1692
     83  C          2.1400  -34.6250  -18.3130 C.2   216  VAL216      0.2593
     84  O          2.2140  -33.4590  -17.8930 O.2   216  VAL216     -0.2718
     85  CB        -0.3730  -35.0530  -18.2650 C.3   216  VAL216      0.0266
     86  CG1       -0.4830  -35.0170  -19.7850 C.3   216  VAL216      0.0020
     87  CG2       -1.4930  -35.9170  -17.7020 C.3   216  VAL216      0.0020
     88  N          2.9930  -35.1330  -19.2100 N.am  217  SER217     -0.1938
     89  CA         4.1710  -34.3890  -19.7120 C.3   217  SER217      0.2055
     90  C          4.1440  -34.1320  -21.2300 C.2   217  SER217      0.2643
     91  O          4.0880  -32.9840  -21.6720 O.2   217  SER217     -0.2714
     92  CB         5.4580  -35.1430  -19.3210 C.3   217  SER217      0.2130
     93  OG         6.5850  -34.2960  -19.2850 O.3   217  SER217     -0.2179
     94  N          4.2620  -35.1950  -22.0120 N.am  218  TRP218     -0.1959
     95  CA         4.3590  -35.1000  -23.4560 C.3   218  TRP218      0.1771
     96  C          4.0020  -36.3410  -24.2190 C.2   218  TRP218      0.2620
     97  O          3.7810  -37.3780  -23.6590 O.2   218  TRP218     -0.2715
     98  CB         5.7780  -34.6810  -23.8760 C.3   218  TRP218      0.0590
     99  CG         6.8850  -35.6270  -23.5010 C.ar  218  TRP218      0.0006
    100  CD1        7.5190  -35.6920  -22.3300 C.ar  218  TRP218      0.0946
    101  CD2        7.4640  -36.6240  -24.3190 C.ar  218  TRP218      0.0152
    102  NE1        8.4500  -36.6620  -22.3490 N.ar  218  TRP218     -0.2442
    103  CE2        8.4310  -37.2580  -23.5660 C.ar  218  TRP218      0.0810
    104  CE3        7.2460  -37.0470  -25.6190 C.ar  218  TRP218      0.0012
    105  CZ2        9.1770  -38.2760  -24.0510 C.ar  218  TRP218      0.0191
    106  CZ3        7.9760  -38.0530  -26.0930 C.ar  218  TRP218      0.0001
    107  CH2        8.9370  -38.6630  -25.3200 C.ar  218  TRP218      0.0015
    108  N          3.9340  -36.1920  -25.5250 N.am  219  GLY219     -0.1940
    109  CA         3.6520  -37.2650  -26.4340 C.3   219  GLY219      0.2014
    110  C          3.8360  -36.6980  -27.8060 C.2   219  GLY219      0.2639
    111  O          4.0100  -35.5170  -27.9280 O.2   219  GLY219     -0.2714
    112  N          3.7880  -37.5290  -28.8360 N.am  220  ARG220     -0.1963
    113  CA         3.8620  -37.0500  -30.2090 C.3   220  ARG220      0.1729
    114  C          2.4290  -37.0700  -30.6880 C.2   220  ARG220      0.2617
    115  O          1.8800  -38.1120  -30.8840 O.2   220  ARG220     -0.2715
    116  CB         4.7340  -37.9530  -31.0800 C.3   220  ARG220      0.0348
    117  CG         4.4160  -37.8890  -32.5560 C.3   220  ARG220      0.0492
    118  CD         5.6270  -37.9830  -33.4520 C.3   220  ARG220      0.2205
    119  NE         6.0310  -36.6700  -33.9150 N.pl3 220  ARG220     -0.0865
    120  CZ         5.2400  -35.8470  -34.5870 C.cat 220  ARG220      0.5346
    121  NH1        3.9950  -36.1960  -34.8640 N.pl3 220  ARG220      0.1354
    122  NH2        5.6890  -34.6680  -34.9750 N.pl3 220  ARG220      0.1354
    123  N          1.8320  -35.9020  -30.8610 N.am  221  GLY221     -0.1940
    124  CA         0.4470  -35.8080  -31.2560 C.3   221  GLY221      0.2014
    125  C         -0.3800  -36.2040  -30.0570 C.2   221  GLY221      0.2639
    126  O          0.1160  -36.2120  -28.9590 O.2   221  GLY221     -0.2714
    127  N         -1.6440  -36.5210  -30.2670 N.am  222  CYS222     -0.1953
    128  CA        -2.5300  -36.9750  -29.2110 C.3   222  CYS222      0.1843
    129  C         -3.2280  -38.2160  -29.8050 C.2   222  CYS222      0.2625
    130  O         -3.7370  -38.1500  -30.8910 O.2   222  CYS222     -0.2714
    131  CB        -3.5850  -35.9130  -28.8460 C.3   222  CYS222      0.0997
    132  SG        -2.9530  -34.3390  -28.1090 S.3   222  CYS222     -0.0797
    133  N         -3.2640  -39.3390  -29.1070 N.am  223  ALA223     -0.1977
    134  CA        -3.9220  -40.5720  -29.5780 C.3   223  ALA223      0.1597
    135  C         -3.5570  -41.0790  -30.9670 C.2   223  ALA223      0.2287
    136  O         -4.3860  -41.4310  -31.7430 O.2   223  ALA223     -0.2864
    137  CB        -5.4180  -40.4560  -29.4450 C.3   223  ALA223      0.0319
    138  N          2.4140  -44.1560  -30.5380 N.3   227  LYS227     -0.1231
    139  CA         2.9220  -42.9840  -29.8890 C.3   227  LYS227      0.1678
    140  C          2.2240  -42.7170  -28.5710 C.2   227  LYS227      0.2434
    141  O          1.3870  -41.8540  -28.4840 O.2   227  LYS227     -0.2733
    142  CB         2.7690  -41.8050  -30.8300 C.3   227  LYS227      0.0284
    143  CG         3.6050  -41.9160  -32.0880 C.3   227  LYS227      0.0035
    144  CD         5.0120  -42.3680  -31.7340 C.3   227  LYS227      0.0206
    145  CE         5.9340  -42.5190  -32.9400 C.3   227  LYS227      0.1093
    146  NZ         7.1070  -43.3980  -32.6510 N.3   227  LYS227     -0.1314
    147  N          2.5840  -43.4590  -27.5430 N.am  228  PRO228     -0.2718
    148  CA         1.9030  -43.3830  -26.2430 C.3   228  PRO228      0.1535
    149  C          2.0720  -42.0550  -25.4800 C.2   228  PRO228      0.2599
    150  O          2.9250  -41.2410  -25.8200 O.2   228  PRO228     -0.2715
    151  CB         2.5440  -44.5250  -25.4460 C.3   228  PRO228      0.0310
    152  CG         3.8570  -44.7560  -26.0790 C.3   228  PRO228      0.0237
    153  CD         3.6590  -44.4680  -27.5340 C.3   228  PRO228      0.0939
    154  N          1.2350  -41.8400  -24.4670 N.am  229  GLY229     -0.1941
    155  CA         1.3790  -40.6770  -23.5890 C.3   229  GLY229      0.2014
    156  C          2.6160  -40.8710  -22.7290 C.2   229  GLY229      0.2638
    157  O          2.9110  -41.9990  -22.3270 O.2   229  GLY229     -0.2714
    158  N          3.3590  -39.7930  -22.4710 N.am  230  VAL230     -0.1977
    159  CA         4.5200  -39.8710  -21.5850 C.3   230  VAL230      0.1596
    160  C          4.2880  -39.0020  -20.3750 C.2   230  VAL230      0.2287
    161  O          3.7800  -37.8960  -20.4760 O.2   230  VAL230     -0.2864
    162  CB         5.8440  -39.4420  -22.2590 C.3   230  VAL230      0.0276
    163  CG1        7.0260  -39.8830  -21.3970 C.3   230  VAL230      0.0022
    164  CG2        5.9450  -40.0030  -23.6680 C.3   230  VAL230      0.0022
@<TRIPOS>BOND
     1   122   120    1
     2   121   120    1
     3   120   119    2
     4   119   118    1
     5   118   117    1
     6   145   146    1
     7   145   144    1
     8   117   116    1
     9   143   144    1
    10   143   142    1
    11    23    21    1
    12   136   135    2
    13    22    21    1
    14    21    18    1
    15   124   123    1
    16   124   125    1
    17   116   113    1
    18   135   134    1
    19   130   129    2
    20   115   114    2
    21   123   114   am
    22    30    29    1
    23   142   139    1
    24   114   113    1
    25   138   139    1
    26   127   125   am
    27   127   128    1
    28   113   112    1
    29   125   126    2
    30   139   140    1
    31   129   128    1
    32   129   133   am
    33    18    19    1
    34    18    17    1
    35   134   137    1
    36   134   133    1
    37    20    19    2
    38    29    28    1
    39    29    31    1
    40    19    24   am
    41   128   131    1
    42    28    25    1
    43    24    25    1
    44   131   132    1
    45   112   110   am
    46   140   141    2
    47   140   147   am
    48    25    26    1
    49    69    68    2
    50   132    61    1
    51    61    60    1
    52   111   110    2
    53   110   109    1
    54    68    70   am
    55    68    67    1
    56   147   153    1
    57   147   148    1
    58   153   152    1
    59    26    27    2
    60    67    66    1
    61   109   108    1
    62    49    47   ar
    63    60    57    1
    64    66    63    1
    65   148   149    1
    66   148   151    1
    67   106   104   ar
    68   106   107   ar
    69   152   151    1
    70    46    47    1
    71    46    43    1
    72   150   149    2
    73   104   101   ar
    74   108    96   am
    75    47    48   ar
    76    62    63    1
    77    62    58   am
    78   149   154   am
    79    57    58    1
    80    57    56    1
    81   107   105   ar
    82    53    52    2
    83    42    43    1
    84    63    64    1
    85    58    59    2
    86    43    44    1
    87    65    64    2
    88   154   155    1
    89    45    44    2
    90   101   103   ar
    91   101    99   ar
    92    56    52   am
    93    52    51    1
    94    96    97    2
    95    96    95    1
    96    64    71   am
    97    44    50   am
    98    41    39   ar
    99    41    40   ar
   100   105   103   ar
   101    98    99    1
   102    98    95    1
   103   164   162    1
   104    39    37   ar
   105   155   156    1
   106   103   102   ar
   107    50    51    1
   108    99   100   ar
   109    95    94    1
   110    40    38   ar
   111    71    72    1
   112    51    54    1
   113    32    33    1
   114   156   158   am
   115   156   157    2
   116   158   159    1
   117    37    38   ar
   118    37    36    1
   119   102   100   ar
   120   162   159    1
   121   162   163    1
   122    55    54    1
   123    72    73    1
   124    94    90   am
   125    33    36    1
   126    33    34    1
   127    91    90    2
   128   159   160    1
   129    90    89    1
   130    80    79    1
   131    16    14   ar
   132    16    15   ar
   133    14    12   ar
   134    73    74    2
   135    34    35    2
   136   161   160    2
   137    15    13   ar
   138    12    11    1
   139    12    13   ar
   140    11     8    1
   141    86    85    1
   142    79    76    1
   143    89    92    1
   144    89    88    1
   145    10     9    2
   146    75    76    1
   147    92    93    1
   148    88    83   am
   149    76    77    1
   150     9     8    1
   151     8     7    1
   152    83    84    2
   153    83    82    1
   154    85    82    1
   155    85    87    1
   156     6     5    1
   157    82    81    1
   158    77    78    2
   159     1     2    1
   160     2     5    1
   161     2     3    1
   162     3     4    2
