@<TRIPOS>MOLECULE
tmp/5wxtA00.pdb
 203 202 0 0 0
SMALL
GASTEIGER

@<TRIPOS>ATOM
      1  N         -3.8880  -23.0450  -17.8290 N.3    30  VAL30      -0.1231
      2  CA        -2.5110  -23.4590  -18.0610 C.3    30  VAL30       0.1692
      3  C         -2.3680  -24.9810  -18.1630 C.2    30  VAL30       0.2592
      4  O         -1.9890  -25.5070  -19.2060 O.2    30  VAL30      -0.2718
      5  CB        -1.6030  -22.9200  -16.9250 C.3    30  VAL30       0.0266
      6  CG1       -0.1910  -23.4440  -17.0610 C.3    30  VAL30       0.0020
      7  CG2       -1.5860  -21.4000  -16.9500 C.3    30  VAL30       0.0020
      8  N         -2.6450  -25.6740  -17.0610 N.am   31  CYS31      -0.1970
      9  CA        -2.3420  -27.0810  -16.9190 C.3    31  CYS31       0.1712
     10  C         -3.1050  -27.6480  -15.7460 C.2    31  CYS31       0.2296
     11  O         -3.5590  -26.9080  -14.9050 O.2    31  CYS31      -0.2864
     12  CB        -0.8630  -27.2740  -16.6120 C.3    31  CYS31       0.0983
     13  SG         0.1870  -27.2550  -18.0690 S.3    31  CYS31      -0.0798
     14  N          7.1620  -27.8820  -17.4380 N.3    46  HIS46      -0.1226
     15  CA         7.0620  -27.2250  -18.7520 C.3    46  HIS46       0.1752
     16  C          5.8100  -26.3670  -18.9190 C.2    46  HIS46       0.2596
     17  O          5.7170  -25.5440  -19.8470 O.2    46  HIS46      -0.2718
     18  CB         7.2000  -28.2360  -19.9080 C.3    46  HIS46       0.0759
     19  CG         5.9290  -28.9110  -20.3240 C.ar   46  HIS46       0.0818
     20  ND1        5.6750  -30.2410  -20.0530 N.ar   46  HIS46      -0.2268
     21  CD2        4.8660  -28.4660  -21.0350 C.ar   46  HIS46       0.1154
     22  CE1        4.5050  -30.5800  -20.5620 C.ar   46  HIS46       0.1986
     23  NE2        3.9940  -29.5210  -21.1670 N.ar   46  HIS46      -0.2212
     24  N          4.8570  -26.5500  -18.0370 N.am   47  CYS47      -0.1970
     25  CA         3.6770  -25.7180  -17.9840 C.3    47  CYS47       0.1712
     26  C          4.0440  -24.2710  -17.6770 C.2    47  CYS47       0.2296
     27  O          3.3810  -23.3760  -18.1180 O.2    47  CYS47      -0.2864
     28  CB         2.6870  -26.2530  -16.9500 C.3    47  CYS47       0.0983
     29  SG         1.8180  -27.7460  -17.4230 S.3    47  CYS47      -0.0798
     30  N          8.1460  -21.0620  -19.3540 N.3    50  ASP50      -0.1239
     31  CA         8.0360  -19.7890  -20.0490 C.3    50  ASP50       0.1674
     32  C          7.6110  -18.5410  -19.2490 C.2    50  ASP50       0.2266
     33  O          7.8160  -17.4490  -19.7080 O.2    50  ASP50      -0.2867
     34  CB         7.1420  -19.9260  -21.2630 C.3    50  ASP50       0.1410
     35  CG         7.6770  -20.8930  -22.2710 C.2    50  ASP50       0.3668
     36  OD1        8.8960  -21.0170  -22.3910 O.co2  50  ASP50      -0.2456
     37  OD2        6.8780  -21.5360  -22.9710 O.co2  50  ASP50      -0.2456
     38  N         13.7850  -32.8460  -28.6220 N.3    91  THR91      -0.1203
     39  CA        12.8460  -32.8640  -29.7480 C.3    91  THR91       0.1994
     40  C         11.4070  -33.1790  -29.3200 C.2    91  THR91       0.2617
     41  O         10.4520  -32.5630  -29.7550 O.2    91  THR91      -0.2717
     42  CB        13.2610  -33.9050  -30.8210 C.3    91  THR91       0.1784
     43  OG1       14.2050  -34.8380  -30.2760 O.3    91  THR91      -0.2211
     44  CG2       13.8670  -33.2380  -31.9830 C.3    91  THR91       0.0376
     45  N         11.2590  -34.1630  -28.4570 N.am   92  LEU92      -0.1979
     46  CA         9.9540  -34.5360  -27.9760 C.3    92  LEU92       0.1596
     47  C          9.9520  -34.5270  -26.4900 C.2    92  LEU92       0.2287
     48  O          9.1440  -33.9370  -25.8640 O.2    92  LEU92      -0.2864
     49  CB         9.6590  -35.9540  -28.4150 C.3    92  LEU92       0.0297
     50  CG         8.6260  -36.1540  -29.4760 C.3    92  LEU92       0.0022
     51  CD1        8.9640  -35.1960  -30.5720 C.3    92  LEU92       0.0001
     52  CD2        8.7640  -37.5610  -29.9700 C.3    92  LEU92       0.0001
     53  N         10.4060  -34.4530  -22.5810 N.3    94  HIS94      -0.1241
     54  CA        10.6690  -33.4940  -21.5640 C.3    94  HIS94       0.1621
     55  C         11.1750  -34.2800  -20.4090 C.2    94  HIS94       0.2264
     56  O         10.5700  -35.2050  -19.9710 O.2    94  HIS94      -0.2867
     57  CB         9.4310  -32.6940  -21.1970 C.3    94  HIS94       0.0745
     58  CG         8.8910  -31.8720  -22.3100 C.ar   94  HIS94       0.0817
     59  ND1        8.7050  -30.5200  -22.2130 N.ar   94  HIS94      -0.2268
     60  CD2        8.4830  -32.2140  -23.5450 C.ar   94  HIS94       0.1154
     61  CE1        8.2050  -30.0640  -23.3400 C.ar   94  HIS94       0.1986
     62  NE2        8.0560  -31.0730  -24.1630 N.ar   94  HIS94      -0.2212
     63  N        -10.7000  -25.8870  -25.5490 N.3   150  TYR150     -0.1241
     64  CA       -10.7410  -26.9690  -24.5670 C.3   150  TYR150      0.1605
     65  C        -12.2020  -27.2210  -24.2050 C.2   150  TYR150      0.2264
     66  O        -13.0340  -26.3180  -24.3620 O.2   150  TYR150     -0.2867
     67  CB        -9.9910  -26.5830  -23.2980 C.3   150  TYR150      0.0534
     68  CG        -8.5040  -26.3830  -23.4280 C.ar  150  TYR150     -0.0201
     69  CD1       -7.7470  -27.1520  -24.2950 C.ar  150  TYR150     -0.0009
     70  CD2       -7.8380  -25.4500  -22.6240 C.ar  150  TYR150     -0.0009
     71  CE1       -6.3720  -26.9850  -24.4000 C.ar  150  TYR150      0.0417
     72  CE2       -6.4600  -25.2610  -22.7340 C.ar  150  TYR150      0.0417
     73  CZ        -5.7340  -26.0470  -23.6220 C.ar  150  TYR150      0.1957
     74  OH        -4.3730  -25.9070  -23.7580 O.3   150  TYR150     -0.2866
     75  N         -6.4260  -40.9730  -25.2230 N.3   192  ASP192     -0.1225
     76  CA        -5.1510  -40.4700  -24.7800 C.3   192  ASP192      0.1805
     77  C         -5.3360  -39.1330  -24.0620 C.2   192  ASP192      0.2598
     78  O         -6.3910  -38.4940  -24.1640 O.2   192  ASP192     -0.2718
     79  CB        -4.2310  -40.2880  -26.0150 C.3   192  ASP192      0.1424
     80  CG        -2.7480  -40.3010  -25.6660 C.2   192  ASP192      0.3668
     81  OD1       -2.3930  -40.4490  -24.4760 O.co2 192  ASP192     -0.2456
     82  OD2       -1.9200  -40.1730  -26.5990 O.co2 192  ASP192     -0.2456
     83  N         -4.3090  -38.7160  -23.3370 N.am  193  SER193     -0.1938
     84  CA        -4.1870  -37.3210  -22.9280 C.3   193  SER193      0.2055
     85  C         -3.7130  -36.4890  -24.1230 C.2   193  SER193      0.2643
     86  O         -3.2570  -37.0460  -25.1200 O.2   193  SER193     -0.2714
     87  CB        -3.2020  -37.2070  -21.7930 C.3   193  SER193      0.2130
     88  OG        -2.0390  -37.9600  -22.0890 O.3   193  SER193     -0.2179
     89  N         -3.8490  -35.1660  -24.0340 N.am  194  CYS194     -0.1953
     90  CA        -3.4930  -34.2900  -25.1440 C.3   194  CYS194      0.1843
     91  C         -3.0610  -32.9370  -24.6160 C.2   194  CYS194      0.2625
     92  O         -2.9210  -32.7630  -23.4020 O.2   194  CYS194     -0.2714
     93  CB        -4.6690  -34.1280  -26.1180 C.3   194  CYS194      0.0997
     94  SG        -4.2110  -33.5390  -27.7810 S.3   194  CYS194     -0.0797
     95  N         -2.8370  -31.9940  -25.5370 N.am  195  GLN195     -0.1963
     96  CA        -2.5100  -30.6070  -25.1930 C.3   195  GLN195      0.1733
     97  C         -3.5700  -30.0450  -24.2660 C.2   195  GLN195      0.2616
     98  O         -4.7470  -30.0900  -24.5840 O.2   195  GLN195     -0.2715
     99  CB        -2.4300  -29.7530  -26.4650 C.3   195  GLN195      0.0408
    100  CG        -1.8440  -28.3640  -26.2690 C.3   195  GLN195      0.0908
    101  CD        -1.7000  -27.6010  -27.5860 C.2   195  GLN195      0.2608
    102  OE1       -1.7550  -28.1890  -28.6770 O.2   195  GLN195     -0.2717
    103  NE2       -1.5230  -26.2850  -27.4940 N.am  195  GLN195     -0.0878
    104  N         -3.1440  -29.5350  -23.1160 N.am  196  GLY196     -0.1955
    105  CA        -4.0620  -29.0540  -22.0790 C.3   196  GLY196      0.1869
    106  C         -4.1720  -29.9620  -20.8530 C.2   196  GLY196      0.2309
    107  O         -4.6480  -29.5330  -19.8080 O.2   196  GLY196     -0.2863
    108  N         -1.4060  -31.6330  -19.6150 N.3   198  ALA198     -0.1245
    109  CA        -0.1400  -31.6760  -18.8970 C.3   198  ALA198      0.1562
    110  C         -0.2720  -31.2620  -17.4230 C.2   198  ALA198      0.2260
    111  O         -1.1450  -30.4650  -17.0580 O.2   198  ALA198     -0.2867
    112  CB         0.9280  -30.8550  -19.6030 C.3   198  ALA198      0.0290
    113  N          1.0950  -36.2690  -16.4280 N.3   216  VAL216     -0.1231
    114  CA         0.9940  -36.0980  -17.8750 C.3   216  VAL216      0.1692
    115  C          2.1420  -35.1790  -18.3280 C.2   216  VAL216      0.2593
    116  O          2.3080  -34.0650  -17.7880 O.2   216  VAL216     -0.2718
    117  CB        -0.3470  -35.4600  -18.2970 C.3   216  VAL216      0.0266
    118  CG1       -0.3680  -35.1890  -19.7910 C.3   216  VAL216      0.0020
    119  CG2       -1.5510  -36.3120  -17.9000 C.3   216  VAL216      0.0020
    120  N          2.9150  -35.6420  -19.3150 N.am  217  SER217     -0.1938
    121  CA         4.1040  -34.9120  -19.8070 C.3   217  SER217      0.2055
    122  C          4.0790  -34.6310  -21.3070 C.2   217  SER217      0.2643
    123  O          3.9290  -33.4860  -21.7070 O.2   217  SER217     -0.2714
    124  CB         5.4040  -35.6410  -19.4590 C.3   217  SER217      0.2130
    125  OG         6.5210  -34.7670  -19.6020 O.3   217  SER217     -0.2179
    126  N          4.2230  -35.6640  -22.1330 N.am  218  TRP218     -0.1959
    127  CA         4.3530  -35.4570  -23.5690 C.3   218  TRP218      0.1771
    128  C          4.0020  -36.7250  -24.3130 C.2   218  TRP218      0.2620
    129  O          3.8650  -37.7800  -23.7230 O.2   218  TRP218     -0.2715
    130  CB         5.7910  -34.9870  -23.9350 C.3   218  TRP218      0.0590
    131  CG         6.8690  -35.9860  -23.5690 C.ar  218  TRP218      0.0006
    132  CD1        7.4570  -36.1380  -22.3640 C.ar  218  TRP218      0.0946
    133  CD2        7.4450  -36.9900  -24.4280 C.ar  218  TRP218      0.0152
    134  NE1        8.3750  -37.1680  -22.4000 N.ar  218  TRP218     -0.2442
    135  CE2        8.3890  -37.7050  -23.6590 C.ar  218  TRP218      0.0810
    136  CE3        7.2550  -37.3460  -25.7690 C.ar  218  TRP218      0.0012
    137  CZ2        9.1470  -38.7690  -24.1840 C.ar  218  TRP218      0.0191
    138  CZ3        7.9940  -38.3970  -26.2930 C.ar  218  TRP218      0.0001
    139  CH2        8.9430  -39.0950  -25.4980 C.ar  218  TRP218      0.0015
    140  N          3.8130  -36.5920  -25.6130 N.am  219  GLY219     -0.1940
    141  CA         3.6080  -37.6800  -26.5470 C.3   219  GLY219      0.2014
    142  C          3.8970  -37.1320  -27.9270 C.2   219  GLY219      0.2639
    143  O          4.0810  -35.9710  -28.0240 O.2   219  GLY219     -0.2714
    144  N          3.9580  -37.9490  -28.9740 N.am  220  ARG220     -0.1963
    145  CA         3.9600  -37.4180  -30.3320 C.3   220  ARG220      0.1729
    146  C          2.5430  -37.4010  -30.8180 C.2   220  ARG220      0.2617
    147  O          1.9720  -38.4420  -31.0210 O.2   220  ARG220     -0.2715
    148  CB         4.8020  -38.2800  -31.2690 C.3   220  ARG220      0.0348
    149  CG         4.5070  -38.1260  -32.7550 C.3   220  ARG220      0.0492
    150  CD         5.4800  -37.2200  -33.4950 C.3   220  ARG220      0.2205
    151  NE         5.1280  -35.8120  -33.3590 N.pl3 220  ARG220     -0.0865
    152  CZ         4.0460  -35.2250  -33.8610 C.cat 220  ARG220      0.5346
    153  NH1        3.1710  -35.8860  -34.5850 N.pl3 220  ARG220      0.1354
    154  NH2        3.8400  -33.9450  -33.6380 N.pl3 220  ARG220      0.1354
    155  N          1.9810  -36.2180  -30.9940 N.am  221  GLY221     -0.1940
    156  CA         0.5880  -36.0790  -31.3300 C.3   221  GLY221      0.2014
    157  C         -0.2700  -36.4690  -30.1530 C.2   221  GLY221      0.2639
    158  O          0.2050  -36.5300  -29.0730 O.2   221  GLY221     -0.2714
    159  N         -1.5330  -36.7660  -30.3900 N.am  222  CYS222     -0.1967
    160  CA        -2.4060  -37.3410  -29.3710 C.3   222  CYS222      0.1712
    161  C         -3.1320  -38.5730  -29.9010 C.2   222  CYS222      0.2296
    162  O         -3.7410  -38.5060  -30.9350 O.2   222  CYS222     -0.2864
    163  CB        -3.4330  -36.3120  -28.9100 C.3   222  CYS222      0.0983
    164  SG        -2.7570  -34.8090  -28.2290 S.3   222  CYS222     -0.0798
    165  N          2.4980  -44.3550  -30.6540 N.3   227  LYS227     -0.1231
    166  CA         3.0300  -43.2240  -29.9440 C.3   227  LYS227      0.1678
    167  C          2.2830  -43.0270  -28.6380 C.2   227  LYS227      0.2434
    168  O          1.3910  -42.2460  -28.5610 O.2   227  LYS227     -0.2733
    169  CB         2.9310  -41.9910  -30.8190 C.3   227  LYS227      0.0284
    170  CG         3.5630  -42.1180  -32.1950 C.3   227  LYS227      0.0035
    171  CD         5.0720  -42.2240  -32.1220 C.3   227  LYS227      0.0206
    172  CE         5.6950  -42.7500  -33.4090 C.3   227  LYS227      0.1093
    173  NZ         7.1260  -43.1110  -33.2510 N.3   227  LYS227     -0.1314
    174  N          2.6470  -43.7520  -27.6080 N.am  228  PRO228     -0.2718
    175  CA         1.9000  -43.6640  -26.3520 C.3   228  PRO228      0.1535
    176  C          2.0200  -42.3220  -25.6290 C.2   228  PRO228      0.2599
    177  O          2.8650  -41.4870  -25.9720 O.2   228  PRO228     -0.2715
    178  CB         2.5140  -44.7770  -25.4780 C.3   228  PRO228      0.0310
    179  CG         3.6880  -45.3130  -26.2240 C.3   228  PRO228      0.0237
    180  CD         3.5050  -44.9490  -27.6590 C.3   228  PRO228      0.0939
    181  N          1.1750  -42.1260  -24.6170 N.am  229  GLY229     -0.1941
    182  CA         1.3260  -40.9840  -23.7360 C.3   229  GLY229      0.2014
    183  C          2.5590  -41.2210  -22.9010 C.2   229  GLY229      0.2639
    184  O          2.8630  -42.3730  -22.5530 O.2   229  GLY229     -0.2714
    185  N          3.2850  -40.1450  -22.5850 N.am  230  VAL230     -0.1963
    186  CA         4.4390  -40.2680  -21.7180 C.3   230  VAL230      0.1727
    187  C          4.2520  -39.4140  -20.4790 C.2   230  VAL230      0.2616
    188  O          3.8400  -38.2480  -20.5520 O.2   230  VAL230     -0.2715
    189  CB         5.7560  -39.8960  -22.4400 C.3   230  VAL230      0.0290
    190  CG1        6.9340  -40.4270  -21.6390 C.3   230  VAL230      0.0023
    191  CG2        5.7630  -40.4590  -23.8630 C.3   230  VAL230      0.0023
    192  N          4.5820  -40.0150  -19.3440 N.am  231  TYR231     -0.1974
    193  CA         4.2430  -39.4730  -18.0480 C.3   231  TYR231      0.1639
    194  C          5.4910  -39.4760  -17.2110 C.2   231  TYR231      0.2290
    195  O          6.2820  -40.4060  -17.3030 O.2   231  TYR231     -0.2864
    196  CB         3.1720  -40.3440  -17.3840 C.3   231  TYR231      0.0560
    197  CG         1.9160  -40.3710  -18.1780 C.ar  231  TYR231     -0.0198
    198  CD1        1.7920  -41.1840  -19.2990 C.ar  231  TYR231     -0.0009
    199  CD2        0.8540  -39.5480  -17.8460 C.ar  231  TYR231     -0.0009
    200  CE1        0.6470  -41.1620  -20.0730 C.ar  231  TYR231      0.0417
    201  CE2       -0.2960  -39.5470  -18.5960 C.ar  231  TYR231      0.0417
    202  CZ        -0.3920  -40.3570  -19.6990 C.ar  231  TYR231      0.1957
    203  OH        -1.5370  -40.3080  -20.4320 O.3   231  TYR231     -0.2866
@<TRIPOS>BOND
     1   153   152    1
     2   152   154    1
     3   152   151    2
     4   150   151    1
     5   150   149    1
     6   172   173    1
     7   172   171    1
     8   149   148    1
     9   170   171    1
    10   170   169    1
    11    44    42    1
    12   156   155    1
    13   156   157    1
    14   148   145    1
    15   147   146    2
    16   155   146   am
    17   162   161    2
    18    42    43    1
    19    42    39    1
    20   169   166    1
    21   146   145    1
    22   165   166    1
    23    51    50    1
    24   159   157   am
    25   159   160    1
    26   145   144    1
    27   157   158    2
    28    52    50    1
    29   166   167    1
    30   161   160    1
    31    41    40    2
    32    39    40    1
    33    39    38    1
    34    50    49    1
    35   160   163    1
    36    40    45   am
    37   144   142   am
    38   163   164    1
    39   102   101    2
    40   167   168    2
    41   167   174   am
    42    45    46    1
    43    49    46    1
    44   164    94    1
    45   143   142    2
    46    46    47    1
    47   142   141    1
    48    94    93    1
    49   180   174    1
    50   180   179    1
    51   174   175    1
    52   101   103   am
    53   101   100    1
    54    82    80   ar
    55   141   140    1
    56    47    48    2
    57    99   100    1
    58    99    96    1
    59   175   176    1
    60   175   178    1
    61   138   136   ar
    62   138   139   ar
    63   179   178    1
    64    93    90    1
    65    79    80    1
    66    79    76    1
    67   177   176    2
    68   136   133   ar
    69    80    81   ar
    70   176   181   am
    71   140   128   am
    72    63    64    1
    73    95    96    1
    74    95    91   am
    75   139   137   ar
    76    75    76    1
    77    96    97    1
    78    90    91    1
    79    90    89    1
    80    86    85    2
    81    76    77    1
    82   181   182    1
    83    91    92    2
    84    98    97    2
    85    64    65    1
    86    64    67    1
    87   133   135   ar
    88   133   131   ar
    89    71    69   ar
    90    71    73   ar
    91    66    65    2
    92   128   129    2
    93   128   127    1
    94    69    68   ar
    95    97   104   am
    96   137   135   ar
    97    78    77    2
    98    62    60   ar
    99    62    61   ar
   100    85    89   am
   101    85    84    1
   102    77    83   am
   103   130   127    1
   104   130   131    1
   105   191   189    1
   106    74    73    1
   107   182   183    1
   108   135   134   ar
   109    73    72   ar
   110   127   126    1
   111   131   132   ar
   112    60    58   ar
   113    68    67    1
   114    68    70   ar
   115    61    59   ar
   116    83    84    1
   117   104   105    1
   118    37    35   ar
   119    84    87    1
   120   183   185   am
   121   183   184    2
   122    72    70   ar
   123   185   186    1
   124    53    54    1
   125   189   186    1
   126   189   190    1
   127   134   132   ar
   128    36    35   ar
   129    58    59   ar
   130    58    57    1
   131    35    34    1
   132   126   122   am
   133    88    87    1
   134   105   106    1
   135   186   187    1
   136   123   122    2
   137    54    57    1
   138    54    55    1
   139   122   121    1
   140    34    31    1
   141    23    21   ar
   142    23    22   ar
   143    21    19   ar
   144   106   107    2
   145    22    20   ar
   146   188   187    2
   147   187   192   am
   148   203   202    1
   149    55    56    2
   150    19    20   ar
   151    19    18    1
   152   200   202   ar
   153   200   198   ar
   154    31    30    1
   155    31    32    1
   156    18    15    1
   157    17    16    2
   158   121   124    1
   159   121   120    1
   160   118   117    1
   161    33    32    2
   162   202   201   ar
   163   108   109    1
   164   112   109    1
   165   125   124    1
   166   192   193    1
   167   120   115   am
   168   198   197   ar
   169     4     3    2
   170    16    15    1
   171    16    24   am
   172   109   110    1
   173    15    14    1
   174   201   199   ar
   175   115   114    1
   176   115   116    2
   177   117   119    1
   178   117   114    1
   179   197   199   ar
   180   197   196    1
   181     3     2    1
   182     3     8   am
   183    27    26    2
   184    13    29    1
   185    13    12    1
   186     2     1    1
   187     2     5    1
   188   193   196    1
   189   193   194    1
   190    24    25    1
   191    25    26    1
   192    25    28    1
   193   114   113    1
   194   110   111    2
   195    29    28    1
   196   195   194    2
   197     6     5    1
   198     8     9    1
   199     7     5    1
   200     9    12    1
   201     9    10    1
   202    10    11    2
