@<TRIPOS>MOLECULE
tmp/5wxxA00.pdb
 117 110 0 0 0
SMALL
GASTEIGER

@<TRIPOS>ATOM
      1  N         21.1340   57.1740   -7.0250 N.3    10  GLY10      -0.1225
      2  CA        22.2430   56.6670   -7.8430 C.3    10  GLY10       0.1811
      3  C         23.4170   56.0720   -7.0600 C.2    10  GLY10       0.2280
      4  O         23.4170   56.0770   -5.8270 O.2    10  GLY10      -0.2866
      5  N         15.5000   54.1790  -14.3260 N.3    47  ASP47      -0.1225
      6  CA        15.3070   55.6000  -13.9920 C.3    47  ASP47       0.1805
      7  C         13.9360   55.7680  -13.3190 C.2    47  ASP47       0.2598
      8  O         12.9280   55.2930  -13.8480 O.2    47  ASP47      -0.2718
      9  CB        15.3960   56.4680  -15.2590 C.3    47  ASP47       0.1424
     10  CG        15.5030   57.9660  -14.9560 C.2    47  ASP47       0.3668
     11  OD1       14.5860   58.5370  -14.3290 O.co2  47  ASP47      -0.2456
     12  OD2       16.5020   58.5900  -15.3730 O.co2  47  ASP47      -0.2456
     13  N         13.9120   56.4130  -12.1500 N.am   48  ARG48      -0.1966
     14  CA        12.6920   56.4920  -11.3230 C.3    48  ARG48       0.1729
     15  C         11.6290   57.4050  -11.9480 C.2    48  ARG48       0.2616
     16  O         10.4830   56.9870  -12.1360 O.2    48  ARG48      -0.2715
     17  CB        13.0160   56.9630   -9.8970 C.3    48  ARG48       0.0348
     18  CG        13.3920   55.8510   -8.9280 C.3    48  ARG48       0.0492
     19  CD        14.6450   55.0890   -9.3340 C.3    48  ARG48       0.2205
     20  NE        15.8410   55.9340   -9.3700 N.pl3  48  ARG48      -0.0865
     21  CZ        17.0020   55.6140   -9.9550 C.cat  48  ARG48       0.5346
     22  NH1       18.0210   56.4670   -9.8930 N.pl3  48  ARG48       0.1354
     23  NH2       17.1720   54.4510  -10.5880 N.pl3  48  ARG48       0.1354
     24  N         12.0170   58.6440  -12.2520 N.am   49  THR49      -0.1951
     25  CA        11.1330   59.5820  -12.9480 C.3    49  THR49       0.1897
     26  C         10.8000   59.0640  -14.3550 C.2    49  THR49       0.2313
     27  O          9.6470   59.1620  -14.7850 O.2    49  THR49      -0.2863
     28  CB        11.7210   61.0130  -12.9880 C.3    49  THR49       0.1794
     29  OG1       11.6610   61.5770  -11.6730 O.3    49  THR49      -0.2208
     30  CG2       10.9430   61.9350  -13.9450 C.3    49  THR49       0.0378
     31  N         16.6570   56.2210   -2.0830 N.3    82  CYS82      -0.1221
     32  CA        16.0690   57.0100   -3.1640 C.3    82  CYS82       0.1808
     33  C         14.6670   57.3850   -2.7240 C.2    82  CYS82       0.2601
     34  O         13.8800   56.5010   -2.3750 O.2    82  CYS82      -0.2717
     35  CB        16.0140   56.1840   -4.4550 C.3    82  CYS82       0.0970
     36  SG        15.2570   56.9950   -5.8880 S.3    82  CYS82      -0.0800
     37  N         14.3630   58.6830   -2.7090 N.am   83  CYS83      -0.1956
     38  CA        13.0450   59.1500   -2.2760 C.3    83  CYS83       0.1843
     39  C         11.9740   58.7800   -3.2890 C.2    83  CYS83       0.2626
     40  O         11.0080   58.1190   -2.9330 O.2    83  CYS83      -0.2714
     41  CB        13.0290   60.6550   -2.0210 C.3    83  CYS83       0.0997
     42  SG        13.9860   61.1500   -0.5770 S.3    83  CYS83      -0.0797
     43  N         12.1680   59.1610   -4.5480 N.am   84  THR84      -0.1950
     44  CA        11.2010   58.8370   -5.6130 C.3    84  THR84       0.1897
     45  C         10.8190   57.3520   -5.6280 C.2    84  THR84       0.2313
     46  O          9.6460   57.0260   -5.7810 O.2    84  THR84      -0.2863
     47  CB        11.7100   59.2460   -7.0020 C.3    84  THR84       0.1794
     48  OG1       12.1750   60.5970   -6.9570 O.3    84  THR84      -0.2208
     49  CG2       10.5960   59.1620   -8.0370 C.3    84  THR84       0.0378
     50  N         12.7890   65.7500   -7.3460 N.3   123  SER123     -0.1217
     51  CA        12.5100   65.5360   -8.7660 C.3   123  SER123      0.1889
     52  C         11.0340   65.7470   -9.0870 C.2   123  SER123      0.2288
     53  O         10.1900   65.6930   -8.1870 O.2   123  SER123     -0.2866
     54  CB        12.8940   64.1070   -9.1600 C.3   123  SER123      0.2089
     55  OG        12.0640   63.1500   -8.5120 O.3   123  SER123     -0.2183
     56  N          8.9890   62.7740   -7.8780 N.3   126  THR126     -0.1218
     57  CA         8.6400   62.8380   -6.4550 C.3   126  THR126      0.1862
     58  C          7.4790   63.8030   -6.2400 C.2   126  THR126      0.2287
     59  O          6.5690   63.5150   -5.4650 O.2   126  THR126     -0.2866
     60  CB         9.8750   63.1990   -5.5870 C.3   126  THR126      0.1770
     61  OG1       10.6970   62.0360   -5.4540 O.3   126  THR126     -0.2211
     62  CG2        9.4930   63.6790   -4.1860 C.3   126  THR126      0.0375
     63  N         20.6970   67.7450  -10.4260 N.3   156  ILE156     -0.1231
     64  CA        20.7880   66.3350  -10.0470 C.3   156  ILE156      0.1692
     65  C         21.5540   65.5270  -11.0980 C.2   156  ILE156      0.2592
     66  O         22.5170   64.8370  -10.7650 O.2   156  ILE156     -0.2718
     67  CB        19.3780   65.7310   -9.7940 C.3   156  ILE156      0.0266
     68  CG1       18.7920   66.3000   -8.4950 C.3   156  ILE156      0.0019
     69  CG2       19.4250   64.2080   -9.7040 C.3   156  ILE156      0.0020
     70  CD1       17.2840   66.1730   -8.3790 C.3   156  ILE156      0.0001
     71  N         21.1280   65.6370  -12.3560 N.am  157  TYR157     -0.1976
     72  CA        21.6720   64.8200  -13.4480 C.3   157  TYR157      0.1639
     73  C         23.0000   65.3210  -14.0120 C.2   157  TYR157      0.2290
     74  O         23.8680   64.5090  -14.2970 O.2   157  TYR157     -0.2864
     75  CB        20.6350   64.6240  -14.5690 C.3   157  TYR157      0.0560
     76  CG        19.6180   63.5610  -14.2160 C.ar  157  TYR157     -0.0198
     77  CD1       18.4640   63.8790  -13.4950 C.ar  157  TYR157     -0.0009
     78  CD2       19.8240   62.2260  -14.5630 C.ar  157  TYR157     -0.0009
     79  CE1       17.5360   62.9070  -13.1490 C.ar  157  TYR157      0.0417
     80  CE2       18.8980   61.2480  -14.2200 C.ar  157  TYR157      0.0417
     81  CZ        17.7540   61.5950  -13.5120 C.ar  157  TYR157      0.1957
     82  OH        16.8270   60.6290  -13.1580 O.3   157  TYR157     -0.2866
     83  N         24.7850   63.4870   -9.7210 N.3   161  LYS161     -0.1245
     84  CA        24.8840   62.0880  -10.1440 C.3   161  LYS161      0.1561
     85  C         26.1930   61.7410  -10.8730 C.2   161  LYS161      0.2260
     86  O         26.6380   60.5960  -10.8010 O.2   161  LYS161     -0.2867
     87  CB        23.6860   61.6960  -11.0160 C.3   161  LYS161      0.0271
     88  CG        22.4150   61.4710  -10.2280 C.3   161  LYS161      0.0035
     89  CD        21.2690   61.0460  -11.1380 C.3   161  LYS161      0.0206
     90  CE        20.0000   60.7590  -10.3570 C.3   161  LYS161      0.1093
     91  NZ        20.0460   59.5260   -9.5310 N.3   161  LYS161     -0.1314
     92  N         14.7700   65.9760   -0.7860 N.3   188  GLY188     -0.1210
     93  CA        13.7000   65.1830   -1.3320 C.3   188  GLY188      0.1956
     94  C         14.1570   64.3160   -2.4590 C.2   188  GLY188      0.2612
     95  O         13.3950   63.6660   -3.1010 O.2   188  GLY188     -0.2717
     96  N         15.4430   64.3350   -2.6820 N.am  189  CYS189     -0.1956
     97  CA        16.1040   63.5620   -3.6620 C.3   189  CYS189      0.1843
     98  C         17.3520   63.1920   -2.9140 C.2   189  CYS189      0.2626
     99  O         17.9670   64.0470   -2.3250 O.2   189  CYS189     -0.2714
    100  CB        16.4100   64.4220   -4.8420 C.3   189  CYS189      0.0997
    101  SG        17.7330   63.7440   -5.7710 S.3   189  CYS189     -0.0797
    102  N         17.7170   61.9200   -2.9190 N.am  190  THR190     -0.1936
    103  CA        18.8670   61.4810   -2.1560 C.3   190  THR190      0.2028
    104  C         20.1950   62.0940   -2.5040 C.2   190  THR190      0.2642
    105  O         21.0230   62.2270   -1.6640 O.2   190  THR190     -0.2714
    106  CB        18.9860   59.9570   -1.9900 C.3   190  THR190      0.1808
    107  OG1       19.0020   59.3140   -3.2460 O.3   190  THR190     -0.2208
    108  CG2       17.8800   59.4380   -1.2010 C.3   190  THR190      0.0379
    109  N         20.3730   62.4860   -3.7420 N.am  191  GLU191     -0.1976
    110  CA        21.6290   63.1210   -4.1650 C.3   191  GLU191      0.1602
    111  C         21.9500   64.4130   -3.3980 C.2   191  GLU191      0.2287
    112  O         23.1130   64.8170   -3.3590 O.2   191  GLU191     -0.2864
    113  CB        21.6660   63.3870   -5.6800 C.3   191  GLU191      0.0415
    114  CG        22.1270   62.2020   -6.5260 C.3   191  GLU191      0.1163
    115  CD        21.1070   61.0890   -6.6280 C.2   191  GLU191      0.3649
    116  OE1       21.4680   59.9640   -7.0570 O.co2 191  GLU191     -0.2457
    117  OE2       19.9350   61.3320   -6.2770 O.co2 191  GLU191     -0.2457
@<TRIPOS>BOND
     1    12    10   ar
     2     9    10    1
     3     9     6    1
     4    10    11   ar
     5    27    26    2
     6    75    76    1
     7    75    72    1
     8    78    80   ar
     9    78    76   ar
    10    26    25    1
    11     5     6    1
    12    74    73    2
    13    80    81   ar
    14    76    77   ar
    15    73    72    1
    16     6     7    1
    17    30    28    1
    18     8     7    2
    19    81    82    1
    20    81    79   ar
    21    77    79   ar
    22    72    71    1
    23     7    13   am
    24    28    25    1
    25    28    29    1
    26    25    24    1
    27    71    65   am
    28    24    15   am
    29    13    14    1
    30    16    15    2
    31    15    14    1
    32    14    17    1
    33    89    90    1
    34    89    88    1
    35    65    66    2
    36    65    64    1
    37    87    88    1
    38    87    84    1
    39    85    86    2
    40    85    84    1
    41    23    21    1
    42    63    64    1
    43    90    91    1
    44    84    83    1
    45    64    67    1
    46    21    22    1
    47    21    20    2
    48    17    18    1
    49    67    69    1
    50    67    68    1
    51    20    19    1
    52    19    18    1
    53    54    51    1
    54    54    55    1
    55    52    51    1
    56    52    53    2
    57    51    50    1
    58    68    70    1
    59    49    47    1
    60    56    57    1
    61     2     3    1
    62     2     1    1
    63     3     4    2
    64   116   115   ar
    65    47    48    1
    66    47    44    1
    67   115   114    1
    68   115   117   ar
    69   114   113    1
    70    57    58    1
    71    57    60    1
    72    58    59    2
    73    36    35    1
    74    46    45    2
    75   101   100    1
    76   113   110    1
    77    45    44    1
    78    44    43    1
    79    60    61    1
    80    60    62    1
    81   100    97    1
    82    43    39   am
    83    35    32    1
    84   110   109    1
    85   110   111    1
    86   109   104   am
    87    97    98    1
    88    97    96    1
    89   111   112    2
    90    39    40    2
    91    39    38    1
    92   107   106    1
    93    32    33    1
    94    32    31    1
    95    95    94    2
    96   102    98   am
    97   102   103    1
    98    98    99    2
    99    33    37   am
   100    33    34    2
   101    37    38    1
   102    96    94   am
   103   104   103    1
   104   104   105    2
   105    94    93    1
   106    38    41    1
   107   103   106    1
   108    41    42    1
   109   106   108    1
   110    93    92    1
