@<TRIPOS>MOLECULE
tmp/5wxzA00.pdb
 113 106 0 0 0
SMALL
GASTEIGER

@<TRIPOS>ATOM
      1  N         36.4330  -45.0050  -14.0910 N.3    10  MET10      -0.1245
      2  CA        37.7160  -44.5300  -14.6120 C.3    10  MET10       0.1570
      3  C         38.8720  -45.3770  -14.0960 C.2    10  MET10       0.2261
      4  O         39.7340  -44.8590  -13.4110 O.2    10  MET10      -0.2867
      5  CB        37.9260  -43.0660  -14.1960 C.3    10  MET10       0.0387
      6  CG        36.8620  -42.0930  -14.6940 C.3    10  MET10       0.0595
      7  SD        37.2390  -40.3550  -14.3330 S.3    10  MET10      -0.1393
      8  CE        36.5980  -40.1820  -12.6770 C.3    10  MET10       0.0692
      9  N         41.6320  -39.8070  -19.5110 N.3    49  ARG49      -0.1231
     10  CA        42.3140  -38.8140  -18.6710 C.3    49  ARG49       0.1694
     11  C         43.6790  -38.4630  -19.2660 C.2    49  ARG49       0.2592
     12  O         43.9800  -37.2870  -19.5010 O.2    49  ARG49      -0.2718
     13  CB        42.4800  -39.3420  -17.2340 C.3    49  ARG49       0.0321
     14  CG        41.2500  -39.2310  -16.3380 C.3    49  ARG49       0.0489
     15  CD        39.9660  -39.8170  -16.9240 C.3    49  ARG49       0.2205
     16  NE        40.0110  -41.2690  -17.1220 N.pl3  49  ARG49      -0.0865
     17  CZ        39.0600  -42.0040  -17.7000 C.cat  49  ARG49       0.5346
     18  NH1       39.2240  -43.3250  -17.7970 N.pl3  49  ARG49       0.1354
     19  NH2       37.9530  -41.4430  -18.1820 N.pl3  49  ARG49       0.1354
     20  N         44.4860  -39.5020  -19.4980 N.am   50  THR50      -0.1953
     21  CA        45.7730  -39.3930  -20.2020 C.3    50  THR50       0.1897
     22  C         45.5780  -38.9380  -21.6650 C.2    50  THR50       0.2313
     23  O         46.4220  -38.2230  -22.2110 O.2    50  THR50      -0.2863
     24  CB        46.5460  -40.7390  -20.1560 C.3    50  THR50       0.1794
     25  OG1       46.6290  -41.2020  -18.8000 O.3    50  THR50      -0.2208
     26  CG2       47.9600  -40.6000  -20.7290 C.3    50  THR50       0.0378
     27  N         40.0900  -42.1900   -9.8660 N.3    83  SER83      -0.1202
     28  CA        41.2420  -42.0860  -10.7510 C.3    83  SER83       0.2020
     29  C         42.2490  -41.1250  -10.1260 C.2    83  SER83       0.2619
     30  O         41.9090  -39.9860   -9.8100 O.2    83  SER83      -0.2717
     31  CB        40.8080  -41.5620  -12.1320 C.3    83  SER83       0.2103
     32  OG        41.9210  -41.1660  -12.9360 O.3    83  SER83      -0.2182
     33  N         43.4820  -41.5840   -9.9370 N.am   84  CYS84      -0.1955
     34  CA        44.5650  -40.6890   -9.5530 C.3    84  CYS84       0.1843
     35  C         44.7870  -39.6420  -10.6360 C.2    84  CYS84       0.2626
     36  O         44.7230  -38.4480  -10.3450 O.2    84  CYS84      -0.2714
     37  CB        45.8400  -41.4610   -9.3080 C.3    84  CYS84       0.0997
     38  SG        45.7820  -42.4980   -7.8320 S.3    84  CYS84      -0.0797
     39  N         44.9980  -40.0730  -11.8850 N.am   85  THR85      -0.1950
     40  CA        45.2490  -39.1300  -12.9960 C.3    85  THR85       0.1897
     41  C         44.2460  -37.9800  -12.9770 C.2    85  THR85       0.2313
     42  O         44.6330  -36.8190  -13.0420 O.2    85  THR85      -0.2863
     43  CB        45.2030  -39.8040  -14.3800 C.3    85  THR85       0.1794
     44  OG1       45.9420  -41.0290  -14.3580 O.3    85  THR85      -0.2208
     45  CG2       45.7970  -38.9020  -15.4420 C.3    85  THR85       0.0378
     46  N         50.4240  -44.3050  -15.0450 N.3   124  SER124     -0.1217
     47  CA        50.3500  -43.9030  -16.4520 C.3   124  SER124      0.1889
     48  C         51.3110  -42.7500  -16.7490 C.2   124  SER124      0.2288
     49  O         51.6360  -41.9530  -15.8650 O.2   124  SER124     -0.2866
     50  CB        48.9110  -43.4500  -16.7860 C.3   124  SER124      0.2089
     51  OG        48.4880  -42.3370  -15.9860 O.3   124  SER124     -0.2183
     52  N         49.6700  -39.3970  -15.5920 N.3   127  THR127     -0.1218
     53  CA        49.8250  -39.1650  -14.1540 C.3   127  THR127      0.1862
     54  C         51.2300  -38.6500  -13.8600 C.2   127  THR127      0.2287
     55  O         51.4190  -37.7640  -13.0180 O.2   127  THR127     -0.2866
     56  CB        49.5800  -40.4770  -13.3820 C.3   127  THR127      0.1770
     57  OG1       48.2600  -40.9450  -13.6690 O.3   127  THR127     -0.2211
     58  CG2       49.7200  -40.3150  -11.8770 C.3   127  THR127      0.0375
     59  N         48.1530  -51.4900  -17.6360 N.3   158  ILE158     -0.1231
     60  CA        46.8790  -50.9200  -17.2170 C.3   158  ILE158      0.1692
     61  C         45.8180  -51.1640  -18.2960 C.2   158  ILE158      0.2592
     62  O         44.7750  -51.7480  -18.0230 O.2   158  ILE158     -0.2718
     63  CB        46.9980  -49.4070  -16.9040 C.3   158  ILE158      0.0266
     64  CG1       47.8220  -49.1900  -15.6300 C.3   158  ILE158      0.0019
     65  CG2       45.6140  -48.7740  -16.7440 C.3   158  ILE158      0.0020
     66  CD1       48.3350  -47.7730  -15.4730 C.3   158  ILE158      0.0001
     67  N         46.1220  -50.7430  -19.5190 N.am  159  TYR159     -0.1976
     68  CA        45.1430  -50.7250  -20.5980 C.3   159  TYR159      0.1639
     69  C         44.9160  -52.1060  -21.2530 C.2   159  TYR159      0.2290
     70  O         43.7790  -52.4250  -21.5810 O.2   159  TYR159     -0.2864
     71  CB        45.4960  -49.6360  -21.6360 C.3   159  TYR159      0.0560
     72  CG        45.1180  -48.2210  -21.1920 C.ar  159  TYR159     -0.0198
     73  CD1       45.8550  -47.5440  -20.2110 C.ar  159  TYR159     -0.0009
     74  CD2       44.0210  -47.5570  -21.7510 C.ar  159  TYR159     -0.0009
     75  CE1       45.5060  -46.2520  -19.8020 C.ar  159  TYR159      0.0417
     76  CE2       43.6690  -46.2680  -21.3540 C.ar  159  TYR159      0.0417
     77  CZ        44.4100  -45.6140  -20.3790 C.ar  159  TYR159      0.1957
     78  OH        44.0510  -44.3350  -19.9740 O.3   159  TYR159     -0.2866
     79  N         42.3740  -52.9490  -17.1680 N.3   163  LYS163     -0.1245
     80  CA        41.1030  -52.3090  -17.5670 C.3   163  LYS163      0.1561
     81  C         40.1360  -53.2570  -18.2920 C.2   163  LYS163      0.2260
     82  O         38.9160  -53.0860  -18.1920 O.2   163  LYS163     -0.2867
     83  CB        41.3490  -51.0660  -18.4310 C.3   163  LYS163      0.0271
     84  CG        41.8890  -49.8800  -17.6570 C.3   163  LYS163      0.0035
     85  CD        41.9660  -48.6330  -18.5300 C.3   163  LYS163      0.0206
     86  CE        42.3530  -47.3960  -17.7360 C.3   163  LYS163      0.1093
     87  NZ        41.2880  -46.8980  -16.8290 N.3   163  LYS163     -0.1314
     88  N         49.7700  -45.6620   -8.3040 N.3   190  GLY190     -0.1210
     89  CA        49.6380  -44.3580   -8.9550 C.3   190  GLY190      0.1956
     90  C         48.4980  -44.3360   -9.9510 C.2   190  GLY190      0.2613
     91  O         47.9200  -43.2920  -10.2080 O.2   190  GLY190     -0.2717
     92  N         48.2270  -45.4970  -10.5400 N.am  191  SER191     -0.1938
     93  CA        46.9750  -45.7740  -11.2280 C.3   191  SER191      0.2055
     94  C         46.0970  -46.5630  -10.2870 C.2   191  SER191      0.2644
     95  O         46.5760  -47.5350   -9.6670 O.2   191  SER191     -0.2714
     96  CB        47.2300  -46.6110  -12.4860 C.3   191  SER191      0.2130
     97  OG        46.0230  -46.9350  -13.1550 O.3   191  SER191     -0.2179
     98  N         44.8210  -46.1710  -10.1920 N.am  192  THR192     -0.1936
     99  CA        43.8360  -46.9110   -9.3720 C.3   192  THR192      0.2028
    100  C         43.6550  -48.3560   -9.8190 C.2   192  THR192      0.2642
    101  O         43.3410  -49.2070   -8.9910 O.2   192  THR192     -0.2714
    102  CB        42.4450  -46.2470   -9.3140 C.3   192  THR192      0.1808
    103  OG1       42.0220  -45.8830  -10.6270 O.3   192  THR192     -0.2208
    104  CG2       42.4740  -45.0160   -8.4450 C.3   192  THR192      0.0379
    105  N         43.8890  -48.6540  -11.0940 N.am  193  GLU193     -0.1976
    106  CA        43.7930  -50.0360  -11.5480 C.3   193  GLU193      0.1602
    107  C         44.7100  -50.9910  -10.7660 C.2   193  GLU193      0.2287
    108  O         44.4470  -52.1880  -10.7460 O.2   193  GLU193     -0.2864
    109  CB        44.0200  -50.1710  -13.0750 C.3   193  GLU193      0.0415
    110  CG        42.7470  -50.1750  -13.9280 C.3   193  GLU193      0.1163
    111  CD        42.1470  -48.8000  -14.1720 C.2   193  GLU193      0.3649
    112  OE1       40.9350  -48.7120  -14.5010 O.co2 193  GLU193     -0.2457
    113  OE2       42.8810  -47.8080  -14.0470 O.co2 193  GLU193     -0.2457
@<TRIPOS>BOND
     1    23    22    2
     2    74    76   ar
     3    74    72   ar
     4    22    21    1
     5    71    72    1
     6    71    68    1
     7    70    69    2
     8    76    77   ar
     9    69    68    1
    10    72    73   ar
    11    26    24    1
    12    68    67    1
    13    77    78    1
    14    77    75   ar
    15    73    75   ar
    16    21    24    1
    17    21    20    1
    18    24    25    1
    19    67    61   am
    20     9    10    1
    21    12    11    2
    22    20    11   am
    23    11    10    1
    24    10    13    1
    25    85    86    1
    26    85    84    1
    27    83    84    1
    28    83    80    1
    29    61    62    2
    30    61    60    1
    31    81    82    2
    32    81    80    1
    33    19    17    1
    34    18    17    1
    35    86    87    1
    36    17    16    2
    37    59    60    1
    38    80    79    1
    39    13    14    1
    40    60    63    1
    41    16    15    1
    42    15    14    1
    43    63    65    1
    44    63    64    1
    45    50    47    1
    46    50    51    1
    47    48    47    1
    48    48    49    2
    49    47    46    1
    50    64    66    1
    51    52    53    1
    52    45    43    1
    53     6     7    1
    54     6     5    1
    55     2     5    1
    56     2     3    1
    57     2     1    1
    58   112   111   ar
    59    43    44    1
    60    43    40    1
    61     7     8    1
    62   111   113   ar
    63   111   110    1
    64    53    54    1
    65    53    56    1
    66     3     4    2
    67   110   109    1
    68    54    55    2
    69    57    56    1
    70    56    58    1
    71    97    96    1
    72   109   106    1
    73    42    41    2
    74    40    41    1
    75    40    39    1
    76    32    31    1
    77    96    93    1
    78    31    28    1
    79    39    35   am
    80   106   105    1
    81   106   107    1
    82    93    92    1
    83    93    94    1
    84   105   100   am
    85   107   108    2
    86    28    29    1
    87    28    27    1
    88    35    36    2
    89    35    34    1
    90   103   102    1
    91    92    90   am
    92    94    98   am
    93    94    95    2
    94    91    90    2
    95    98    99    1
    96    29    33   am
    97    29    30    2
    98    90    89    1
    99    33    34    1
   100   100    99    1
   101   100   101    2
   102    34    37    1
   103    99   102    1
   104   102   104    1
   105    37    38    1
   106    89    88    1
