@<TRIPOS>MOLECULE
tmp/5wy9A00.pdb
 111 108 0 0 0
SMALL
GASTEIGER

@<TRIPOS>ATOM
      1  N         11.7450   14.9550   -9.8480 N.3    28  TRP28      -0.1227
      2  CA        11.4900   14.9200  -11.2720 C.3    28  TRP28       0.1737
      3  C         11.5470   13.4770  -11.7620 C.2    28  TRP28       0.2595
      4  O         10.7980   13.1450  -12.7100 O.2    28  TRP28      -0.2718
      5  CB        12.4650   15.8290  -12.0500 C.3    28  TRP28       0.0564
      6  CG        13.9240   15.4030  -12.1170 C.ar   28  TRP28       0.0003
      7  CD1       14.9720   16.0280  -11.4780 C.ar   28  TRP28       0.0946
      8  CD2       14.5190   14.3470  -12.9290 C.ar   28  TRP28       0.0152
      9  NE1       16.1620   15.4470  -11.8570 N.ar   28  TRP28      -0.2442
     10  CE2       15.9240   14.3930  -12.7010 C.ar   28  TRP28       0.0810
     11  CE3       13.9980   13.3720  -13.8130 C.ar   28  TRP28       0.0012
     12  CZ2       16.8060   13.4770  -13.2660 C.ar   28  TRP28       0.0191
     13  CZ3       14.9090   12.4790  -14.4500 C.ar   28  TRP28       0.0001
     14  CH2       16.3090   12.5480  -14.1600 C.ar   28  TRP28       0.0015
     15  N         12.3980   12.6350  -11.1490 N.am   29  LEU29      -0.1980
     16  CA        12.5470   11.2520  -11.6120 C.3    29  LEU29       0.1596
     17  C         11.2740   10.4800  -11.3090 C.2    29  LEU29       0.2287
     18  O         10.7850    9.7480  -12.1160 O.2    29  LEU29      -0.2864
     19  CB        13.7300   10.5620  -10.9050 C.3    29  LEU29       0.0297
     20  CG        14.0980    9.1380  -11.3540 C.3    29  LEU29       0.0022
     21  CD1       13.2050    8.0720  -10.7550 C.3    29  LEU29       0.0001
     22  CD2       14.0930    9.0560  -12.8640 C.3    29  LEU29       0.0001
     23  N          8.3280   11.7500  -13.6640 N.3    32  LYS32      -0.1231
     24  CA         8.4180   11.2780  -14.9950 C.3    32  LYS32       0.1693
     25  C          8.1950    9.7600  -15.1230 C.2    32  LYS32       0.2591
     26  O          7.5030    9.3200  -16.0420 O.2    32  LYS32      -0.2718
     27  CB         9.7640   11.7160  -15.6420 C.3    32  LYS32       0.0285
     28  CG         9.9470   11.1520  -17.0550 C.3    32  LYS32       0.0035
     29  CD         8.9850   11.6710  -18.0660 C.3    32  LYS32       0.0206
     30  CE         8.9020   13.1910  -18.1060 C.3    32  LYS32       0.1093
     31  NZ         8.0130   13.8200  -19.1510 N.3    32  LYS32      -0.1314
     32  N          8.7810    8.9820  -14.2190 N.am   33  LYS33      -0.1980
     33  CA         8.5230    7.5380  -14.3130 C.3    33  LYS33       0.1596
     34  C          7.0180    7.2580  -14.1670 C.2    33  LYS33       0.2287
     35  O          6.4440    6.4470  -14.9110 O.2    33  LYS33      -0.2864
     36  CB         9.3780    6.6930  -13.3030 C.3    33  LYS33       0.0298
     37  CG        10.9250    6.7630  -13.4830 C.3    33  LYS33       0.0038
     38  CD        11.4210    6.3760  -14.8570 C.3    33  LYS33       0.0206
     39  CE        12.9560    6.2510  -14.7930 C.3    33  LYS33       0.1093
     40  NZ        13.4920    5.8640  -16.1490 N.3    33  LYS33      -0.1314
     41  N          5.0360    7.6330  -17.3270 N.3    36  LEU36      -0.1245
     42  CA         5.3970    6.8500  -18.4960 C.3    36  LEU36       0.1561
     43  C          4.6030    5.5560  -18.3980 C.2    36  LEU36       0.2260
     44  O          4.3810    5.0130  -17.2640 O.2    36  LEU36      -0.2867
     45  CB         6.9050    6.5420  -18.4960 C.3    36  LEU36       0.0270
     46  CG         7.7450    7.3240  -19.5150 C.3    36  LEU36       0.0019
     47  CD1        7.4170    8.7780  -19.6110 C.3    36  LEU36       0.0001
     48  CD2        9.2080    7.1940  -19.1530 C.3    36  LEU36       0.0001
     49  N          9.5370    1.5480  -23.2080 N.3    57  PHE57      -0.1241
     50  CA         8.4190    2.3960  -22.8130 C.3    57  PHE57       0.1605
     51  C          7.7570    2.9560  -24.0610 C.2    57  PHE57       0.2264
     52  O          8.3940    3.0670  -25.0850 O.2    57  PHE57      -0.2867
     53  CB         8.8510    3.5290  -21.8430 C.3    57  PHE57       0.0534
     54  CG         9.7860    4.5690  -22.4070 C.ar   57  PHE57      -0.0203
     55  CD1       11.1850    4.3630  -22.3700 C.ar   57  PHE57      -0.0042
     56  CD2        9.3060    5.7250  -22.9460 C.ar   57  PHE57      -0.0042
     57  CE1       12.0530    5.3500  -22.9340 C.ar   57  PHE57      -0.0003
     58  CE2       10.1550    6.7160  -23.4530 C.ar   57  PHE57      -0.0003
     59  CZ        11.5490    6.5220  -23.4970 C.ar   57  PHE57      -0.0000
     60  N          6.1980    6.0000  -26.3090 N.3    59  ARG59      -0.1245
     61  CA         6.0040    7.4250  -26.4450 C.3    59  ARG59       0.1563
     62  C          5.2930    7.6100  -27.7900 C.2    59  ARG59       0.2260
     63  O          5.7640    7.1450  -28.8060 O.2    59  ARG59      -0.2867
     64  CB         7.3280    8.1730  -26.4040 C.3    59  ARG59       0.0307
     65  CG         7.0990    9.6820  -26.2480 C.3    59  ARG59       0.0489
     66  CD         8.3270   10.4540  -26.5590 C.3    59  ARG59       0.2205
     67  NE         9.2920   10.4050  -25.4340 N.pl3  59  ARG59      -0.0865
     68  CZ        10.5230    9.9960  -25.5260 C.cat  59  ARG59       0.5346
     69  NH1       10.8950    9.4220  -26.6610 N.pl3  59  ARG59       0.1354
     70  NH2       11.3130   10.0830  -24.4440 N.pl3  59  ARG59       0.1354
     71  N         20.9090   -0.3340  -20.1290 N.3    68  MET68      -0.1245
     72  CA        21.8760    0.0760  -19.0700 C.3    68  MET68       0.1570
     73  C         22.8340   -1.0680  -18.8120 C.2    68  MET68       0.2261
     74  O         22.3690   -2.1690  -18.4800 O.2    68  MET68      -0.2867
     75  CB        21.1690    0.4290  -17.7940 C.3    68  MET68       0.0387
     76  CG        20.4760    1.7950  -17.9470 C.3    68  MET68       0.0595
     77  SD        19.3820    2.0430  -16.5330 S.3    68  MET68      -0.1393
     78  CE        20.5770    2.3570  -15.2950 C.3    68  MET68       0.0692
     79  N         24.9910   12.0960  -16.9160 N.3    86  TRP86      -0.1241
     80  CA        24.9270   12.7260  -15.6400 C.3    86  TRP86       0.1605
     81  C         26.2960   12.8630  -15.0080 C.2    86  TRP86       0.2264
     82  O         26.4020   13.2800  -13.8460 O.2    86  TRP86      -0.2867
     83  CB        23.9000   12.0100  -14.7290 C.3    86  TRP86       0.0550
     84  CG        22.5110   12.1930  -15.1750 C.ar   86  TRP86       0.0003
     85  CD1       21.7680   11.3560  -15.9400 C.ar   86  TRP86       0.0946
     86  CD2       21.6970   13.3430  -14.9010 C.ar   86  TRP86       0.0152
     87  NE1       20.5240   11.9070  -16.1880 N.ar   86  TRP86      -0.2442
     88  CE2       20.4530   13.1240  -15.5500 C.ar   86  TRP86       0.0810
     89  CE3       21.9350   14.5060  -14.2170 C.ar   86  TRP86       0.0012
     90  CZ2       19.4130   14.0630  -15.4770 C.ar   86  TRP86       0.0191
     91  CZ3       20.8690   15.4700  -14.1370 C.ar   86  TRP86       0.0001
     92  CH2       19.6700   15.2170  -14.8350 C.ar   86  TRP86       0.0015
     93  N         21.9610   10.9530   -4.9730 N.3   117  PHE117     -0.1241
     94  CA        20.7530   10.2910   -5.5270 C.3   117  PHE117      0.1605
     95  C         20.5420    8.9310   -4.8770 C.2   117  PHE117      0.2264
     96  O         21.4800    8.1740   -4.5880 O.2   117  PHE117     -0.2867
     97  CB        21.0230   10.0570   -7.0070 C.3   117  PHE117      0.0534
     98  CG        19.8980    9.3320   -7.7040 C.ar  117  PHE117     -0.0203
     99  CD1       18.7100    9.9780   -7.9630 C.ar  117  PHE117     -0.0042
    100  CD2       20.0330    7.9570   -7.9330 C.ar  117  PHE117     -0.0042
    101  CE1       17.6320    9.3130   -8.6070 C.ar  117  PHE117     -0.0003
    102  CE2       18.9770    7.2500   -8.5810 C.ar  117  PHE117     -0.0003
    103  CZ        17.7650    7.9300   -8.9280 C.ar  117  PHE117     -0.0000
    104  N         17.4750    5.6000   -4.9810 N.3   119  MET119     -0.1245
    105  CA        16.2420    5.0450   -5.6050 C.3   119  MET119      0.1570
    106  C         16.0690    3.5630   -5.2250 C.2   119  MET119      0.2261
    107  O         16.9620    2.7820   -5.2830 O.2   119  MET119     -0.2867
    108  CB        16.3450    5.1570   -7.1170 C.3   119  MET119      0.0387
    109  CG        15.1330    4.5650   -7.8410 C.3   119  MET119      0.0595
    110  SD        15.2000    4.9200   -9.6010 S.3   119  MET119     -0.1393
    111  CE        16.5630    3.9270  -10.0580 C.3   119  MET119      0.0692
@<TRIPOS>BOND
     1    63    62    2
     2    62    61    1
     3    69    68    1
     4    66    65    1
     5    66    67    1
     6    61    64    1
     7    61    60    1
     8    64    65    1
     9    68    67    2
    10    68    70    1
    11    52    51    2
    12    51    50    1
    13    59    58   ar
    14    59    57   ar
    15    58    56   ar
    16    49    50    1
    17    56    54   ar
    18    57    55   ar
    19    50    53    1
    20    54    55   ar
    21    54    53    1
    22    71    72    1
    23    47    46    1
    24    46    48    1
    25    46    45    1
    26    31    30    1
    27    72    73    1
    28    72    75    1
    29    73    74    2
    30    42    45    1
    31    42    43    1
    32    42    41    1
    33    43    44    2
    34    30    29    1
    35    29    28    1
    36    76    75    1
    37    76    77    1
    38    28    27    1
    39    79    80    1
    40    77    78    1
    41    87    85   ar
    42    87    88   ar
    43    40    39    1
    44    26    25    2
    45    85    84   ar
    46    27    24    1
    47    80    81    1
    48    80    83    1
    49    88    90   ar
    50    88    86   ar
    51    90    92   ar
    52    84    86   ar
    53    84    83    1
    54    25    24    1
    55    25    32   am
    56    81    82    2
    57    24    23    1
    58    35    34    2
    59    86    89   ar
    60    38    39    1
    61    38    37    1
    62    92    91   ar
    63    13    14   ar
    64    13    11   ar
    65    33    32    1
    66    33    34    1
    67    33    36    1
    68    89    91   ar
    69    14    12   ar
    70    11     8   ar
    71    37    36    1
    72    12    10   ar
    73     8    10   ar
    74     8     6   ar
    75    22    20    1
    76     4     3    2
    77    10     9   ar
    78     6     5    1
    79     6     7   ar
    80    18    17    2
    81     5     2    1
    82     9     7   ar
    83     3     2    1
    84     3    15   am
    85    16    17    1
    86    16    15    1
    87    16    19    1
    88    20    19    1
    89    20    21    1
    90     2     1    1
    91   111   110    1
    92   110   109    1
    93   103   101   ar
    94   103   102   ar
    95   101    99   ar
    96   102   100   ar
    97    99    98   ar
    98   100    98   ar
    99   109   108    1
   100    98    97    1
   101   108   105    1
   102    97    94    1
   103   105   106    1
   104   105   104    1
   105    94    93    1
   106    94    95    1
   107   107   106    2
   108    95    96    2
