@<TRIPOS>MOLECULE
tmp/5wybA00.pdb
 94 89 0 0 0
SMALL
GASTEIGER

@<TRIPOS>ATOM
      1  N         25.1680  154.0600   72.5320 N.3    70  ALA70      -0.1245
      2  CA        26.1650  154.2610   71.4960 C.3    70  ALA70       0.1562
      3  C         27.3420  155.0570   72.0310 C.2    70  ALA70       0.2260
      4  O         27.1700  156.0490   72.7410 O.2    70  ALA70      -0.2867
      5  CB        25.5550  154.9790   70.2940 C.3    70  ALA70       0.0290
      6  N         29.0820  158.8520   66.7060 N.3    75  PHE75      -0.1241
      7  CA        28.2840  159.9500   66.1830 C.3    75  PHE75       0.1605
      8  C         29.0610  161.1420   66.6460 C.2    75  PHE75       0.2264
      9  O         28.5780  162.0120   67.3490 O.2    75  PHE75      -0.2867
     10  CB        26.8470  159.9500   66.6570 C.3    75  PHE75       0.0534
     11  CG        26.1820  158.6380   66.4920 C.ar   75  PHE75      -0.0203
     12  CD1       25.7380  158.2350   65.2740 C.ar   75  PHE75      -0.0042
     13  CD2       26.0430  157.8000   67.5510 C.ar   75  PHE75      -0.0042
     14  CE1       25.1700  157.0230   65.1150 C.ar   75  PHE75      -0.0003
     15  CE2       25.4730  156.5800   67.3880 C.ar   75  PHE75      -0.0003
     16  CZ        25.0350  156.1920   66.1700 C.ar   75  PHE75      -0.0000
     17  N         24.2700  149.4470   63.6940 N.3    90  PHE90      -0.1241
     18  CA        23.3090  149.1150   64.7420 C.3    90  PHE90       0.1605
     19  C         22.2190  148.1950   64.2130 C.2    90  PHE90       0.2264
     20  O         21.9430  147.1420   64.7960 O.2    90  PHE90      -0.2867
     21  CB        22.6960  150.3840   65.3240 C.3    90  PHE90       0.0534
     22  CG        23.3940  150.8870   66.5460 C.ar   90  PHE90      -0.0203
     23  CD1       23.4810  150.1000   67.6820 C.ar   90  PHE90      -0.0042
     24  CD2       23.9490  152.1490   66.5680 C.ar   90  PHE90      -0.0042
     25  CE1       24.1200  150.5620   68.8110 C.ar   90  PHE90      -0.0003
     26  CE2       24.5890  152.6170   67.6900 C.ar   90  PHE90      -0.0003
     27  CZ        24.6750  151.8220   68.8170 C.ar   90  PHE90      -0.0000
     28  N         19.4060  153.9240   75.7540 N.3   114  GLY114     -0.1210
     29  CA        19.6330  154.1580   74.3460 C.3   114  GLY114      0.1956
     30  C         19.9100  152.8750   73.5970 C.2   114  GLY114      0.2612
     31  O         19.0550  151.9880   73.5500 O.2   114  GLY114     -0.2717
     32  N         21.1070  152.7600   73.0190 N.am  115  GLY115     -0.1956
     33  CA        21.4470  151.5640   72.2670 C.3   115  GLY115      0.1869
     34  C         21.5540  150.3250   73.1260 C.2   115  GLY115      0.2309
     35  O         21.3220  149.2100   72.6440 O.2   115  GLY115     -0.2863
     36  N         18.0450  149.1860   73.2800 N.3   118  GLU118     -0.1245
     37  CA        17.6980  148.5960   71.9920 C.3   118  GLU118      0.1567
     38  C         18.3290  147.2230   71.8220 C.2   118  GLU118      0.2260
     39  O         17.7120  146.3210   71.2480 O.2   118  GLU118     -0.2867
     40  CB        18.1220  149.5300   70.8620 C.3   118  GLU118      0.0388
     41  CG        17.3310  150.8160   70.8260 C.3   118  GLU118      0.1160
     42  CD        17.8790  151.8050   69.8330 C.2   118  GLU118      0.3649
     43  OE1       19.0570  152.1850   69.9630 O.co2 118  GLU118     -0.2457
     44  OE2       17.1390  152.1830   68.9070 O.co2 118  GLU118     -0.2457
     45  N         17.3540  159.7010   73.3110 N.3   138  GLU138     -0.1245
     46  CA        17.9010  160.2930   72.1010 C.3   138  GLU138      0.1567
     47  C         17.2840  161.6100   71.6980 C.2   138  GLU138      0.2260
     48  O         17.9780  162.4740   71.3070 O.2   138  GLU138     -0.2867
     49  CB        18.0120  159.2860   70.9490 C.3   138  GLU138      0.0388
     50  CG        17.1620  158.0590   71.0920 C.3   138  GLU138      0.1160
     51  CD        17.7680  156.9630   71.8990 C.2   138  GLU138      0.3649
     52  OE1       17.0350  156.3620   72.6160 O.co2 138  GLU138     -0.2457
     53  OE2       18.9430  156.6880   71.7940 O.co2 138  GLU138     -0.2457
     54  N         18.9180  164.9880   72.7390 N.3   141  VAL141     -0.1245
     55  CA        20.0060  165.5730   71.9710 C.3   141  VAL141      0.1561
     56  C         19.6120  165.7530   70.5080 C.2   141  VAL141      0.2260
     57  O         20.4750  165.8840   69.6550 O.2   141  VAL141     -0.2867
     58  CB        21.2940  164.7450   72.0960 C.3   141  VAL141      0.0252
     59  CG1       21.8230  164.8120   73.5030 C.3   141  VAL141      0.0019
     60  CG2       21.0390  163.3050   71.6900 C.3   141  VAL141      0.0019
     61  N         18.1340  163.5550   68.4780 N.3   143  LEU143     -0.1231
     62  CA        18.3010  162.3620   67.6640 C.3   143  LEU143      0.1693
     63  C         17.1480  161.4070   67.9250 C.2   143  LEU143      0.2592
     64  O         16.0840  161.8400   68.3700 O.2   143  LEU143     -0.2718
     65  CB        19.6530  161.7090   67.9420 C.3   143  LEU143      0.0284
     66  CG        20.8460  162.6010   67.5820 C.3   143  LEU143      0.0019
     67  CD1       22.1590  161.8900   67.7810 C.3   143  LEU143      0.0001
     68  CD2       20.7320  163.0950   66.1460 C.3   143  LEU143      0.0001
     69  N         17.3260  160.1240   67.6350 N.am  144  LEU144     -0.1966
     70  CA        16.2520  159.1560   67.8100 C.3   144  LEU144      0.1713
     71  C         16.8620  157.7860   68.0050 C.2   144  LEU144      0.2458
     72  O         18.0360  157.5740   67.6760 O.2   144  LEU144     -0.2730
     73  CB        15.2880  159.1640   66.6120 C.3   144  LEU144      0.0310
     74  CG        15.6950  158.7320   65.2000 C.3   144  LEU144      0.0022
     75  CD1       15.7720  157.2270   65.0610 C.3   144  LEU144      0.0001
     76  CD2       14.7030  159.2930   64.1940 C.3   144  LEU144      0.0001
     77  N         16.1000  156.8170   68.5450 N.am  145  PRO145     -0.2716
     78  CA        16.5960  155.4390   68.6260 C.3   145  PRO145      0.1536
     79  C         16.6390  154.7820   67.2530 C.2   145  PRO145      0.2599
     80  O         15.6030  154.3510   66.7380 O.2   145  PRO145     -0.2715
     81  CB        15.5790  154.7460   69.5430 C.3   145  PRO145      0.0310
     82  CG        14.7750  155.8310   70.1550 C.3   145  PRO145      0.0237
     83  CD        14.7820  156.9560   69.1890 C.3   145  PRO145      0.0939
     84  N         17.8230  154.7010   66.6520 N.am  146  CYS146     -0.1954
     85  CA        17.9650  154.2380   65.2790 C.3   146  CYS146      0.1843
     86  C         18.2240  152.7410   65.1690 C.2   146  CYS146      0.2625
     87  O         18.3140  152.2280   64.0490 O.2   146  CYS146     -0.2714
     88  CB        19.0870  155.0090   64.5770 C.3   146  CYS146      0.0997
     89  SG        20.7650  154.5930   65.0960 S.3   146  CYS146     -0.0797
     90  N         18.3380  152.0260   66.2900 N.am  147  ALA147     -0.1977
     91  CA        18.5450  150.5840   66.2720 C.3   147  ALA147      0.1597
     92  C         17.2590  149.8090   66.5190 C.2   147  ALA147      0.2287
     93  O         17.2900  148.7240   67.1050 O.2   147  ALA147     -0.2864
     94  CB        19.6040  150.1820   67.2940 C.3   147  ALA147      0.0319
@<TRIPOS>BOND
     1    17    18    1
     2    87    86    2
     3    76    74    1
     4    19    18    1
     5    19    20    2
     6    88    89    1
     7    88    85    1
     8    18    21    1
     9    75    74    1
    10    14    12   ar
    11    14    16   ar
    12    86    85    1
    13    86    90   am
    14    74    73    1
    15    12    11   ar
    16    85    84    1
    17    21    22    1
    18    68    66    1
    19    16    15   ar
    20     7     8    1
    21     7    10    1
    22     7     6    1
    23    91    90    1
    24    91    92    1
    25    91    94    1
    26    11    10    1
    27    11    13   ar
    28    92    93    2
    29    22    24   ar
    30    22    23   ar
    31    24    26   ar
    32    73    70    1
    33     8     9    2
    34    84    79   am
    35    80    79    2
    36    79    78    1
    37    15    13   ar
    38    66    67    1
    39    66    65    1
    40    69    70    1
    41    69    63   am
    42    62    63    1
    43    62    65    1
    44    62    61    1
    45    72    71    2
    46    23    25   ar
    47    26    27   ar
    48    70    71    1
    49    63    64    2
    50    71    77   am
    51    77    78    1
    52    77    83    1
    53    78    81    1
    54    25    27   ar
    55    44    42   ar
    56    83    82    1
    57    81    82    1
    58    57    56    2
    59    42    43   ar
    60    42    41    1
    61     5     2    1
    62    56    55    1
    63    41    40    1
    64    40    37    1
    65    49    50    1
    66    49    46    1
    67    50    51    1
    68    39    38    2
    69    48    47    2
    70     2     3    1
    71     2     1    1
    72    60    58    1
    73    47    46    1
    74    53    51   ar
    75    38    37    1
    76    51    52   ar
    77    55    58    1
    78    55    54    1
    79    37    36    1
    80     3     4    2
    81    58    59    1
    82    46    45    1
    83    33    32    1
    84    33    34    1
    85    35    34    2
    86    32    30   am
    87    31    30    2
    88    30    29    1
    89    29    28    1
