@<TRIPOS>MOLECULE
tmp/5wyiC00.pdb
 104 107 0 0 0
SMALL
GASTEIGER

@<TRIPOS>ATOM
      1  N         45.9900   11.0500  -17.6380 N.3    24  PRO24      -0.2116
      2  CA        46.7770   11.6740  -18.7080 C.3    24  PRO24       0.1372
      3  C         46.4180   13.1420  -18.9220 C.2    24  PRO24       0.2244
      4  O         45.2820   13.5400  -18.6840 O.2    24  PRO24      -0.2868
      5  CB        46.4210   10.8370  -19.9430 C.3    24  PRO24       0.0268
      6  CG        45.1300   10.1800  -19.6070 C.3    24  PRO24       0.0207
      7  CD        45.1880    9.9200  -18.1360 C.3    24  PRO24       0.0892
      8  N         46.1170   14.7220  -21.5730 N.3    26  GLU26      -0.1231
      9  CA        45.1980   14.8000  -22.7040 C.3    26  GLU26       0.1699
     10  C         43.7420   15.0150  -22.2910 C.2    26  GLU26       0.2592
     11  O         42.9990   15.7360  -22.9510 O.2    26  GLU26      -0.2718
     12  CB        45.3110   13.5120  -23.5140 C.3    26  GLU26       0.0402
     13  CG        46.6160   12.7780  -23.2480 C.3    26  GLU26       0.1161
     14  CD        46.6730   11.4050  -23.8830 C.2    26  GLU26       0.3649
     15  OE1       46.6670   11.3180  -25.1270 O.co2  26  GLU26      -0.2457
     16  OE2       46.7250   10.4080  -23.1330 O.co2  26  GLU26      -0.2457
     17  N         43.3460   14.3830  -21.1910 N.am   27  HIS27      -0.1976
     18  CA        41.9650   14.4190  -20.7090 C.3    27  HIS27       0.1656
     19  C         41.6180   15.8010  -20.1450 C.2    27  HIS27       0.2291
     20  O         42.4280   16.4080  -19.4420 O.2    27  HIS27      -0.2864
     21  CB        41.7490   13.3400  -19.6470 C.3    27  HIS27       0.0771
     22  CG        41.8720   11.9450  -20.1680 C.ar   27  HIS27       0.0820
     23  ND1       41.4180   10.8510  -19.4660 N.ar   27  HIS27      -0.2267
     24  CD2       42.3920   11.4600  -21.3230 C.ar   27  HIS27       0.1154
     25  CE1       41.6530    9.7530  -20.1610 C.ar   27  HIS27       0.1986
     26  NE2       42.2440   10.0960  -21.2910 N.ar   27  HIS27      -0.2212
     27  N         35.3400    3.4440  -25.0040 N.3    55  HIS55      -0.1241
     28  CA        36.1800    3.5160  -26.1940 C.3    55  HIS55       0.1621
     29  C         37.4070    2.6250  -26.0220 C.2    55  HIS55       0.2264
     30  O         37.8740    2.4100  -24.9040 O.2    55  HIS55      -0.2867
     31  CB        36.6010    4.9600  -26.4710 C.3    55  HIS55       0.0745
     32  CG        37.1120    5.1860  -27.8600 C.ar   55  HIS55       0.0817
     33  ND1       38.4560    5.2020  -28.1650 N.ar   55  HIS55      -0.2268
     34  CD2       36.4590    5.4070  -29.0250 C.ar   55  HIS55       0.1154
     35  CE1       38.6080    5.4220  -29.4590 C.ar   55  HIS55       0.1986
     36  NE2       37.4120    5.5500  -30.0040 N.ar   55  HIS55      -0.2212
     37  N         40.3900    3.0660  -26.5110 N.3    57  THR57      -0.1203
     38  CA        41.5750    3.7490  -26.0080 C.3    57  THR57       0.1994
     39  C         41.7050    3.6060  -24.4950 C.2    57  THR57       0.2618
     40  O         42.7860    3.7900  -23.9360 O.2    57  THR57      -0.2717
     41  CB        41.5590    5.2400  -26.3780 C.3    57  THR57       0.1784
     42  OG1       40.2750    5.7900  -26.0640 O.3    57  THR57      -0.2211
     43  CG2       41.8230    5.4180  -27.8650 C.3    57  THR57       0.0376
     44  N         40.5990    3.2760  -23.8360 N.am   58  TYR58      -0.1962
     45  CA        40.6110    3.0410  -22.3970 C.3    58  TYR58       0.1756
     46  C         41.1180    1.6380  -22.0930 C.2    58  TYR58       0.2461
     47  O         40.7580    0.6840  -22.7810 O.2    58  TYR58      -0.2730
     48  CB        39.2140    3.2330  -21.8030 C.3    58  TYR58       0.0574
     49  CG        38.7820    4.6770  -21.6920 C.ar   58  TYR58      -0.0198
     50  CD1       38.1680    5.3210  -22.7580 C.ar   58  TYR58      -0.0009
     51  CD2       38.9900    5.3960  -20.5220 C.ar   58  TYR58      -0.0009
     52  CE1       37.7710    6.6420  -22.6610 C.ar   58  TYR58       0.0417
     53  CE2       38.5980    6.7170  -20.4160 C.ar   58  TYR58       0.0417
     54  CZ        37.9890    7.3350  -21.4890 C.ar   58  TYR58       0.1957
     55  OH        37.5960    8.6500  -21.3880 O.3    58  TYR58      -0.2866
     56  N         41.9650    1.5090  -21.0600 N.am   59  PRO59      -0.2727
     57  CA        42.4180    0.1840  -20.6280 C.3    59  PRO59       0.1402
     58  C         41.2530   -0.6540  -20.1180 C.2    59  PRO59       0.2269
     59  O         40.5100   -0.1880  -19.2530 O.2    59  PRO59      -0.2865
     60  CB        43.4050    0.4970  -19.4960 C.3    59  PRO59       0.0296
     61  CG        43.8110    1.9200  -19.7180 C.3    59  PRO59       0.0237
     62  CD        42.6050    2.5910  -20.2940 C.3    59  PRO59       0.0939
     63  N         38.3130   12.0090  -19.5010 N.3    76  GLY76      -0.1210
     64  CA        38.3940   11.9540  -20.9500 C.3    76  GLY76       0.1956
     65  C         38.4700   13.3130  -21.6130 C.2    76  GLY76       0.2612
     66  O         38.4220   14.3400  -20.9450 O.2    76  GLY76      -0.2717
     67  N         38.5970   13.3190  -22.9360 N.am   77  TRP77      -0.1962
     68  CA        38.6480   14.5660  -23.6910 C.3    77  TRP77       0.1771
     69  C         37.6500   14.5710  -24.8470 C.2    77  TRP77       0.2620
     70  O         37.2550   15.6320  -25.3290 O.2    77  TRP77      -0.2715
     71  CB        40.0660   14.8220  -24.2110 C.3    77  TRP77       0.0590
     72  CG        40.5900   13.7590  -25.1270 C.ar   77  TRP77       0.0006
     73  CD1       41.3650   12.6890  -24.7820 C.ar   77  TRP77       0.0946
     74  CD2       40.3950   13.6670  -26.5470 C.ar   77  TRP77       0.0152
     75  NE1       41.6570   11.9360  -25.8940 N.ar   77  TRP77      -0.2442
     76  CE2       41.0730   12.5150  -26.9860 C.ar   77  TRP77       0.0810
     77  CE3       39.7080   14.4500  -27.4800 C.ar   77  TRP77       0.0012
     78  CZ2       41.0840   12.1250  -28.3260 C.ar   77  TRP77       0.0191
     79  CZ3       39.7210   14.0590  -28.8080 C.ar   77  TRP77       0.0001
     80  CH2       40.4050   12.9080  -29.2180 C.ar   77  TRP77       0.0015
     81  N         37.2440   13.3840  -25.2860 N.am   78  GLY78      -0.1940
     82  CA        36.3880   13.2630  -26.4510 C.3    78  GLY78       0.2014
     83  C         35.0630   12.5730  -26.1870 C.2    78  GLY78       0.2639
     84  O         34.9410   11.7570  -25.2740 O.2    78  GLY78      -0.2714
     85  N         34.0650   12.9120  -26.9980 N.am   79  GLU79      -0.1963
     86  CA        32.7460   12.2970  -26.9140 C.3    79  GLU79       0.1733
     87  C         32.6780   11.0310  -27.7670 C.2    79  GLU79       0.2616
     88  O         33.2100   10.9960  -28.8750 O.2    79  GLU79      -0.2715
     89  CB        31.6740   13.2960  -27.3530 C.3    79  GLU79       0.0429
     90  CG        31.6310   14.5620  -26.5070 C.3    79  GLU79       0.1163
     91  CD        30.5040   15.4970  -26.9040 C.2    79  GLU79       0.3649
     92  OE1       29.9910   15.3670  -28.0350 O.co2  79  GLU79      -0.2457
     93  OE2       30.1310   16.3620  -26.0830 O.co2  79  GLU79      -0.2457
     94  N         32.0120    9.9990  -27.2580 N.am   80  PHE80      -0.1974
     95  CA        31.9090    8.7330  -27.9810 C.3    80  PHE80       0.1639
     96  C         30.7250    7.8960  -27.5070 C.2    80  PHE80       0.2290
     97  O         30.1000    8.2040  -26.4930 O.2    80  PHE80      -0.2864
     98  CB        33.2030    7.9270  -27.8390 C.3    80  PHE80       0.0560
     99  CG        33.5880    7.6370  -26.4150 C.ar   80  PHE80      -0.0200
    100  CD1       34.3440    8.5420  -25.6880 C.ar   80  PHE80      -0.0042
    101  CD2       33.1980    6.4550  -25.8040 C.ar   80  PHE80      -0.0042
    102  CE1       34.7000    8.2770  -24.3790 C.ar   80  PHE80      -0.0003
    103  CE2       33.5510    6.1850  -24.4950 C.ar   80  PHE80      -0.0003
    104  CZ        34.3030    7.0970  -23.7820 C.ar   80  PHE80      -0.0000
@<TRIPOS>BOND
     1    36    35   ar
     2    36    34   ar
     3    35    33   ar
     4    80    79   ar
     5    80    78   ar
     6    34    32   ar
     7    88    87    2
     8    79    77   ar
     9    78    76   ar
    10    33    32   ar
    11    92    91   ar
    12    95    98    1
    13    95    96    1
    14    95    94    1
    15    43    41    1
    16    32    31    1
    17    98    99    1
    18    87    94   am
    19    87    86    1
    20    96    97    2
    21    77    74   ar
    22    89    86    1
    23    89    90    1
    24    85    86    1
    25    85    83   am
    26    76    74   ar
    27    76    75   ar
    28    91    90    1
    29    91    93   ar
    30    74    72   ar
    31    37    38    1
    32    31    28    1
    33    82    83    1
    34    82    81    1
    35    99   101   ar
    36    99   100   ar
    37    41    42    1
    38    41    38    1
    39    28    29    1
    40    28    27    1
    41    83    84    2
    42    29    30    2
    43    38    39    1
    44    75    73   ar
    45   101   103   ar
    46   100   102   ar
    47    70    69    2
    48    81    69   am
    49    15    14   ar
    50    72    73   ar
    51    72    71    1
    52    69    68    1
    53   103   104   ar
    54    39    40    2
    55    39    44   am
    56   102   104   ar
    57    71    68    1
    58    14    13    1
    59    14    16   ar
    60    44    45    1
    61    68    67    1
    62    12    13    1
    63    12     9    1
    64    11    10    2
    65    67    65   am
    66    47    46    2
    67    50    52   ar
    68    50    49   ar
    69     9    10    1
    70     9     8    1
    71    52    54   ar
    72    45    46    1
    73    45    48    1
    74    10    17   am
    75    46    56   am
    76    48    49    1
    77    49    51   ar
    78    65    64    1
    79    65    66    2
    80    54    55    1
    81    54    53   ar
    82    24    26   ar
    83    24    22   ar
    84    26    25   ar
    85    17    18    1
    86    56    57    1
    87    56    62    1
    88    64    63    1
    89    18    19    1
    90    18    21    1
    91    57    58    1
    92    57    60    1
    93    51    53   ar
    94    62    61    1
    95    22    21    1
    96    22    23   ar
    97    25    23   ar
    98    19    20    2
    99    58    59    2
   100     5     6    1
   101     5     2    1
   102    61    60    1
   103     6     7    1
   104     3     2    1
   105     3     4    2
   106     2     1    1
   107     7     1    1
