@<TRIPOS>MOLECULE
tmp/5wyiB00.pdb
 95 97 0 0 0
SMALL
GASTEIGER

@<TRIPOS>ATOM
      1  N         75.7830   -7.0590  -11.5840 N.3    29  PRO29      -0.2116
      2  CA        76.2180   -7.9270  -12.6840 C.3    29  PRO29       0.1372
      3  C         77.7310   -7.8950  -12.8880 C.2    29  PRO29       0.2244
      4  O         78.3620   -6.8630  -12.6550 O.2    29  PRO29      -0.2868
      5  CB        75.4930   -7.3420  -13.9010 C.3    29  PRO29       0.0268
      6  CG        74.3130   -6.6280  -13.3320 C.3    29  PRO29       0.0207
      7  CD        74.7790   -6.0740  -12.0200 C.3    29  PRO29       0.0892
      8  N         79.3070   -8.1450  -15.6500 N.3    31  GLU31      -0.1231
      9  CA        79.5600   -7.3500  -16.8490 C.3    31  GLU31       0.1699
     10  C         79.9700   -5.9040  -16.5590 C.2    31  GLU31       0.2592
     11  O         80.7570   -5.3140  -17.2990 O.2    31  GLU31      -0.2718
     12  CB        78.3190   -7.3570  -17.7440 C.3    31  GLU31       0.0402
     13  CG        78.5800   -6.9210  -19.1760 C.3    31  GLU31       0.1161
     14  CD        77.3050   -6.5710  -19.9170 C.2    31  GLU31       0.3649
     15  OE1       76.2160   -6.6970  -19.3190 O.co2  31  GLU31      -0.2457
     16  OE2       77.3920   -6.1760  -21.1000 O.co2  31  GLU31      -0.2457
     17  N         79.4300   -5.3410  -15.4820 N.am   32  HIS32      -0.1976
     18  CA        79.5970   -3.9220  -15.1730 C.3    32  HIS32       0.1656
     19  C         81.0300   -3.5540  -14.7920 C.2    32  HIS32       0.2291
     20  O         81.6900   -4.2860  -14.0600 O.2    32  HIS32      -0.2864
     21  CB        78.6470   -3.5220  -14.0430 C.3    32  HIS32       0.0771
     22  CG        77.1990   -3.6480  -14.4010 C.ar   32  HIS32       0.0820
     23  ND1       76.1970   -3.0380  -13.6800 N.ar   32  HIS32      -0.2267
     24  CD2       76.5810   -4.3490  -15.3820 C.ar   32  HIS32       0.1154
     25  CE1       75.0260   -3.3320  -14.2160 C.ar   32  HIS32       0.1986
     26  NE2       75.2330   -4.1290  -15.2520 N.ar   32  HIS32      -0.2212
     27  N         68.8820    3.8150  -20.2130 N.3    60  HIS60      -0.1241
     28  CA        68.8300    2.9540  -21.3890 C.3    60  HIS60       0.1621
     29  C         67.9230    1.7530  -21.1290 C.2    60  HIS60       0.2264
     30  O         67.7630    1.3260  -19.9860 O.2    60  HIS60      -0.2867
     31  CB        70.2360    2.4930  -21.7780 C.3    60  HIS60       0.0745
     32  CG        70.3360    1.9660  -23.1740 C.ar   60  HIS60       0.0817
     33  ND1       70.2930    0.6230  -23.4710 N.ar   60  HIS60      -0.2268
     34  CD2       70.4790    2.6080  -24.3610 C.ar   60  HIS60       0.1154
     35  CE1       70.4040    0.4560  -24.7770 C.ar   60  HIS60       0.1986
     36  NE2       70.5180    1.6460  -25.3380 N.ar   60  HIS60      -0.2212
     37  N         68.3190   -1.2170  -21.5350 N.3    62  THR62      -0.1203
     38  CA        69.0200   -2.3900  -21.0270 C.3    62  THR62       0.1994
     39  C         68.9220   -2.4590  -19.5050 C.2    62  THR62       0.2618
     40  O         69.1020   -3.5210  -18.9110 O.2    62  THR62      -0.2717
     41  CB        70.5020   -2.3940  -21.4450 C.3    62  THR62       0.1784
     42  OG1       71.0850   -1.1150  -21.1630 O.3    62  THR62      -0.2211
     43  CG2       70.6350   -2.6880  -22.9300 C.3    62  THR62       0.0376
     44  N         68.6320   -1.3210  -18.8800 N.am   63  TYR63      -0.1962
     45  CA        68.4260   -1.2670  -17.4350 C.3    63  TYR63       0.1756
     46  C         67.0170   -1.6900  -17.0340 C.2    63  TYR63       0.2461
     47  O         66.0420   -1.3180  -17.6870 O.2    63  TYR63      -0.2730
     48  CB        68.7040    0.1410  -16.8990 C.3    63  TYR63       0.0574
     49  CG        70.1700    0.4940  -16.7870 C.ar   63  TYR63      -0.0198
     50  CD1       70.8660    1.0170  -17.8670 C.ar   63  TYR63      -0.0009
     51  CD2       70.8540    0.3120  -15.5920 C.ar   63  TYR63      -0.0009
     52  CE1       72.2060    1.3430  -17.7620 C.ar   63  TYR63       0.0417
     53  CE2       72.1920    0.6340  -15.4770 C.ar   63  TYR63       0.0417
     54  CZ        72.8640    1.1500  -16.5650 C.ar   63  TYR63       0.1957
     55  OH        74.1970    1.4710  -16.4550 O.3    63  TYR63      -0.2866
     56  N         66.9110   -2.4780  -15.9540 N.am   64  PRO64      -0.2727
     57  CA        65.6230   -2.8570  -15.3630 C.3    64  PRO64       0.1402
     58  C         64.8950   -1.6350  -14.8090 C.2    64  PRO64       0.2269
     59  O         65.5030   -0.8570  -14.0710 O.2    64  PRO64      -0.2865
     60  CB        66.0170   -3.8250  -14.2430 C.3    64  PRO64       0.0296
     61  CG        67.4280   -3.4720  -13.9160 C.3    64  PRO64       0.0237
     62  CD        68.0470   -3.0590  -15.2160 C.3    64  PRO64       0.0939
     63  N         77.4400    0.1670  -14.4110 N.3    81  GLY81      -0.1210
     64  CA        77.2800   -0.0010  -15.8430 C.3    81  GLY81       0.1956
     65  C         78.5660   -0.2560  -16.6010 C.2    81  GLY81       0.2612
     66  O         79.6430   -0.2950  -16.0140 O.2    81  GLY81      -0.2717
     67  N         78.4540   -0.4350  -17.9130 N.am   82  TRP82      -0.1962
     68  CA        79.6270   -0.6600  -18.7500 C.3    82  TRP82       0.1771
     69  C         79.6700    0.3230  -19.9110 C.2    82  TRP82       0.2620
     70  O         80.7340    0.5910  -20.4690 O.2    82  TRP82      -0.2715
     71  CB        79.6470   -2.0940  -19.2940 C.3    82  TRP82       0.0590
     72  CG        78.4600   -2.4370  -20.1590 C.ar   82  TRP82       0.0006
     73  CD1       77.3150   -3.0630  -19.7650 C.ar   82  TRP82       0.0946
     74  CD2       78.3060   -2.1680  -21.5620 C.ar   82  TRP82       0.0152
     75  NE1       76.4570   -3.2000  -20.8290 N.ar   82  TRP82      -0.2442
     76  CE2       77.0400   -2.6610  -21.9410 C.ar   82  TRP82       0.0810
     77  CE3       79.1130   -1.5620  -22.5280 C.ar   82  TRP82       0.0012
     78  CZ2       76.5660   -2.5640  -23.2490 C.ar   82  TRP82       0.0191
     79  CZ3       78.6370   -1.4650  -23.8240 C.ar   82  TRP82       0.0001
     80  CH2       77.3760   -1.9650  -24.1730 C.ar   82  TRP82       0.0015
     81  N         78.5100    0.8590  -20.2740 N.am   83  GLY83      -0.1954
     82  CA        78.4110    1.7060  -21.4460 C.3    83  GLY83       0.1869
     83  C         77.8850    3.1100  -21.2250 C.2    83  GLY83       0.2309
     84  O         77.1330    3.3710  -20.2860 O.2    83  GLY83      -0.2863
     85  N         75.5850    6.3040  -22.4390 N.3    85  PHE85      -0.1241
     86  CA        74.3220    6.4820  -23.1440 C.3    85  PHE85       0.1605
     87  C         73.6410    7.7820  -22.7360 C.2    85  PHE85       0.2264
     88  O         74.0290    8.4170  -21.7560 O.2    85  PHE85      -0.2867
     89  CB        73.3910    5.2940  -22.8820 C.3    85  PHE85       0.0534
     90  CG        73.1040    5.0580  -21.4250 C.ar   85  PHE85      -0.0203
     91  CD1       73.9520    4.2790  -20.6550 C.ar   85  PHE85      -0.0042
     92  CD2       71.9810    5.6070  -20.8290 C.ar   85  PHE85      -0.0042
     93  CE1       73.6900    4.0600  -19.3160 C.ar   85  PHE85      -0.0003
     94  CE2       71.7130    5.3900  -19.4910 C.ar   85  PHE85      -0.0003
     95  CZ        72.5690    4.6170  -18.7340 C.ar   85  PHE85      -0.0000
@<TRIPOS>BOND
     1    36    35   ar
     2    36    34   ar
     3    35    33   ar
     4    34    32   ar
     5    80    79   ar
     6    80    78   ar
     7    79    77   ar
     8    33    32   ar
     9    78    76   ar
    10    32    31    1
    11    86    89    1
    12    86    87    1
    13    86    85    1
    14    43    41    1
    15    89    90    1
    16    87    88    2
    17    77    74   ar
    18    76    74   ar
    19    76    75   ar
    20    31    28    1
    21    74    72   ar
    22    37    38    1
    23    82    83    1
    24    82    81    1
    25    41    42    1
    26    41    38    1
    27    90    92   ar
    28    90    91   ar
    29    28    29    1
    30    28    27    1
    31    83    84    2
    32    29    30    2
    33    16    14   ar
    34    38    39    1
    35    75    73   ar
    36    92    94   ar
    37    91    93   ar
    38    70    69    2
    39    81    69   am
    40    72    73   ar
    41    72    71    1
    42    14    15   ar
    43    14    13    1
    44    69    68    1
    45    39    40    2
    46    39    44   am
    47    94    95   ar
    48    93    95   ar
    49    71    68    1
    50    13    12    1
    51    44    45    1
    52    68    67    1
    53    67    65   am
    54    50    52   ar
    55    50    49   ar
    56    52    54   ar
    57    12     9    1
    58    47    46    2
    59    45    46    1
    60    45    48    1
    61    11    10    2
    62    46    56   am
    63    48    49    1
    64     9    10    1
    65     9     8    1
    66    49    51   ar
    67    65    66    2
    68    65    64    1
    69    54    55    1
    70    54    53   ar
    71    10    17   am
    72    56    57    1
    73    56    62    1
    74    64    63    1
    75    51    53   ar
    76    17    18    1
    77    24    26   ar
    78    24    22   ar
    79    57    58    1
    80    57    60    1
    81    26    25   ar
    82    62    61    1
    83    18    19    1
    84    18    21    1
    85    58    59    2
    86    19    20    2
    87    22    21    1
    88    22    23   ar
    89    60    61    1
    90    25    23   ar
    91     5     6    1
    92     5     2    1
    93     6     7    1
    94     3     2    1
    95     3     4    2
    96     2     1    1
    97     7     1    1
