@<TRIPOS>MOLECULE
tmp/5wyqA00.pdb
 162 164 0 0 0
SMALL
GASTEIGER

@<TRIPOS>ATOM
      1  N        -42.6000   16.8120  -30.0210 N.3    89  TYR89      -0.1227
      2  CA       -41.4960   15.8470  -30.0050 C.3    89  TYR89       0.1736
      3  C        -40.3830   16.4900  -29.1890 C.2    89  TYR89       0.2595
      4  O        -40.0120   17.6500  -29.4210 O.2    89  TYR89      -0.2718
      5  CB       -41.0250   15.4980  -31.4310 C.3    89  TYR89       0.0548
      6  CG       -39.7470   14.6790  -31.5140 C.ar   89  TYR89      -0.0200
      7  CD1      -39.5970   13.5030  -30.7810 C.ar   89  TYR89      -0.0009
      8  CD2      -38.7040   15.0600  -32.3570 C.ar   89  TYR89      -0.0009
      9  CE1      -38.4270   12.7530  -30.8530 C.ar   89  TYR89       0.0417
     10  CE2      -37.5310   14.3000  -32.4500 C.ar   89  TYR89       0.0417
     11  CZ       -37.4000   13.1480  -31.6990 C.ar   89  TYR89       0.1957
     12  OH       -36.2350   12.4120  -31.7530 O.3    89  TYR89      -0.2866
     13  N        -39.9410   15.7700  -28.1670 N.am   90  LEU90      -0.1966
     14  CA       -38.8570   16.1960  -27.2840 C.3    90  LEU90       0.1728
     15  C        -37.5600   15.8990  -27.9980 C.2    90  LEU90       0.2617
     16  O        -37.3300   14.7370  -28.3210 O.2    90  LEU90      -0.2715
     17  CB       -38.8950   15.4420  -25.9140 C.3    90  LEU90       0.0311
     18  CG       -39.9180   15.8960  -24.8130 C.3    90  LEU90       0.0022
     19  CD1      -39.7030   17.3500  -24.3800 C.3    90  LEU90       0.0001
     20  CD2      -41.3860   15.6550  -25.2260 C.3    90  LEU90       0.0001
     21  N        -36.7060   16.9180  -28.2510 N.am   91  SER91      -0.1936
     22  CA       -35.3780   16.6820  -28.8580 C.3    91  SER91       0.2040
     23  C        -34.4390   17.8660  -28.6430 C.2    91  SER91       0.2485
     24  O        -34.9350   18.9980  -28.6180 O.2    91  SER91      -0.2729
     25  CB       -35.4850   16.3880  -30.3620 C.3    91  SER91       0.2129
     26  OG       -35.7990   17.5420  -31.1130 O.3    91  SER91      -0.2179
     27  N        -33.0960   17.6480  -28.6530 N.am   92  PRO92      -0.2715
     28  CA       -32.1620   18.7850  -28.4890 C.3    92  PRO92       0.1536
     29  C        -32.1970   19.8220  -29.6220 C.2    92  PRO92       0.2598
     30  O        -31.7650   20.9700  -29.4460 O.2    92  PRO92      -0.2715
     31  CB       -30.7770   18.1250  -28.3340 C.3    92  PRO92       0.0310
     32  CG       -30.9290   16.6890  -28.7030 C.3    92  PRO92       0.0237
     33  CD       -32.3880   16.3440  -28.6900 C.3    92  PRO92       0.0939
     34  N        -32.7840   19.4270  -30.7690 N.am   93  GLN93      -0.1978
     35  CA       -32.9840   20.2480  -31.9550 C.3    93  GLN93       0.1601
     36  C        -34.2340   21.1650  -31.8490 C.2    93  GLN93       0.2287
     37  O        -34.5040   21.8990  -32.7950 O.2    93  GLN93      -0.2864
     38  CB       -33.1350   19.3320  -33.1760 C.3    93  GLN93       0.0394
     39  CG       -31.8110   18.8720  -33.7800 C.3    93  GLN93       0.0908
     40  CD       -31.1660   17.7520  -33.0300 C.2    93  GLN93       0.2608
     41  OE1      -30.0660   17.9010  -32.4700 O.2    93  GLN93      -0.2717
     42  NE2      -31.8340   16.6030  -33.0020 N.am   93  GLN93      -0.0878
     43  N        -38.4610   10.2190  -27.7670 N.3   116  GLY116     -0.1210
     44  CA       -37.5690    9.4600  -28.6180 C.3   116  GLY116      0.1956
     45  C        -36.5960    8.6060  -27.8350 C.2   116  GLY116      0.2612
     46  O        -36.3470    8.8490  -26.6540 O.2   116  GLY116     -0.2717
     47  N        -36.0690    7.6290  -28.5220 N.am  117  ARG117     -0.1965
     48  CA       -35.0450    6.7490  -28.0460 C.3   117  ARG117      0.1729
     49  C        -34.0520    6.5450  -29.1990 C.2   117  ARG117      0.2616
     50  O        -34.2920    6.9590  -30.3080 O.2   117  ARG117     -0.2715
     51  CB       -35.6140    5.4400  -27.5370 C.3   117  ARG117      0.0348
     52  CG       -36.1840    5.5180  -26.1460 C.3   117  ARG117      0.0492
     53  CD       -35.1160    5.3430  -25.1040 C.3   117  ARG117      0.2205
     54  NE       -35.3400    6.1740  -23.9470 N.pl3 117  ARG117     -0.0865
     55  CZ       -34.6090    6.1460  -22.8530 C.cat 117  ARG117      0.5346
     56  NH1      -34.8880    6.9520  -21.8580 N.pl3 117  ARG117      0.1354
     57  NH2      -33.6000    5.3260  -22.7550 N.pl3 117  ARG117      0.1354
     58  N        -32.9310    5.9130  -28.9010 N.am  118  TYR118     -0.1960
     59  CA       -31.8380    5.6600  -29.8330 C.3   118  TYR118      0.1771
     60  C        -31.1830    6.9030  -30.4050 C.2   118  TYR118      0.2619
     61  O        -30.7910    7.7800  -29.6630 O.2   118  TYR118     -0.2715
     62  CB       -32.1910    4.6260  -30.8990 C.3   118  TYR118      0.0574
     63  CG       -33.0390    3.5110  -30.3730 C.ar  118  TYR118     -0.0198
     64  CD1      -32.4840    2.5000  -29.6400 C.ar  118  TYR118     -0.0009
     65  CD2      -34.3780    3.4710  -30.6060 C.ar  118  TYR118     -0.0009
     66  CE1      -33.2370    1.4820  -29.1600 C.ar  118  TYR118      0.0417
     67  CE2      -35.1420    2.4580  -30.1140 C.ar  118  TYR118      0.0417
     68  CZ       -34.5560    1.4680  -29.3910 C.ar  118  TYR118      0.1957
     69  OH       -35.2920    0.4430  -28.8940 O.3   118  TYR118     -0.2866
     70  N        -31.0610    6.9760  -31.7180 N.am  119  GLU119     -0.1963
     71  CA       -30.4340    8.1180  -32.3510 C.3   119  GLU119      0.1733
     72  C        -31.4960    9.1190  -32.7380 C.2   119  GLU119      0.2616
     73  O        -31.2010   10.1950  -33.1360 O.2   119  GLU119     -0.2715
     74  CB       -29.6040    7.7330  -33.5610 C.3   119  GLU119      0.0429
     75  CG       -28.1630    7.3640  -33.2690 C.3   119  GLU119      0.1163
     76  CD       -27.9060    6.8160  -31.8690 C.2   119  GLU119      0.3649
     77  OE1      -28.4340    5.7440  -31.5090 O.co2 119  GLU119     -0.2457
     78  OE2      -27.1360    7.4450  -31.1290 O.co2 119  GLU119     -0.2457
     79  N        -32.7410    8.7540  -32.6090 N.am  120  GLY120     -0.1955
     80  CA       -33.8410    9.6530  -32.9030 C.3   120  GLY120      0.1869
     81  C        -34.9250    8.9830  -33.6950 C.2   120  GLY120      0.2309
     82  O        -34.9340    7.7540  -33.8300 O.2   120  GLY120     -0.2863
     83  N        -39.4560   20.6500  -28.9980 N.3   134  TRP134     -0.1227
     84  CA       -39.0590   21.3430  -27.7610 C.3   134  TRP134      0.1737
     85  C        -37.8570   20.6670  -27.1100 C.2   134  TRP134      0.2596
     86  O        -37.8370   19.4380  -26.9890 O.2   134  TRP134     -0.2718
     87  CB       -40.2160   21.3320  -26.7600 C.3   134  TRP134      0.0564
     88  CG       -41.3210   22.2920  -27.0530 C.ar  134  TRP134      0.0003
     89  CD1      -42.4070   22.0740  -27.8500 C.ar  134  TRP134      0.0946
     90  CD2      -41.4170   23.6430  -26.6070 C.ar  134  TRP134      0.0152
     91  NE1      -43.2150   23.1810  -27.8620 N.ar  134  TRP134     -0.2442
     92  CE2      -42.6320   24.1640  -27.1080 C.ar  134  TRP134      0.0810
     93  CE3      -40.6250   24.4540  -25.7720 C.ar  134  TRP134      0.0012
     94  CZ2      -43.0650   25.4590  -26.8210 C.ar  134  TRP134      0.0191
     95  CZ3      -41.0760   25.7300  -25.4640 C.ar  134  TRP134      0.0001
     96  CH2      -42.2900   26.2110  -25.9700 C.ar  134  TRP134      0.0015
     97  N        -36.8420   21.4740  -26.7000 N.am  135  SER135     -0.1938
     98  CA       -35.6680   20.9690  -25.9800 C.3   135  SER135      0.2055
     99  C        -35.7560   21.4410  -24.5300 C.2   135  SER135      0.2643
    100  O        -36.3400   22.4800  -24.2770 O.2   135  SER135     -0.2714
    101  CB       -34.3740   21.4870  -26.5990 C.3   135  SER135      0.2130
    102  OG       -33.2410   20.9090  -25.9660 O.3   135  SER135     -0.2179
    103  N        -35.1940   20.6930  -23.5850 N.am  136  ILE136     -0.1963
    104  CA       -35.1650   21.1400  -22.1900 C.3   136  ILE136      0.1727
    105  C        -33.8220   21.8640  -21.9170 C.2   136  ILE136      0.2616
    106  O        -33.6790   22.5520  -20.9140 O.2   136  ILE136     -0.2715
    107  CB       -35.5310   20.0310  -21.1540 C.3   136  ILE136      0.0290
    108  CG1      -34.5550   18.8190  -21.2250 C.3   136  ILE136      0.0022
    109  CG2      -37.0270   19.6050  -21.2950 C.3   136  ILE136      0.0023
    110  CD1      -34.4070   18.0590  -19.8220 C.3   136  ILE136      0.0001
    111  N        -32.8810   21.7530  -22.8570 N.am  137  GLY137     -0.1955
    112  CA       -31.5780   22.4000  -22.7650 C.3   137  GLY137      0.1869
    113  C        -30.5310   21.8290  -23.6760 C.2   137  GLY137      0.2309
    114  O        -30.6990   20.7300  -24.2060 O.2   137  GLY137     -0.2863
    115  N        -28.0370   19.8790  -24.0610 N.3   139  TYR139     -0.1227
    116  CA       -27.3120   18.6660  -23.6730 C.3   139  TYR139      0.1736
    117  C        -28.0620   17.4600  -24.2510 C.2   139  TYR139      0.2595
    118  O        -29.2400   17.5740  -24.6220 O.2   139  TYR139     -0.2718
    119  CB       -27.1030   18.5960  -22.1090 C.3   139  TYR139      0.0548
    120  CG       -28.3290   19.0270  -21.3330 C.ar  139  TYR139     -0.0200
    121  CD1      -29.3930   18.1490  -21.1320 C.ar  139  TYR139     -0.0009
    122  CD2      -28.4830   20.3490  -20.9070 C.ar  139  TYR139     -0.0009
    123  CE1      -30.5620   18.5590  -20.4920 C.ar  139  TYR139      0.0417
    124  CE2      -29.6470   20.7660  -20.2580 C.ar  139  TYR139      0.0417
    125  CZ       -30.6820   19.8590  -20.0430 C.ar  139  TYR139      0.1957
    126  OH       -31.8590   20.2340  -19.4350 O.3   139  TYR139     -0.2866
    127  N        -27.3880   16.3270  -24.3440 N.am  140  VAL140     -0.1966
    128  CA       -27.9350   15.1200  -24.9500 C.3   140  VAL140      0.1727
    129  C        -28.2550   14.0830  -23.9000 C.2   140  VAL140      0.2616
    130  O        -27.3590   13.6190  -23.1570 O.2   140  VAL140     -0.2715
    131  CB       -27.0180   14.5450  -26.0780 C.3   140  VAL140      0.0290
    132  CG1      -27.5850   13.2410  -26.6620 C.3   140  VAL140      0.0023
    133  CG2      -26.8380   15.5730  -27.1920 C.3   140  VAL140      0.0023
    134  N        -29.5250   13.6700  -23.9000 N.am  141  LEU141     -0.1963
    135  CA       -30.0170   12.6370  -22.9950 C.3   141  LEU141      0.1728
    136  C        -30.2290   11.3300  -23.7660 C.2   141  LEU141      0.2617
    137  O        -30.2250   11.3560  -24.9970 O.2   141  LEU141     -0.2715
    138  CB       -31.3110   13.1120  -22.3200 C.3   141  LEU141      0.0311
    139  CG       -31.2060   14.3470  -21.3820 C.3   141  LEU141      0.0022
    140  CD1      -32.4810   14.5650  -20.6250 C.3   141  LEU141      0.0001
    141  CD2      -30.1320   14.1710  -20.3530 C.3   141  LEU141      0.0001
    142  N        -30.3730   10.1740  -23.0610 N.am  142  SER142     -0.1936
    143  CA       -30.5520    8.8620  -23.7140 C.3   142  SER142      0.2055
    144  C        -31.9470    8.6790  -24.2490 C.2   142  SER142      0.2644
    145  O        -32.1470    7.8130  -25.0810 O.2   142  SER142     -0.2714
    146  CB       -30.1780    7.7280  -22.7730 C.3   142  SER142      0.2130
    147  OG       -31.1360    7.6540  -21.7290 O.3   142  SER142     -0.2179
    148  N        -32.8950    9.4940  -23.7830 N.am  143  GLY143     -0.1939
    149  CA       -34.2730    9.4110  -24.2190 C.3   143  GLY143      0.2014
    150  C        -35.0620   10.6300  -23.8430 C.2   143  GLY143      0.2639
    151  O        -34.5750   11.4720  -23.0740 O.2   143  GLY143     -0.2714
    152  N        -36.2670   10.7210  -24.4100 N.am  144  GLY144     -0.1954
    153  CA       -37.1760   11.8460  -24.2140 C.3   144  GLY144      0.1869
    154  C        -38.0690   11.7870  -22.9980 C.2   144  GLY144      0.2309
    155  O        -38.8450   12.7150  -22.7760 O.2   144  GLY144     -0.2863
    156  N        -37.0950   14.5760  -20.3020 N.3   147  PRO147     -0.2116
    157  CA       -37.5620   15.8740  -20.8220 C.3   147  PRO147      0.1372
    158  C        -39.0690   16.0290  -20.8620 C.2   147  PRO147      0.2244
    159  O        -39.5750   17.1400  -20.6410 O.2   147  PRO147     -0.2868
    160  CB       -36.9450   15.9430  -22.2330 C.3   147  PRO147      0.0268
    161  CG       -35.7510   15.0620  -22.1740 C.3   147  PRO147      0.0207
    162  CD       -36.1520   13.9410  -21.2570 C.3   147  PRO147      0.0892
@<TRIPOS>BOND
     1    82    81    2
     2    39    38    1
     3    39    40    1
     4    81    80    1
     5    74    75    1
     6    74    71    1
     7    75    76    1
     8    38    35    1
     9    73    72    2
    10    40    42   am
    11    40    41    2
    12    80    79    1
    13    37    36    2
    14    72    79   am
    15    72    71    1
    16    10     8   ar
    17    10    11   ar
    18     8     6   ar
    19    71    70    1
    20    35    36    1
    21    35    34    1
    22    76    77   ar
    23    76    78   ar
    24    12    11    1
    25    70    60   am
    26    11     9   ar
    27     6     5    1
    28     6     7   ar
    29     5     2    1
    30    26    25    1
    31    62    63    1
    32    62    59    1
    33     9     7   ar
    34    34    29   am
    35    65    63   ar
    36    65    67   ar
    37    60    59    1
    38    60    61    2
    39    63    64   ar
    40    25    22    1
    41    50    49    2
    42    67    68   ar
    43     1     2    1
    44     2     3    1
    45    59    58    1
    46    64    66   ar
    47    29    30    2
    48    29    28    1
    49     4     3    2
    50    68    66   ar
    51    68    69    1
    52    49    58   am
    53    49    48    1
    54     3    13   am
    55    83    84    1
    56    22    23    1
    57    22    21    1
    58    32    33    1
    59    32    31    1
    60    33    27    1
    61    27    23   am
    62    27    28    1
    63    23    24    2
    64    44    45    1
    65    44    43    1
    66    47    48    1
    67    47    45   am
    68    28    31    1
    69    16    15    2
    70    21    15   am
    71    13    14    1
    72    48    51    1
    73    15    14    1
    74    91    89   ar
    75    91    92   ar
    76    89    88   ar
    77    45    46    2
    78    84    85    1
    79    84    87    1
    80    51    52    1
    81    14    17    1
    82   133   131    1
    83    85    86    2
    84    85    97   am
    85    92    94   ar
    86    92    90   ar
    87    88    87    1
    88    88    90   ar
    89    94    96   ar
    90    97    98    1
    91   132   131    1
    92    90    93   ar
    93   101    98    1
    94   101   102    1
    95    52    53    1
    96   131   128    1
    97    98    99    1
    98    96    95   ar
    99    17    18    1
   100    93    95   ar
   101    20    18    1
   102    53    54    1
   103   145   144    2
   104   137   136    2
   105   128   127    1
   106   128   129    1
   107    18    19    1
   108   118   117    2
   109    99   100    2
   110    99   103   am
   111   152   153    1
   112   152   150   am
   113   127   117   am
   114   117   116    1
   115   144   148   am
   116   144   143    1
   117   149   150    1
   118   149   148    1
   119   153   154    1
   120   114   113    2
   121   115   116    1
   122    54    55    2
   123   134   129   am
   124   134   135    1
   125   129   130    2
   126   150   151    2
   127   136   142   am
   128   136   135    1
   129   143   142    1
   130   143   146    1
   131   113   112    1
   132   116   119    1
   133   103   104    1
   134   154   155    2
   135   135   138    1
   136   111   112    1
   137   111   105   am
   138    55    57    1
   139    55    56    1
   140   146   147    1
   141   138   139    1
   142   160   161    1
   143   160   157    1
   144   104   105    1
   145   104   107    1
   146   161   162    1
   147   119   120    1
   148   105   106    2
   149   139   140    1
   150   139   141    1
   151   120   121   ar
   152   120   122   ar
   153   109   107    1
   154   162   156    1
   155   108   107    1
   156   108   110    1
   157   121   123   ar
   158   122   124   ar
   159   158   157    1
   160   158   159    2
   161   157   156    1
   162   123   125   ar
   163   124   125   ar
   164   125   126    1
