@<TRIPOS>MOLECULE
tmp/5wyrB01.pdb
 162 164 0 0 0
SMALL
GASTEIGER

@<TRIPOS>ATOM
      1  N        -25.5030   20.8210   -5.8530 N.3    89  TYR89      -0.1227
      2  CA       -26.8670   21.1750   -5.5250 C.3    89  TYR89       0.1736
      3  C        -27.5430   21.5060   -6.8850 C.2    89  TYR89       0.2595
      4  O        -27.0060   22.3100   -7.6600 O.2    89  TYR89      -0.2718
      5  CB       -26.9090   22.4010   -4.5890 C.3    89  TYR89       0.0548
      6  CG       -28.3140   22.8930   -4.2850 C.ar   89  TYR89      -0.0200
      7  CD1      -29.3470   21.9940   -3.9890 C.ar   89  TYR89      -0.0009
      8  CD2      -28.6070   24.2580   -4.2580 C.ar   89  TYR89      -0.0009
      9  CE1      -30.6480   22.4390   -3.7410 C.ar   89  TYR89       0.0417
     10  CE2      -29.8970   24.7160   -3.9760 C.ar   89  TYR89       0.0417
     11  CZ       -30.9160   23.8000   -3.7230 C.ar   89  TYR89       0.1957
     12  OH       -32.1950   24.2380   -3.4650 O.3    89  TYR89      -0.2866
     13  N        -28.6890   20.8680   -7.1900 N.am   90  LEU90      -0.1966
     14  CA       -29.4310   21.1780   -8.4030 C.3    90  LEU90       0.1728
     15  C        -30.2570   22.3970   -8.0680 C.2    90  LEU90       0.2617
     16  O        -30.9260   22.4200   -7.0400 O.2    90  LEU90      -0.2715
     17  CB       -30.3150   19.9960   -8.8970 C.3    90  LEU90       0.0311
     18  CG       -29.6190   18.7260   -9.4730 C.3    90  LEU90       0.0022
     19  CD1      -28.8030   19.0110  -10.7390 C.3    90  LEU90       0.0001
     20  CD2      -28.8470   17.9420   -8.4180 C.3    90  LEU90       0.0001
     21  N        -30.0730   23.4710   -8.8180 N.am   91  SER91      -0.1936
     22  CA       -30.7770   24.7270   -8.5610 C.3    91  SER91       0.2040
     23  C        -30.9220   25.4880   -9.8690 C.2    91  SER91       0.2485
     24  O        -29.9780   25.4500  -10.6560 O.2    91  SER91      -0.2729
     25  CB       -29.9670   25.5880   -7.5900 C.3    91  SER91       0.2129
     26  OG       -30.4310   26.9280   -7.5590 O.3    91  SER91      -0.2179
     27  N        -32.0360   26.2320  -10.1060 N.am   92  PRO92      -0.2715
     28  CA       -32.1210   27.0310  -11.3330 C.3    92  PRO92       0.1536
     29  C        -31.2470   28.3000  -11.2740 C.2    92  PRO92       0.2598
     30  O        -31.1400   29.0170  -12.2730 O.2    92  PRO92      -0.2715
     31  CB       -33.6160   27.3550  -11.4420 C.3    92  PRO92       0.0310
     32  CG       -34.1540   27.2760  -10.0820 C.3    92  PRO92       0.0237
     33  CD       -33.2360   26.4110   -9.2600 C.3    92  PRO92       0.0939
     34  N        -30.6080   28.5730  -10.1060 N.am   93  GLN93      -0.1978
     35  CA       -29.6950   29.7030   -9.8730 C.3    93  GLN93       0.1601
     36  C        -28.2570   29.2360  -10.1790 C.2    93  GLN93       0.2287
     37  O        -27.3130   30.0190  -10.1390 O.2    93  GLN93      -0.2864
     38  CB       -29.8010   30.1890   -8.4160 C.3    93  GLN93       0.0394
     39  CG       -30.8670   31.2530   -8.1550 C.3    93  GLN93       0.0908
     40  CD       -32.2370   30.6910   -7.8580 C.2    93  GLN93       0.2608
     41  OE1      -33.0410   30.4560   -8.7600 O.2    93  GLN93      -0.2717
     42  NE2      -32.5600   30.5240   -6.5830 N.am   93  GLN93      -0.0878
     43  N        -33.4180   19.0980   -3.9470 N.3   116  GLY116     -0.1210
     44  CA       -34.1600   19.8230   -2.9790 C.3   116  GLY116      0.1956
     45  C        -35.6110   19.8230   -3.2560 C.2   116  GLY116      0.2612
     46  O        -36.0280   19.7340   -4.3570 O.2   116  GLY116     -0.2717
     47  N        -36.3800   19.9280   -2.2070 N.am  117  ARG117     -0.1965
     48  CA       -37.8060   19.9720   -2.3210 C.3   117  ARG117      0.1729
     49  C        -38.3180   21.2170   -1.6470 C.2   117  ARG117      0.2616
     50  O        -37.5630   22.0750   -1.2510 O.2   117  ARG117     -0.2715
     51  CB       -38.4170   18.7250   -1.7060 C.3   117  ARG117      0.0348
     52  CG       -38.4410   17.5550   -2.6540 C.3   117  ARG117      0.0492
     53  CD       -39.6340   17.6580   -3.5550 C.3   117  ARG117      0.2205
     54  NE       -39.4510   16.9660   -4.8070 N.pl3 117  ARG117     -0.0865
     55  CZ       -40.3660   16.8950   -5.7510 C.cat 117  ARG117      0.5346
     56  NH1      -41.5240   17.4630   -5.5920 N.pl3 117  ARG117      0.1354
     57  NH2      -40.1120   16.2560   -6.8530 N.pl3 117  ARG117      0.1354
     58  N        -39.6170   21.3140   -1.5180 N.am  118  TYR118     -0.1960
     59  CA       -40.2190   22.4700   -0.9090 C.3   118  TYR118      0.1771
     60  C        -39.8740   23.7760   -1.5930 C.2   118  TYR118      0.2619
     61  O        -39.9020   23.8930   -2.8050 O.2   118  TYR118     -0.2715
     62  CB       -39.8750   22.5170    0.5750 C.3   118  TYR118      0.0574
     63  CG       -40.3050   21.2820    1.3060 C.ar  118  TYR118     -0.0198
     64  CD1      -41.6190   21.0940    1.6570 C.ar  118  TYR118     -0.0009
     65  CD2      -39.4090   20.2910    1.6140 C.ar  118  TYR118     -0.0009
     66  CE1      -42.0290   19.9580    2.3150 C.ar  118  TYR118      0.0417
     67  CE2      -39.8050   19.1550    2.2710 C.ar  118  TYR118      0.0417
     68  CZ       -41.1190   18.9940    2.6130 C.ar  118  TYR118      0.1957
     69  OH       -41.5180   17.8680    3.2650 O.3   118  TYR118     -0.2866
     70  N        -39.5770   24.7650   -0.7790 N.am  119  GLU119     -0.1963
     71  CA       -39.2680   26.0880   -1.2470 C.3   119  GLU119      0.1733
     72  C        -37.7960   26.2120   -1.5460 C.2   119  GLU119      0.2616
     73  O        -37.3840   26.9000   -2.4530 O.2   119  GLU119     -0.2715
     74  CB       -39.6670   27.0540   -0.1710 C.3   119  GLU119      0.0429
     75  CG       -40.8450   27.8970   -0.5360 C.3   119  GLU119      0.1163
     76  CD       -40.4100   29.2740   -0.9060 C.2   119  GLU119      0.3649
     77  OE1      -40.2820   30.1090    0.0050 O.co2 119  GLU119     -0.2457
     78  OE2      -40.1710   29.5130   -2.1000 O.co2 119  GLU119     -0.2457
     79  N        -37.0060   25.5140   -0.7670 N.am  120  GLY120     -0.1955
     80  CA       -35.5930   25.5200   -0.9680 C.3   120  GLY120      0.1869
     81  C        -34.8910   24.9200    0.2020 C.2   120  GLY120      0.2309
     82  O        -35.4890   24.5250    1.1500 O.2   120  GLY120     -0.2863
     83  N        -25.7550   23.4750  -10.1420 N.3   134  TRP134     -0.1227
     84  CA       -26.0000   23.2100  -11.5590 C.3   134  TRP134      0.1737
     85  C        -27.4590   23.2960  -11.8600 C.2   134  TRP134      0.2596
     86  O        -28.2640   22.7350  -11.1200 O.2   134  TRP134     -0.2718
     87  CB       -25.4700   21.8430  -11.9520 C.3   134  TRP134      0.0564
     88  CG       -23.9820   21.7610  -12.0810 C.ar  134  TRP134      0.0003
     89  CD1      -23.0850   21.5100  -11.0880 C.ar  134  TRP134      0.0946
     90  CD2      -23.2260   21.8140  -13.3020 C.ar  134  TRP134      0.0152
     91  NE1      -21.8200   21.3830  -11.6150 N.ar  134  TRP134     -0.2442
     92  CE2      -21.8790   21.5590  -12.9710 C.ar  134  TRP134      0.0810
     93  CE3      -23.5630   22.0420  -14.6510 C.ar  134  TRP134      0.0012
     94  CZ2      -20.8640   21.5380  -13.9320 C.ar  134  TRP134      0.0191
     95  CZ3      -22.5590   22.0260  -15.6000 C.ar  134  TRP134      0.0001
     96  CH2      -21.2260   21.7820  -15.2370 C.ar  134  TRP134      0.0015
     97  N        -27.7990   24.0170  -12.9380 N.am  135  SER135     -0.1938
     98  CA       -29.1520   24.2000  -13.4640 C.3   135  SER135      0.2055
     99  C        -29.3300   23.3330  -14.7160 C.2   135  SER135      0.2643
    100  O        -28.3750   23.1420  -15.4710 O.2   135  SER135     -0.2714
    101  CB       -29.3750   25.6570  -13.8360 C.3   135  SER135      0.2130
    102  OG       -30.7160   25.9250  -14.2240 O.3   135  SER135     -0.2179
    103  N        -30.5480   22.8230  -14.9520 N.am  136  ILE136     -0.1963
    104  CA       -30.7840   22.0550  -16.1850 C.3   136  ILE136      0.1727
    105  C        -31.3910   22.9580  -17.2460 C.2   136  ILE136      0.2616
    106  O        -31.4240   22.5760  -18.4040 O.2   136  ILE136     -0.2715
    107  CB       -31.5480   20.7000  -16.0090 C.3   136  ILE136      0.0290
    108  CG1      -32.9680   20.9120  -15.3730 C.3   136  ILE136      0.0022
    109  CG2      -30.6630   19.6770  -15.2350 C.3   136  ILE136      0.0023
    110  CD1      -34.0190   19.7780  -15.6730 C.3   136  ILE136      0.0001
    111  N        -31.8370   24.1550  -16.8530 N.am  137  GLY137     -0.1955
    112  CA       -32.4360   25.1010  -17.7780 C.3   137  GLY137      0.1869
    113  C        -33.1990   26.1890  -17.0960 C.2   137  GLY137      0.2309
    114  O        -33.4590   26.0910  -15.8990 O.2   137  GLY137     -0.2863
    115  N        -36.0730   27.2500  -16.2520 N.3   139  TYR139     -0.1227
    116  CA       -37.4860   26.9470  -15.9550 C.3   139  TYR139      0.1736
    117  C        -37.5570   26.4130  -14.5340 C.2   139  TYR139      0.2595
    118  O        -36.5460   25.9810  -14.0190 O.2   139  TYR139     -0.2718
    119  CB       -38.0910   25.9630  -16.9780 C.3   139  TYR139      0.0548
    120  CG       -37.1390   24.8550  -17.3620 C.ar  139  TYR139     -0.0200
    121  CD1      -36.8720   23.8070  -16.4910 C.ar  139  TYR139     -0.0009
    122  CD2      -36.4780   24.8720  -18.5860 C.ar  139  TYR139     -0.0009
    123  CE1      -35.9660   22.8040  -16.8240 C.ar  139  TYR139      0.0417
    124  CE2      -35.5670   23.8810  -18.9280 C.ar  139  TYR139      0.0417
    125  CZ       -35.3350   22.8290  -18.0550 C.ar  139  TYR139      0.1957
    126  OH       -34.4610   21.8240  -18.3910 O.3   139  TYR139     -0.2866
    127  N        -38.6930   26.4890  -13.8800 N.am  140  VAL140     -0.1966
    128  CA       -38.7760   26.0600  -12.4870 C.3   140  VAL140      0.1727
    129  C        -39.5240   24.7150  -12.3690 C.2   140  VAL140      0.2616
    130  O        -40.6670   24.5720  -12.7960 O.2   140  VAL140     -0.2715
    131  CB       -39.3430   27.1800  -11.5210 C.3   140  VAL140      0.0290
    132  CG1      -39.0840   26.8400  -10.0590 C.3   140  VAL140      0.0023
    133  CG2      -38.7480   28.5540  -11.8360 C.3   140  VAL140      0.0023
    134  N        -38.8630   23.7580  -11.7730 N.am  141  LEU141     -0.1963
    135  CA       -39.4100   22.4320  -11.5130 C.3   141  LEU141      0.1728
    136  C        -39.8280   22.3830  -10.0170 C.2   141  LEU141      0.2617
    137  O        -39.4100   23.2510   -9.2500 O.2   141  LEU141     -0.2715
    138  CB       -38.3540   21.3510  -11.8280 C.3   141  LEU141      0.0311
    139  CG       -37.9340   21.1840  -13.2950 C.3   141  LEU141      0.0022
    140  CD1      -37.3370   19.8200  -13.5230 C.3   141  LEU141      0.0001
    141  CD2      -39.1010   21.3540  -14.2410 C.3   141  LEU141      0.0001
    142  N        -40.6500   21.3950   -9.6210 N.am  142  SER142     -0.1936
    143  CA       -41.1090   21.2160   -8.2380 C.3   142  SER142      0.2055
    144  C        -40.0600   20.5470   -7.3210 C.2   142  SER142      0.2644
    145  O        -40.1940   20.5560   -6.0950 O.2   142  SER142     -0.2714
    146  CB       -42.4190   20.4330   -8.2190 C.3   142  SER142      0.2130
    147  OG       -42.1660   19.0590   -8.4750 O.3   142  SER142     -0.2179
    148  N        -39.0360   19.9550   -7.9150 N.am  143  GLY143     -0.1939
    149  CA       -38.0000   19.2740   -7.1400 C.3   143  GLY143      0.2014
    150  C        -36.7380   19.0630   -7.9380 C.2   143  GLY143      0.2639
    151  O        -36.7320   19.2600   -9.1610 O.2   143  GLY143     -0.2714
    152  N        -35.6700   18.6980   -7.2440 N.am  144  GLY144     -0.1954
    153  CA       -34.3570   18.4870   -7.8520 C.3   144  GLY144      0.1869
    154  C        -34.0830   17.0730   -8.3180 C.2   144  GLY144      0.2309
    155  O        -32.9880   16.7850   -8.8350 O.2   144  GLY144     -0.2863
    156  N        -33.9730   16.9890  -12.3170 N.3   147  PRO147     -0.2116
    157  CA       -32.6540   17.5350  -12.6870 C.3   147  PRO147      0.1372
    158  C        -31.4900   16.6250  -12.3310 C.2   147  PRO147      0.2244
    159  O        -30.6050   16.4740  -13.1660 O.2   147  PRO147     -0.2868
    160  CB       -32.6040   18.8470  -11.9160 C.3   147  PRO147      0.0268
    161  CG       -34.0150   19.2660  -11.8450 C.3   147  PRO147      0.0207
    162  CD       -34.7320   17.9980  -11.5460 C.3   147  PRO147      0.0892
@<TRIPOS>BOND
     1   124   122   ar
     2   124   125   ar
     3   122   120   ar
     4   106   105    2
     5   126   125    1
     6   125   123   ar
     7   112   113    1
     8   112   111    1
     9   120   119    1
    10   120   121   ar
    11   105   111   am
    12   105   104    1
    13   113   114    2
    14   119   116    1
    15   123   121   ar
    16   115   116    1
    17   104   107    1
    18   104   103    1
    19   107   108    1
    20   107   109    1
    21   116   117    1
    22   110   108    1
    23    95    96   ar
    24    95    93   ar
    25   100    99    2
    26    96    94   ar
    27   103    99   am
    28    99    98    1
    29    93    90   ar
    30   117   118    2
    31   117   127   am
    32   141   139    1
    33   102   101    1
    34    94    92   ar
    35   127   128    1
    36   101    98    1
    37   140   139    1
    38    98    97    1
    39    90    92   ar
    40    90    88   ar
    41   139   138    1
    42   159   158    2
    43    92    91   ar
    44    97    85   am
    45   130   129    2
    46   157   158    1
    47   157   156    1
    48   157   160    1
    49   128   129    1
    50   128   131    1
    51   129   134   am
    52   156   162    1
    53    30    29    2
    54    88    87    1
    55    88    89   ar
    56    87    84    1
    57   160   161    1
    58    85    84    1
    59    85    86    2
    60   161   162    1
    61   133   131    1
    62   138   135    1
    63   134   135    1
    64    91    89   ar
    65    84    83    1
    66   131   132    1
    67   135   136    1
    68    31    28    1
    69    31    32    1
    70    28    29    1
    71    28    27    1
    72    29    34   am
    73    19    18    1
    74    24    23    2
    75    36    37    2
    76    36    35    1
    77    27    23   am
    78    27    33    1
    79    34    35    1
    80    32    33    1
    81   136   142   am
    82   136   137    2
    83    35    38    1
    84    23    22    1
    85   142   143    1
    86    18    17    1
    87    18    20    1
    88   151   150    2
    89    17    14    1
    90   155   154    2
    91    21    22    1
    92    21    15   am
    93    41    40    2
    94    22    25    1
    95   147   146    1
    96    38    39    1
    97    14    15    1
    98    14    13    1
    99   154   153    1
   100   143   146    1
   101   143   144    1
   102    39    40    1
   103    15    16    2
   104   150   152   am
   105   150   149    1
   106   148   144   am
   107   148   149    1
   108    40    42   am
   109   153   152    1
   110     4     3    2
   111    25    26    1
   112   144   145    2
   113    13     3   am
   114     3     2    1
   115    57    55    1
   116     1     2    1
   117    55    56    1
   118    55    54    2
   119     2     5    1
   120    54    53    1
   121     5     6    1
   122    46    45    2
   123     6     8   ar
   124     6     7   ar
   125     8    10   ar
   126     7     9   ar
   127    10    11   ar
   128    43    44    1
   129     9    11   ar
   130    11    12    1
   131    53    52    1
   132    45    44    1
   133    45    47   am
   134    61    60    2
   135    52    51    1
   136    73    72    2
   137    48    47    1
   138    48    51    1
   139    48    49    1
   140    78    76   ar
   141    49    58   am
   142    49    50    2
   143    60    59    1
   144    60    70   am
   145    72    71    1
   146    72    79   am
   147    58    59    1
   148    71    70    1
   149    71    74    1
   150    80    79    1
   151    80    81    1
   152    59    62    1
   153    76    75    1
   154    76    77   ar
   155    75    74    1
   156    81    82    2
   157    62    63    1
   158    63    65   ar
   159    63    64   ar
   160    65    67   ar
   161    64    66   ar
   162    67    68   ar
   163    66    68   ar
   164    68    69    1
