@<TRIPOS>MOLECULE
tmp/5wysA00.pdb
 201 191 0 0 0
SMALL
GASTEIGER

@<TRIPOS>ATOM
      1  N        -20.6790   31.4000   -8.8350 N.3   214  ARG214     -0.1245
      2  CA       -20.0590   32.5210   -8.1330 C.3   214  ARG214      0.1563
      3  C        -20.7630   33.8370   -8.4330 C.2   214  ARG214      0.2260
      4  O        -20.9370   34.6800   -7.5460 O.2   214  ARG214     -0.2867
      5  CB       -18.5920   32.6100   -8.5440 C.3   214  ARG214      0.0307
      6  CG       -17.8440   33.7220   -7.8760 C.3   214  ARG214      0.0489
      7  CD       -17.9070   33.5530   -6.4000 C.3   214  ARG214      0.2205
      8  NE       -17.7750   34.8480   -5.7710 N.pl3 214  ARG214     -0.0865
      9  CZ       -18.1110   35.0830   -4.5210 C.cat 214  ARG214      0.5346
     10  NH1      -18.6010   34.0920   -3.7810 N.pl3 214  ARG214      0.1354
     11  NH2      -17.9590   36.2970   -4.0270 N.pl3 214  ARG214      0.1354
     12  N        -22.2300   36.5010   -5.6330 N.3   218  ALA218     -0.1245
     13  CA       -21.7280   37.8620   -5.4790 C.3   218  ALA218      0.1562
     14  C        -22.8610   38.8670   -5.2990 C.2   218  ALA218      0.2260
     15  O        -22.7170   39.8370   -4.5480 O.2   218  ALA218     -0.2867
     16  CB       -20.8490   38.2200   -6.6870 C.3   218  ALA218      0.0290
     17  N        -25.4050   36.2580    0.9740 N.3   223  PHE223     -0.1227
     18  CA       -24.1170   35.5800    0.8820 C.3   223  PHE223      0.1736
     19  C        -23.0940   36.3330    0.0610 C.2   223  PHE223      0.2596
     20  O        -21.9480   35.8840   -0.0240 O.2   223  PHE223     -0.2718
     21  CB       -24.3020   34.1750    0.3070 C.3   223  PHE223      0.0547
     22  CG       -25.0340   33.2560    1.2320 C.ar  223  PHE223     -0.0202
     23  CD1      -26.4130   33.1420    1.1710 C.ar  223  PHE223     -0.0042
     24  CD2      -24.3490   32.5360    2.2000 C.ar  223  PHE223     -0.0042
     25  CE1      -27.0920   32.3020    2.0360 C.ar  223  PHE223     -0.0003
     26  CE2      -25.0260   31.7000    3.0750 C.ar  223  PHE223     -0.0003
     27  CZ       -26.3990   31.5830    2.9840 C.ar  223  PHE223     -0.0000
     28  N        -23.4820   37.4440   -0.5610 N.am  224  GLY224     -0.1942
     29  CA       -22.5720   38.3220   -1.2720 C.3   224  GLY224      0.2014
     30  C        -22.7290   39.7220   -0.7320 C.2   224  GLY224      0.2638
     31  O        -22.7160   39.9010    0.4880 O.2   224  GLY224     -0.2714
     32  N        -22.8930   40.7170   -1.6080 N.am  225  ASN225     -0.1972
     33  CA       -23.2300   42.0700   -1.1770 C.3   225  ASN225      0.1688
     34  C        -24.1660   42.7100   -2.1940 C.2   225  ASN225      0.2292
     35  O        -24.0890   42.4260   -3.3900 O.2   225  ASN225     -0.2864
     36  CB       -21.9750   42.9500   -0.9510 C.3   225  ASN225      0.1181
     37  CG       -20.7760   42.4340   -1.6840 C.2   225  ASN225      0.2629
     38  OD1      -20.9130   41.8320   -2.7440 O.2   225  ASN225     -0.2716
     39  ND2      -19.5920   42.6330   -1.1190 N.am  225  ASN225     -0.0877
     40  N         -4.4160   33.2600   -6.1440 N.3   241  HIS241     -0.1226
     41  CA        -4.7700   32.2980   -5.1000 C.3   241  HIS241      0.1752
     42  C         -6.1850   32.4350   -4.5410 C.2   241  HIS241      0.2597
     43  O         -6.3710   32.5930   -3.3210 O.2   241  HIS241     -0.2718
     44  CB        -3.7340   32.3540   -3.9720 C.3   241  HIS241      0.0759
     45  CG        -2.5820   31.4140   -4.1930 C.ar  241  HIS241      0.0818
     46  ND1       -1.8260   31.4210   -5.3510 N.ar  241  HIS241     -0.2268
     47  CD2       -2.0830   30.4120   -3.4260 C.ar  241  HIS241      0.1154
     48  CE1       -0.9040   30.4750   -5.2800 C.ar  241  HIS241      0.1986
     49  NE2       -1.0390   29.8480   -4.1220 N.ar  241  HIS241     -0.2212
     50  N         -7.1790   32.3540   -5.4610 N.am  242  GLY242     -0.1942
     51  CA        -8.5740   32.0550   -5.1450 C.3   242  GLY242      0.2014
     52  C         -9.3940   33.3210   -4.9490 C.2   242  GLY242      0.2638
     53  O         -9.5440   34.0790   -5.8660 O.2   242  GLY242     -0.2714
     54  N         -9.9750   33.4710   -3.7510 N.am  243  PHE243     -0.1973
     55  CA       -10.4450   34.7160   -3.1480 C.3   243  PHE243      0.1639
     56  C        -10.2970   35.9360   -4.0450 C.2   243  PHE243      0.2290
     57  O        -11.2930   36.4610   -4.5520 O.2   243  PHE243     -0.2864
     58  CB        -9.6850   34.9570   -1.8360 C.3   243  PHE243      0.0560
     59  CG       -10.3560   35.9360   -0.8950 C.ar  243  PHE243     -0.0200
     60  CD1      -11.6950   36.2650   -1.0370 C.ar  243  PHE243     -0.0042
     61  CD2       -9.6310   36.5400    0.1220 C.ar  243  PHE243     -0.0042
     62  CE1      -12.3060   37.1660   -0.1790 C.ar  243  PHE243     -0.0003
     63  CE2      -10.2280   37.4440    0.9850 C.ar  243  PHE243     -0.0003
     64  CZ       -11.5680   37.7570    0.8400 C.ar  243  PHE243     -0.0000
     65  N        -12.0170   35.3570   -7.6610 N.3   246  PHE246     -0.1227
     66  CA       -13.4500   35.2310   -7.9010 C.3   246  PHE246      0.1736
     67  C        -14.2990   36.2820   -7.2030 C.2   246  PHE246      0.2596
     68  O        -15.4940   36.3800   -7.5020 O.2   246  PHE246     -0.2718
     69  CB       -13.9370   33.8360   -7.5110 C.3   246  PHE246      0.0547
     70  CG       -13.4340   32.7670   -8.4210 C.ar  246  PHE246     -0.0202
     71  CD1      -12.3430   31.9990   -8.0660 C.ar  246  PHE246     -0.0042
     72  CD2      -14.0070   32.5660   -9.6580 C.ar  246  PHE246     -0.0042
     73  CE1      -11.8620   31.0300   -8.9150 C.ar  246  PHE246     -0.0003
     74  CE2      -13.5140   31.6030  -10.5040 C.ar  246  PHE246     -0.0003
     75  CZ       -12.4450   30.8380  -10.1300 C.ar  246  PHE246     -0.0000
     76  N        -13.7370   37.0630   -6.2820 N.am  247  THR247     -0.1953
     77  CA       -14.4580   38.2540   -5.8520 C.3   247  THR247      0.1897
     78  C        -14.4040   39.3200   -6.9340 C.2   247  THR247      0.2313
     79  O        -15.4250   39.9430   -7.2530 O.2   247  THR247     -0.2863
     80  CB       -13.8820   38.7820   -4.5460 C.3   247  THR247      0.1794
     81  OG1      -12.4770   39.0240   -4.7110 O.3   247  THR247     -0.2208
     82  CG2      -14.0790   37.7640   -3.4700 C.3   247  THR247      0.0378
     83  N        -17.2760   41.1440   -8.8020 N.3   251  TYR251     -0.1241
     84  CA       -17.3790   42.5910   -8.6150 C.3   251  TYR251      0.1605
     85  C        -17.5780   43.3180   -9.9400 C.2   251  TYR251      0.2264
     86  O        -18.2600   44.3520   -9.9820 O.2   251  TYR251     -0.2867
     87  CB       -16.1330   43.1450   -7.9310 C.3   251  TYR251      0.0534
     88  CG       -15.9380   42.7890   -6.4640 C.ar  251  TYR251     -0.0201
     89  CD1      -17.0110   42.6690   -5.6000 C.ar  251  TYR251     -0.0009
     90  CD2      -14.6600   42.5990   -5.9460 C.ar  251  TYR251     -0.0009
     91  CE1      -16.8180   42.3590   -4.2810 C.ar  251  TYR251      0.0417
     92  CE2      -14.4640   42.2830   -4.6230 C.ar  251  TYR251      0.0417
     93  CZ       -15.5430   42.1620   -3.7970 C.ar  251  TYR251      0.1957
     94  OH       -15.3520   41.8440   -2.4670 O.3   251  TYR251     -0.2866
     95  N        -16.3870   47.7260    1.5970 N.3   280  SER280     -0.1217
     96  CA       -15.8880   46.4810    2.1570 C.3   280  SER280      0.1889
     97  C        -14.4310   46.2670    1.7680 C.2   280  SER280      0.2288
     98  O        -14.0370   46.5820    0.6440 O.2   280  SER280     -0.2866
     99  CB       -16.7540   45.3100    1.6950 C.3   280  SER280      0.2089
    100  OG       -16.3110   44.7880    0.4680 O.3   280  SER280     -0.2183
    101  N        -10.9860   43.5510    1.5910 N.3   282  LEU282     -0.1245
    102  CA       -10.5580   42.1640    1.4910 C.3   282  LEU282      0.1561
    103  C         -9.1670   42.0250    2.0820 C.2   282  LEU282      0.2260
    104  O         -8.2750   42.8000    1.7260 O.2   282  LEU282     -0.2867
    105  CB       -10.5560   41.6920    0.0320 C.3   282  LEU282      0.0270
    106  CG       -11.9170   41.6340   -0.6640 C.3   282  LEU282      0.0019
    107  CD1      -11.8080   40.8400   -1.9230 C.3   282  LEU282      0.0001
    108  CD2      -12.9730   41.0300    0.2310 C.3   282  LEU282      0.0001
    109  N        -18.1210   46.1600    5.8490 N.3   307  GLU307     -0.1245
    110  CA       -17.7070   44.7650    5.9030 C.3   307  GLU307      0.1567
    111  C        -16.1900   44.6410    5.7600 C.2   307  GLU307      0.2260
    112  O        -15.5620   45.3860    5.0040 O.2   307  GLU307     -0.2867
    113  CB       -18.4430   43.9850    4.7960 C.3   307  GLU307      0.0388
    114  CG       -17.7560   42.7370    4.2600 C.3   307  GLU307      0.1160
    115  CD       -18.3910   42.2370    2.9690 C.2   307  GLU307      0.3649
    116  OE1      -18.5230   41.0060    2.7900 O.co2 307  GLU307     -0.2457
    117  OE2      -18.7610   43.0760    2.1260 O.co2 307  GLU307     -0.2457
    118  N        -13.7170   41.2430    5.0220 N.3   309  ALA309     -0.1231
    119  CA       -13.9050   39.8550    4.6390 C.3   309  ALA309      0.1694
    120  C        -12.5740   39.1290    4.6430 C.2   309  ALA309      0.2593
    121  O        -11.5490   39.6890    4.2380 O.2   309  ALA309     -0.2718
    122  CB       -14.5680   39.7430    3.2620 C.3   309  ALA309      0.0304
    123  N        -12.5980   37.8810    5.1140 N.am  310  SER310     -0.1938
    124  CA       -11.4190   37.0350    5.1040 C.3   310  SER310      0.2055
    125  C        -11.4860   35.9350    4.0530 C.2   310  SER310      0.2644
    126  O        -10.4420   35.3650    3.7040 O.2   310  SER310     -0.2714
    127  CB       -11.1970   36.4140    6.4870 C.3   310  SER310      0.2130
    128  OG       -12.1050   35.3660    6.7320 O.3   310  SER310     -0.2179
    129  N        -12.6670   35.6290    3.5430 N.am  311  GLY311     -0.1939
    130  CA       -12.7590   34.8460    2.3060 C.3   311  GLY311      0.2014
    131  C        -13.0600   33.3630    2.5610 C.2   311  GLY311      0.2639
    132  O        -14.1980   32.9910    2.9130 O.2   311  GLY311     -0.2714
    133  N        -12.0640   32.5190    2.2940 N.am  312  GLY312     -0.1939
    134  CA       -12.1810   31.0930    2.5170 C.3   312  GLY312      0.2014
    135  C        -11.1590   30.7010    3.5530 C.2   312  GLY312      0.2638
    136  O        -10.9050   29.5160    3.8030 O.2   312  GLY312     -0.2714
    137  N        -10.5410   31.7350    4.1310 N.am  313  ALA313     -0.1977
    138  CA        -9.6320   31.5800    5.2490 C.3   313  ALA313      0.1597
    139  C        -10.4390   31.6000    6.5340 C.2   313  ALA313      0.2287
    140  O        -11.0640   32.6270    6.8410 O.2   313  ALA313     -0.2864
    141  CB        -8.6090   32.6970    5.2700 C.3   313  ALA313      0.0319
    142  N        -16.6810   39.1560    8.2830 N.3   333  ARG333     -0.1245
    143  CA       -17.2510   38.1440    7.4090 C.3   333  ARG333      0.1563
    144  C        -16.1440   37.1670    7.0480 C.2   333  ARG333      0.2260
    145  O        -15.3190   37.4450    6.1740 O.2   333  ARG333     -0.2867
    146  CB       -17.8910   38.7430    6.1670 C.3   333  ARG333      0.0307
    147  CG       -18.0850   37.6850    5.0940 C.3   333  ARG333      0.0489
    148  CD       -19.0590   38.0680    4.0490 C.3   333  ARG333      0.2205
    149  NE       -20.4270   38.0700    4.5420 N.pl3 333  ARG333     -0.0865
    150  CZ       -21.4740   38.5280    3.8730 C.cat 333  ARG333      0.5346
    151  NH1      -21.3280   39.0160    2.6570 N.pl3 333  ARG333      0.1354
    152  NH2      -22.6660   38.4660    4.4340 N.pl3 333  ARG333      0.1354
    153  N        -15.2290   33.0790    5.8420 N.3   335  GLY335     -0.1225
    154  CA       -15.8250   31.8940    5.2610 C.3   335  GLY335      0.1811
    155  C        -14.8050   30.7850    5.1440 C.2   335  GLY335      0.2280
    156  O        -13.6080   30.9850    5.3670 O.2   335  GLY335     -0.2866
    157  N        -13.3440   28.0060    2.4230 N.3   337  GLY337     -0.1210
    158  CA       -13.3220   27.5810    1.0360 C.3   337  GLY337      0.1956
    159  C        -11.9920   26.9650    0.6830 C.2   337  GLY337      0.2612
    160  O        -10.9630   27.2690    1.2930 O.2   337  GLY337     -0.2717
    161  N        -12.0210   26.0820   -0.3050 N.am  338  LEU338     -0.1965
    162  CA       -10.8360   25.4500   -0.8620 C.3   338  LEU338      0.1728
    163  C        -10.6190   25.9540   -2.2740 C.2   338  LEU338      0.2616
    164  O        -11.5780   26.2230   -3.0010 O.2   338  LEU338     -0.2715
    165  CB       -10.9770   23.9300   -0.9050 C.3   338  LEU338      0.0311
    166  CG       -10.7300   23.2120    0.4120 C.3   338  LEU338      0.0022
    167  CD1      -11.1630   21.7790    0.2850 C.3   338  LEU338      0.0001
    168  CD2       -9.2710   23.2960    0.7420 C.3   338  LEU338      0.0001
    169  N         -9.3480   26.0690   -2.6650 N.am  339  THR339     -0.1951
    170  CA        -9.0600   26.3730   -4.0640 C.3   339  THR339      0.1897
    171  C         -9.8240   25.4180   -4.9690 C.2   339  THR339      0.2313
    172  O        -10.4620   25.8310   -5.9450 O.2   339  THR339     -0.2863
    173  CB        -7.5500   26.3100   -4.3130 C.3   339  THR339      0.1794
    174  OG1       -6.9710   27.5750   -3.9670 O.3   339  THR339     -0.2208
    175  CG2       -7.2560   26.0260   -5.7420 C.3   339  THR339      0.0378
    176  N        -13.2710   26.7250   -5.9190 N.3   342  THR342     -0.1203
    177  CA       -13.3160   28.1100   -6.3910 C.3   342  THR342      0.1994
    178  C        -13.4450   29.0970   -5.2390 C.2   342  THR342      0.2619
    179  O        -12.4500   29.5640   -4.6860 O.2   342  THR342     -0.2717
    180  CB       -14.4790   28.3300   -7.3630 C.3   342  THR342      0.1784
    181  OG1      -15.7020   28.3020   -6.6300 O.3   342  THR342     -0.2211
    182  CG2      -14.5420   27.2350   -8.3720 C.3   342  THR342      0.0376
    183  N        -14.6610   29.4260   -4.8810 N.am  343  SER343     -0.1937
    184  CA       -14.9060   30.4040   -3.8500 C.3   343  SER343      0.2055
    185  C        -15.2000   29.6860   -2.5340 C.2   343  SER343      0.2642
    186  O        -14.9690   28.4850   -2.3840 O.2   343  SER343     -0.2714
    187  CB       -16.0360   31.3510   -4.2850 C.3   343  SER343      0.2130
    188  OG       -17.3230   31.0170   -3.7350 O.3   343  SER343     -0.2179
    189  N        -15.6920   30.4340   -1.5600 N.am  344  ALA344     -0.1977
    190  CA       -16.1120   29.8500   -0.3060 C.3   344  ALA344      0.1597
    191  C        -17.4960   29.2380   -0.4610 C.2   344  ALA344      0.2287
    192  O        -18.3470   29.7560   -1.1910 O.2   344  ALA344     -0.2864
    193  CB       -16.1150   30.9040    0.8040 C.3   344  ALA344      0.0319
    194  N        -19.9720   30.7240    4.3330 N.3   347  ILE347     -0.1245
    195  CA       -19.8360   32.1720    4.3730 C.3   347  ILE347      0.1561
    196  C        -20.6950   32.6300    5.5340 C.2   347  ILE347      0.2260
    197  O        -21.7770   32.0800    5.7540 O.2   347  ILE347     -0.2867
    198  CB       -20.3060   32.8080    3.0410 C.3   347  ILE347      0.0252
    199  CG1      -19.3340   32.4790    1.9030 C.3   347  ILE347      0.0019
    200  CG2      -20.4950   34.3020    3.1640 C.3   347  ILE347      0.0019
    201  CD1      -19.7280   33.0390    0.5580 C.3   347  ILE347      0.0001
@<TRIPOS>BOND
     1    74    75   ar
     2    74    72   ar
     3    75    73   ar
     4    86    85    2
     5    85    84    1
     6    72    70   ar
     7    73    71   ar
     8     1     2    1
     9    83    84    1
    10    84    87    1
    11     5     2    1
    12     5     6    1
    13     3     2    1
    14     3     4    2
    15    70    71   ar
    16    70    69    1
    17   182   180    1
    18    87    88    1
    19    66    65    1
    20    66    69    1
    21    66    67    1
    22     6     7    1
    23    68    67    2
    24   180   181    1
    25   180   177    1
    26    79    78    2
    27    67    76   am
    28    78    77    1
    29    16    13    1
    30    88    90   ar
    31    88    89   ar
    32     7     8    1
    33   177   176    1
    34   177   178    1
    35    76    77    1
    36    40    41    1
    37    90    92   ar
    38   172   171    2
    39    53    52    2
    40    77    80    1
    41     8     9    2
    42   175   173    1
    43    12    13    1
    44    89    91   ar
    45    13    14    1
    46    50    51    1
    47    50    42   am
    48    46    48   ar
    49    46    45   ar
    50    14    15    2
    51    48    49   ar
    52   178   183   am
    53   178   179    2
    54    51    52    1
    55    41    42    1
    56    41    44    1
    57   171   170    1
    58    52    54   am
    59   183   184    1
    60    81    80    1
    61    92    93   ar
    62    57    56    2
    63    80    82    1
    64    42    43    2
    65     9    11    1
    66     9    10    1
    67   173   170    1
    68   173   174    1
    69   187   184    1
    70   187   188    1
    71    91    93   ar
    72    45    44    1
    73    45    47   ar
    74    49    47   ar
    75   170   169    1
    76    56    55    1
    77   184   185    1
    78    93    94    1
    79    54    55    1
    80    35    34    2
    81    55    58    1
    82   164   163    2
    83    38    37    2
    84   169   163   am
    85   185   186    2
    86   185   189   am
    87   163   162    1
    88    34    33    1
    89   107   106    1
    90    58    59    1
    91    37    39   am
    92    37    36    1
    93    32    33    1
    94    32    30   am
    95   189   190    1
    96    29    30    1
    97    29    28    1
    98   192   191    2
    99    33    36    1
   100    60    59   ar
   101    60    62   ar
   102   165   162    1
   103   165   166    1
   104    59    61   ar
   105   162   161    1
   106    30    31    2
   107   106   105    1
   108   106   108    1
   109    28    19   am
   110   191   190    1
   111   190   193    1
   112   161   159   am
   113    62    64   ar
   114    20    19    2
   115   105   102    1
   116    19    18    1
   117    61    63   ar
   118   167   166    1
   119    21    18    1
   120    21    22    1
   121   166   168    1
   122   100    99    1
   123   201   199    1
   124    98    97    2
   125   159   158    1
   126   159   160    2
   127    64    63   ar
   128    18    17    1
   129   158   157    1
   130    23    22   ar
   131    23    25   ar
   132    22    24   ar
   133   102   101    1
   134   102   103    1
   135    95    96    1
   136    99    96    1
   137   104   103    2
   138    97    96    1
   139   199   198    1
   140    25    27   ar
   141   117   115   ar
   142    24    26   ar
   143   133   134    1
   144   133   131   am
   145   130   131    1
   146   130   129    1
   147   134   135    1
   148   131   132    2
   149   151   150    1
   150   116   115   ar
   151   115   114    1
   152    27    26   ar
   153   198   200    1
   154   198   195    1
   155   122   119    1
   156   129   125   am
   157   135   136    2
   158   135   137   am
   159   126   125    2
   160   150   152    1
   161   150   149    2
   162   148   149    1
   163   148   147    1
   164   125   124    1
   165   137   138    1
   166   121   120    2
   167   114   113    1
   168   194   195    1
   169   195   196    1
   170   119   120    1
   171   119   118    1
   172   120   123   am
   173   113   110    1
   174   112   111    2
   175   147   146    1
   176   124   123    1
   177   124   127    1
   178   155   154    1
   179   155   156    2
   180   138   141    1
   181   138   139    1
   182   154   153    1
   183   196   197    2
   184   111   110    1
   185   109   110    1
   186   146   143    1
   187   145   144    2
   188   127   128    1
   189   139   140    2
   190   144   143    1
   191   143   142    1
