@<TRIPOS>MOLECULE
tmp/5wyxA01.pdb
 99 96 0 0 0
SMALL
GASTEIGER

@<TRIPOS>ATOM
      1  N         62.8150    9.1740   28.2860 N.3   219  PHE219     -0.1227
      2  CA        62.8340    7.8670   27.6360 C.3   219  PHE219      0.1736
      3  C         61.7530    6.9670   28.2200 C.2   219  PHE219      0.2595
      4  O         61.7750    6.6310   29.4010 O.2   219  PHE219     -0.2718
      5  CB        64.1780    7.2070   27.8070 C.3   219  PHE219      0.0547
      6  CG        64.3390    5.9760   27.0050 C.ar  219  PHE219     -0.0202
      7  CD1       64.5250    6.0660   25.6030 C.ar  219  PHE219     -0.0042
      8  CD2       64.2880    4.7120   27.6090 C.ar  219  PHE219     -0.0042
      9  CE1       64.6780    4.9130   24.8430 C.ar  219  PHE219     -0.0003
     10  CE2       64.4700    3.5570   26.8630 C.ar  219  PHE219     -0.0003
     11  CZ        64.6710    3.6530   25.4660 C.ar  219  PHE219     -0.0000
     12  N         60.8030    6.5550   27.3880 N.am  220  ASN220     -0.1974
     13  CA        59.8150    5.5490   27.8150 C.3   220  ASN220      0.1688
     14  C         58.9120    6.0850   28.9340 C.2   220  ASN220      0.2292
     15  O         58.3920    5.3260   29.7420 O.2   220  ASN220     -0.2864
     16  CB        60.5520    4.2840   28.3220 C.3   220  ASN220      0.1181
     17  CG        59.8860    2.9710   27.8920 C.2   220  ASN220      0.2629
     18  OD1       58.8040    2.9550   27.3010 O.2   220  ASN220     -0.2716
     19  ND2       60.5700    1.8430   28.1950 N.am  220  ASN220     -0.0877
     20  N         66.2670    2.8280   38.1310 N.3   304  PHE304     -0.1241
     21  CA        65.9400    3.1620   36.7610 C.3   304  PHE304      0.1605
     22  C         66.9150    4.1880   36.1890 C.2   304  PHE304      0.2264
     23  O         66.4890    5.1920   35.5750 O.2   304  PHE304     -0.2867
     24  CB        64.4960    3.6260   36.6440 C.3   304  PHE304      0.0534
     25  CG        63.5060    2.6090   37.1160 C.ar  304  PHE304     -0.0203
     26  CD1       63.3390    1.4270   36.4400 C.ar  304  PHE304     -0.0042
     27  CD2       62.7730    2.8150   38.2790 C.ar  304  PHE304     -0.0042
     28  CE1       62.4370    0.4760   36.8810 C.ar  304  PHE304     -0.0003
     29  CE2       61.8850    1.8720   38.7420 C.ar  304  PHE304     -0.0003
     30  CZ        61.7000    0.7010   38.0290 C.ar  304  PHE304     -0.0000
     31  N         69.1490    2.8880   34.0210 N.3   306  TYR306     -0.1227
     32  CA        69.6660    1.9790   32.9940 C.3   306  TYR306      0.1736
     33  C         70.0000    2.7300   31.7460 C.2   306  TYR306      0.2595
     34  O         69.4050    3.7610   31.4490 O.2   306  TYR306     -0.2718
     35  CB        68.6520    0.8760   32.6740 C.3   306  TYR306      0.0548
     36  CG        67.3590    1.3500   32.0150 C.ar  306  TYR306     -0.0200
     37  CD1       66.2490    1.6690   32.7810 C.ar  306  TYR306     -0.0009
     38  CD2       67.2430    1.4480   30.6430 C.ar  306  TYR306     -0.0009
     39  CE1       65.0750    2.0860   32.2140 C.ar  306  TYR306      0.0417
     40  CE2       66.0530    1.9010   30.0500 C.ar  306  TYR306      0.0417
     41  CZ        64.9660    2.1900   30.8560 C.ar  306  TYR306      0.1957
     42  OH        63.7540    2.6430   30.3490 O.3   306  TYR306     -0.2866
     43  N         70.9120    2.1850   30.9850 N.am  307  ILE307     -0.1966
     44  CA        71.2480    2.7970   29.6870 C.3   307  ILE307      0.1727
     45  C         70.5190    2.0740   28.5530 C.2   307  ILE307      0.2616
     46  O         70.6080    0.8630   28.4050 O.2   307  ILE307     -0.2715
     47  CB        72.7700    2.7950   29.4290 C.3   307  ILE307      0.0290
     48  CG1       73.4650    3.6500   30.4860 C.3   307  ILE307      0.0022
     49  CG2       73.0750    3.3490   28.0300 C.3   307  ILE307      0.0023
     50  CD1       74.9690    3.4630   30.5480 C.3   307  ILE307      0.0001
     51  N         69.8120    2.8400   27.7660 N.am  308  LYS308     -0.1963
     52  CA        69.0390    2.3190   26.6530 C.3   308  LYS308      0.1728
     53  C         69.9120    1.5440   25.6860 C.2   308  LYS308      0.2617
     54  O         71.0080    1.9800   25.3450 O.2   308  LYS308     -0.2715
     55  CB        68.2990    3.4500   25.9370 C.3   308  LYS308      0.0311
     56  CG        69.1360    4.3080   25.0150 C.3   308  LYS308      0.0038
     57  CD        68.3050    5.3630   24.2760 C.3   308  LYS308      0.0206
     58  CE        67.7200    4.8250   22.9760 C.3   308  LYS308      0.1093
     59  NZ        68.7880    4.4540   22.0140 N.3   308  LYS308     -0.1314
     60  N         69.4560    0.3630   25.2980 N.am  309  GLY309     -0.1940
     61  CA        70.1590   -0.4600   24.2910 C.3   309  GLY309      0.2014
     62  C         71.1510   -1.3930   24.9140 C.2   309  GLY309      0.2639
     63  O         71.6830   -2.2410   24.2480 O.2   309  GLY309     -0.2714
     64  N         71.3310   -1.3120   26.2170 N.am  310  SER310     -0.1949
     65  CA        72.4110   -2.0060   26.9140 C.3   310  SER310      0.1924
     66  C         71.9170   -3.0940   27.8900 C.2   310  SER310      0.2314
     67  O         70.8320   -3.0130   28.4070 O.2   310  SER310     -0.2863
     68  CB        73.1610   -0.9080   27.7010 C.3   310  SER310      0.2116
     69  OG        74.3020   -1.3760   28.3680 O.3   310  SER310     -0.2180
     70  N         66.1400   -1.6210   38.1910 N.3   334  GLY334     -0.1225
     71  CA        66.2530   -1.1060   36.8380 C.3   334  GLY334      0.1811
     72  C         67.5760   -0.4430   36.4820 C.2   334  GLY334      0.2280
     73  O         67.6010    0.5830   35.7920 O.2   334  GLY334     -0.2866
     74  N         69.9080   -2.8820   35.3220 N.3   336  VAL336     -0.1245
     75  CA        69.8270   -3.8320   34.1920 C.3   336  VAL336      0.1561
     76  C         71.2060   -4.4080   33.9450 C.2   336  VAL336      0.2260
     77  O         72.0710   -3.7370   33.4080 O.2   336  VAL336     -0.2867
     78  CB        69.2170   -3.2510   32.8850 C.3   336  VAL336      0.0252
     79  CG1       69.1790   -4.3250   31.7810 C.3   336  VAL336      0.0019
     80  CG2       67.7670   -2.8070   33.0970 C.3   336  VAL336      0.0019
     81  N         63.6580   -5.9290   38.9700 N.3   361  ILE361     -0.1245
     82  CA        63.6390   -5.4700   37.5810 C.3   361  ILE361      0.1561
     83  C         65.0440   -5.0930   37.0610 C.2   361  ILE361      0.2260
     84  O         65.2340   -4.0720   36.4150 O.2   361  ILE361     -0.2867
     85  CB        62.7140   -4.2530   37.3550 C.3   361  ILE361      0.0252
     86  CG1       61.4310   -4.3440   38.1640 C.3   361  ILE361      0.0019
     87  CG2       62.2880   -4.1840   35.9130 C.3   361  ILE361      0.0019
     88  CD1       60.5810   -3.0440   38.2510 C.3   361  ILE361      0.0001
     89  N         66.7270   -7.9350   35.5220 N.3   363  PHE363     -0.1241
     90  CA        66.8850   -9.0090   34.5410 C.3   363  PHE363      0.1605
     91  C         68.1920   -9.7300   34.7020 C.2   363  PHE363      0.2264
     92  O         68.7920  -10.2130   33.7480 O.2   363  PHE363     -0.2867
     93  CB        66.6780   -8.5000   33.1410 C.3   363  PHE363      0.0534
     94  CG        65.4520   -7.7030   32.9980 C.ar  363  PHE363     -0.0203
     95  CD1       64.2030   -8.3270   32.8880 C.ar  363  PHE363     -0.0042
     96  CD2       65.5110   -6.3180   32.9780 C.ar  363  PHE363     -0.0042
     97  CE1       63.0120   -7.5620   32.7670 C.ar  363  PHE363     -0.0003
     98  CE2       64.3550   -5.5670   32.8070 C.ar  363  PHE363     -0.0003
     99  CZ        63.0930   -6.2030   32.7360 C.ar  363  PHE363     -0.0000
@<TRIPOS>BOND
     1    59    58    1
     2    58    57    1
     3    63    62    2
     4    57    56    1
     5    61    62    1
     6    61    60    1
     7     9    11   ar
     8     9     7   ar
     9    62    64   am
    10    56    55    1
    11    60    53   am
    12    54    53    2
    13    11    10   ar
    14     7     6   ar
    15    53    52    1
    16    55    52    1
    17    64    65    1
    18    52    51    1
    19    10     8   ar
    20    65    68    1
    21    65    66    1
    22     6     8   ar
    23     6     5    1
    24    18    17    2
    25    12    13    1
    26    12     3   am
    27     2     5    1
    28     2     3    1
    29     2     1    1
    30    68    69    1
    31    51    45   am
    32    13    16    1
    33    13    14    1
    34    66    67    2
    35    17    19   am
    36    17    16    1
    37    49    47    1
    38     3     4    2
    39    46    45    2
    40    45    44    1
    41    14    15    2
    42    47    44    1
    43    47    48    1
    44    44    43    1
    45    40    38   ar
    46    40    41   ar
    47    42    41    1
    48    48    50    1
    49    38    36   ar
    50    41    39   ar
    51    43    33   am
    52    34    33    2
    53    33    32    1
    54    79    78    1
    55    36    35    1
    56    36    37   ar
    57    39    37   ar
    58    35    32    1
    59    99    97   ar
    60    99    98   ar
    61    97    95   ar
    62    98    96   ar
    63    78    80    1
    64    78    75    1
    65    95    94   ar
    66    96    94   ar
    67    32    31    1
    68    94    93    1
    69    93    90    1
    70    77    76    2
    71    92    91    2
    72    76    75    1
    73    75    74    1
    74    90    91    1
    75    90    89    1
    76    23    22    2
    77    73    72    2
    78    87    85    1
    79    22    21    1
    80    84    83    2
    81    26    28   ar
    82    26    25   ar
    83    72    71    1
    84    24    21    1
    85    24    25    1
    86    21    20    1
    87    71    70    1
    88    28    30   ar
    89    83    82    1
    90    25    27   ar
    91    85    82    1
    92    85    86    1
    93    82    81    1
    94    30    29   ar
    95    86    88    1
    96    27    29   ar
