@<TRIPOS>MOLECULE
tmp/5wyzB00.pdb
 99 96 0 0 0
SMALL
GASTEIGER

@<TRIPOS>ATOM
      1  N         55.2930  -38.9900   35.3660 N.3   219  PHE219     -0.1227
      2  CA        55.8470  -37.7800   35.9430 C.3   219  PHE219      0.1736
      3  C         55.0580  -36.5530   35.5060 C.2   219  PHE219      0.2595
      4  O         54.9360  -36.2800   34.3070 O.2   219  PHE219     -0.2718
      5  CB        57.2800  -37.5840   35.4910 C.3   219  PHE219      0.0547
      6  CG        58.0170  -36.5560   36.2940 C.ar  219  PHE219     -0.0202
      7  CD1       58.3240  -36.8210   37.6260 C.ar  219  PHE219     -0.0042
      8  CD2       58.3930  -35.3480   35.7440 C.ar  219  PHE219     -0.0042
      9  CE1       59.0130  -35.9170   38.3720 C.ar  219  PHE219     -0.0003
     10  CE2       59.1070  -34.4420   36.4910 C.ar  219  PHE219     -0.0003
     11  CZ        59.4100  -34.7230   37.8060 C.ar  219  PHE219     -0.0000
     12  N         54.5210  -35.8010   36.4610 N.am  220  ASN220     -0.1974
     13  CA        53.7870  -34.5580   36.1020 C.3   220  ASN220      0.1688
     14  C         52.6010  -34.8080   35.1180 C.2   220  ASN220      0.2292
     15  O         52.3330  -34.0230   34.2050 O.2   220  ASN220     -0.2864
     16  CB        54.7690  -33.5590   35.4770 C.3   220  ASN220      0.1181
     17  CG        54.5730  -32.1610   35.9920 C.2   220  ASN220      0.2629
     18  OD1       53.5170  -31.8200   36.5180 O.2   220  ASN220     -0.2716
     19  ND2       55.5920  -31.3490   35.8580 N.am  220  ASN220     -0.0877
     20  N         58.7930  -33.6440   24.9490 N.3   304  PHE304     -0.1241
     21  CA        58.6140  -33.9970   26.3580 C.3   304  PHE304      0.1605
     22  C         59.2770  -35.2960   26.7500 C.2   304  PHE304      0.2264
     23  O         58.7140  -36.1220   27.4660 O.2   304  PHE304     -0.2867
     24  CB        57.1450  -33.9400   26.7460 C.3   304  PHE304      0.0534
     25  CG        56.5010  -32.6100   26.4270 C.ar  304  PHE304     -0.0203
     26  CD1       56.8310  -31.4770   27.1450 C.ar  304  PHE304     -0.0042
     27  CD2       55.5830  -32.4790   25.3780 C.ar  304  PHE304     -0.0042
     28  CE1       56.2880  -30.2580   26.8200 C.ar  304  PHE304     -0.0003
     29  CE2       54.9950  -31.2760   25.0690 C.ar  304  PHE304     -0.0003
     30  CZ        55.3560  -30.1560   25.7910 C.ar  304  PHE304     -0.0000
     31  N         62.1850  -34.8420   28.4010 N.3   306  TYR306     -0.1227
     32  CA        63.1450  -34.2260   29.3530 C.3   306  TYR306      0.1736
     33  C         63.4050  -35.1530   30.5130 C.2   306  TYR306      0.2595
     34  O         62.5380  -35.9710   30.9110 O.2   306  TYR306     -0.2718
     35  CB        62.6710  -32.8730   29.8520 C.3   306  TYR306      0.0548
     36  CG        61.4830  -32.8970   30.7800 C.ar  306  TYR306     -0.0200
     37  CD1       60.2070  -32.6850   30.2940 C.ar  306  TYR306     -0.0009
     38  CD2       61.6290  -33.0670   32.1510 C.ar  306  TYR306     -0.0009
     39  CE1       59.1200  -32.6730   31.1220 C.ar  306  TYR306      0.0417
     40  CE2       60.5360  -33.0650   32.9920 C.ar  306  TYR306      0.0417
     41  CZ        59.2820  -32.8780   32.4660 C.ar  306  TYR306      0.1957
     42  OH        58.1550  -32.8610   33.2630 O.3   306  TYR306     -0.2866
     43  N         64.6080  -35.0410   31.0500 N.am  307  ILE307     -0.1966
     44  CA        64.9740  -35.8060   32.2410 C.3   307  ILE307      0.1727
     45  C         64.7680  -34.9170   33.4800 C.2   307  ILE307      0.2616
     46  O         65.2700  -33.8030   33.5380 O.2   307  ILE307     -0.2715
     47  CB        66.4240  -36.2820   32.1390 C.3   307  ILE307      0.0290
     48  CG1       66.5580  -37.2920   30.9590 C.3   307  ILE307      0.0022
     49  CG2       66.8510  -36.9450   33.4610 C.3   307  ILE307      0.0023
     50  CD1       67.9930  -37.6180   30.5370 C.3   307  ILE307      0.0001
     51  N         64.0350  -35.4150   34.4640 N.am  308  LYS308     -0.1963
     52  CA        63.7520  -34.6270   35.6400 C.3   308  LYS308      0.1728
     53  C         65.0200  -34.1450   36.3420 C.2   308  LYS308      0.2617
     54  O         65.9630  -34.8910   36.4830 O.2   308  LYS308     -0.2715
     55  CB        62.8480  -35.4000   36.5740 C.3   308  LYS308      0.0311
     56  CG        63.5040  -36.1050   37.7290 C.3   308  LYS308      0.0038
     57  CD        62.4520  -37.0120   38.3730 C.3   308  LYS308      0.0206
     58  CE        62.1090  -36.6230   39.7980 C.3   308  LYS308      0.1093
     59  NZ        62.7140  -37.4980   40.8380 N.3   308  LYS308     -0.1314
     60  N         65.0420  -32.8770   36.7310 N.am  309  GLY309     -0.1940
     61  CA        66.1810  -32.2970   37.4150 C.3   309  GLY309      0.2014
     62  C         67.3570  -31.8810   36.5470 C.2   309  GLY309      0.2639
     63  O         68.3080  -31.3230   37.0780 O.2   309  GLY309     -0.2714
     64  N         67.2940  -32.0940   35.2250 N.am  310  SER310     -0.1949
     65  CA        68.3680  -31.6750   34.3290 C.3   310  SER310      0.1924
     66  C         68.0430  -30.3900   33.6220 C.2   310  SER310      0.2314
     67  O         66.9110  -30.1460   33.2540 O.2   310  SER310     -0.2863
     68  CB        68.5960  -32.6760   33.1780 C.3   310  SER310      0.2116
     69  OG        68.9610  -33.9480   33.6610 O.3   310  SER310     -0.2180
     70  N         60.0570  -29.4120   24.8010 N.3   334  GLY334     -0.1225
     71  CA        60.2750  -29.9380   26.1130 C.3   334  GLY334      0.1811
     72  C         61.3320  -31.0100   26.2460 C.2   334  GLY334      0.2280
     73  O         61.1690  -31.9900   27.0240 O.2   334  GLY334     -0.2866
     74  N         64.4640  -29.5970   26.8330 N.3   336  VAL336     -0.1245
     75  CA        64.9280  -28.6830   27.9110 C.3   336  VAL336      0.1561
     76  C         66.4360  -28.6480   27.9210 C.2   336  VAL336      0.2260
     77  O         67.0760  -29.5660   28.3820 O.2   336  VAL336     -0.2867
     78  CB        64.4040  -29.0290   29.3240 C.3   336  VAL336      0.0252
     79  CG1       64.9470  -28.0430   30.3270 C.3   336  VAL336      0.0019
     80  CG2       62.8860  -28.9830   29.3370 C.3   336  VAL336      0.0019
     81  N         58.9950  -24.4400   24.3210 N.3   361  ILE361     -0.1245
     82  CA        59.1290  -24.9260   25.6820 C.3   361  ILE361      0.1561
     83  C         60.4060  -25.7390   25.9140 C.2   361  ILE361      0.2260
     84  O         60.3720  -26.8050   26.5430 O.2   361  ILE361     -0.2867
     85  CB        57.9250  -25.7940   26.0830 C.3   361  ILE361      0.0252
     86  CG1       56.6680  -25.3210   25.3360 C.3   361  ILE361      0.0019
     87  CG2       57.6980  -25.6700   27.5840 C.3   361  ILE361      0.0019
     88  CD1       55.3660  -26.0370   25.6550 C.3   361  ILE361      0.0001
     89  N         63.1130  -23.7030   27.1170 N.3   363  PHE363     -0.1241
     90  CA        63.8090  -22.7420   27.9540 C.3   363  PHE363      0.1605
     91  C         65.2570  -22.5030   27.5140 C.2   363  PHE363      0.2264
     92  O         66.1480  -22.2930   28.3410 O.2   363  PHE363     -0.2867
     93  CB        63.7390  -23.1760   29.4280 C.3   363  PHE363      0.0534
     94  CG        62.3580  -23.5110   29.8680 C.ar  363  PHE363     -0.0203
     95  CD1       61.4570  -22.5130   30.2170 C.ar  363  PHE363     -0.0042
     96  CD2       61.9300  -24.8200   29.8720 C.ar  363  PHE363     -0.0042
     97  CE1       60.1470  -22.8290   30.6140 C.ar  363  PHE363     -0.0003
     98  CE2       60.6310  -25.1390   30.2470 C.ar  363  PHE363     -0.0003
     99  CZ        59.7220  -24.1470   30.5960 C.ar  363  PHE363     -0.0000
@<TRIPOS>BOND
     1    81    82    1
     2    70    71    1
     3    20    21    1
     4    29    27   ar
     5    29    30   ar
     6    86    88    1
     7    86    85    1
     8    27    25   ar
     9    82    83    1
    10    82    85    1
    11    30    28   ar
    12    83    84    2
    13    85    87    1
    14    71    72    1
    15    72    73    2
    16    21    24    1
    17    21    22    1
    18    25    24    1
    19    25    26   ar
    20    22    23    2
    21    28    26   ar
    22    74    75    1
    23    89    90    1
    24    91    90    1
    25    91    92    2
    26    75    76    1
    27    75    78    1
    28    76    77    2
    29    90    93    1
    30    31    32    1
    31    78    80    1
    32    78    79    1
    33    32    35    1
    34    32    33    1
    35    93    94    1
    36    35    36    1
    37    94    96   ar
    38    94    95   ar
    39    96    98   ar
    40    95    97   ar
    41    98    99   ar
    42    37    36   ar
    43    37    39   ar
    44    33    34    2
    45    33    43   am
    46    50    48    1
    47    99    97   ar
    48    36    38   ar
    49    48    47    1
    50    43    44    1
    51    39    41   ar
    52    47    44    1
    53    47    49    1
    54    38    40   ar
    55    44    45    1
    56    41    40   ar
    57    41    42    1
    58    68    69    1
    59    68    65    1
    60    67    66    2
    61    45    46    2
    62    45    51   am
    63    66    65    1
    64    15    14    2
    65     4     3    2
    66    65    64    1
    67    51    52    1
    68    14    13    1
    69    64    62   am
    70     1     2    1
    71    16    17    1
    72    16    13    1
    73     5     2    1
    74     5     6    1
    75     3     2    1
    76     3    12   am
    77    52    53    1
    78    52    55    1
    79     8     6   ar
    80     8    10   ar
    81    19    17   am
    82    17    18    2
    83    13    12    1
    84     6     7   ar
    85    53    54    2
    86    53    60   am
    87    10    11   ar
    88    62    63    2
    89    62    61    1
    90    55    56    1
    91    60    61    1
    92     7     9   ar
    93    56    57    1
    94    11     9   ar
    95    57    58    1
    96    58    59    1
