@<TRIPOS>MOLECULE
tmp/5wzeB01.pdb
 91 88 0 0 0
SMALL
GASTEIGER

@<TRIPOS>ATOM
      1  N        -15.4270  -10.5290    8.5540 N.3   242  LEU242     -0.1231
      2  CA       -16.4910  -10.4490    7.5530 C.3   242  LEU242      0.1693
      3  C        -17.8700  -10.7620    8.1480 C.2   242  LEU242      0.2592
      4  O        -18.8550  -10.1020    7.8050 O.2   242  LEU242     -0.2718
      5  CB       -16.1730  -11.3580    6.3660 C.3   242  LEU242      0.0284
      6  CG       -14.8840  -11.0020    5.6150 C.3   242  LEU242      0.0019
      7  CD1      -14.7110  -11.8650    4.3950 C.3   242  LEU242      0.0001
      8  CD2      -14.8500   -9.5360    5.2160 C.3   242  LEU242      0.0001
      9  N        -17.9350  -11.6510    9.1180 N.am  243  HIS243     -0.1976
     10  CA       -19.1890  -12.0110    9.7480 C.3   243  HIS243      0.1656
     11  C        -19.1260  -11.7910   11.2360 C.2   243  HIS243      0.2291
     12  O        -19.5280  -12.5930   11.9890 O.2   243  HIS243     -0.2864
     13  CB       -19.5590  -13.4380    9.4320 C.3   243  HIS243      0.0771
     14  CG       -19.8770  -13.6600    7.9960 C.ar  243  HIS243      0.0820
     15  ND1      -20.1790  -14.8940    7.4870 N.ar  243  HIS243     -0.2267
     16  CD2      -19.9890  -12.7980    6.9660 C.ar  243  HIS243      0.1154
     17  CE1      -20.4280  -14.7900    6.2030 C.ar  243  HIS243      0.1986
     18  NE2      -20.3180  -13.5260    5.8600 N.ar  243  HIS243     -0.2212
     19  N        -24.1000   -5.0150    8.4270 N.3   260  ASP260     -0.1239
     20  CA       -24.6180   -5.9570    7.4380 C.3   260  ASP260      0.1674
     21  C        -25.8450   -6.5920    8.0810 C.2   260  ASP260      0.2266
     22  O        -25.7110   -7.3490    9.0430 O.2   260  ASP260     -0.2867
     23  CB       -23.5590   -7.0060    7.0750 C.3   260  ASP260      0.1410
     24  CG       -23.9160   -7.8400    5.8310 C.2   260  ASP260      0.3668
     25  OD1      -25.1030   -7.9640    5.4950 O.co2 260  ASP260     -0.2456
     26  OD2      -22.9910   -8.3840    5.1920 O.co2 260  ASP260     -0.2456
     27  N        -13.4630  -11.7530   -0.7400 N.3   350  HIS350     -0.1226
     28  CA       -14.7060  -12.4850   -0.9030 C.3   350  HIS350      0.1752
     29  C        -15.3250  -12.1330   -2.2460 C.2   350  HIS350      0.2595
     30  O        -14.8360  -11.2710   -2.9720 O.2   350  HIS350     -0.2718
     31  CB       -15.6770  -12.2180    0.2510 C.3   350  HIS350      0.0759
     32  CG       -16.1220  -10.7900    0.3660 C.ar  350  HIS350      0.0818
     33  ND1      -17.0160  -10.2140   -0.5080 N.ar  350  HIS350     -0.2268
     34  CD2      -15.8120   -9.8300    1.2690 C.ar  350  HIS350      0.1154
     35  CE1      -17.2290   -8.9600   -0.1530 C.ar  350  HIS350      0.1986
     36  NE2      -16.5120   -8.7010    0.9220 N.ar  350  HIS350     -0.2212
     37  N        -16.3960  -12.8290   -2.5850 N.am  351  ARG351     -0.1980
     38  CA       -17.0430  -12.6090   -3.8640 C.3   351  ARG351      0.1597
     39  C        -17.9720  -11.3980   -3.8050 C.2   351  ARG351      0.2287
     40  O        -18.3820  -10.9570   -2.7370 O.2   351  ARG351     -0.2864
     41  CB       -17.8340  -13.8420   -4.2780 C.3   351  ARG351      0.0334
     42  CG       -16.9960  -15.0960   -4.4420 C.3   351  ARG351      0.0492
     43  CD       -16.2900  -15.0930   -5.7720 C.3   351  ARG351      0.2205
     44  NE       -15.3590  -16.2050   -5.9020 N.pl3 351  ARG351     -0.0865
     45  CZ       -14.7140  -16.4980   -7.0230 C.cat 351  ARG351      0.5346
     46  NH1      -14.9120  -15.7590   -8.1060 N.pl3 351  ARG351      0.1354
     47  NH2      -13.8820  -17.5300   -7.0610 N.pl3 351  ARG351      0.1354
     48  N        -21.0670  -11.1390   -4.6860 N.3   353  GLY353     -0.1210
     49  CA       -22.4800  -11.3280   -4.4050 C.3   353  GLY353      0.1956
     50  C        -22.9090  -12.7740   -4.5340 C.2   353  GLY353      0.2611
     51  O        -22.1120  -13.6600   -4.8350 O.2   353  GLY353     -0.2717
     52  N        -24.2090  -12.9870   -4.3170 N.am  354  HIS354     -0.1975
     53  CA       -24.7890  -14.3220   -4.2680 C.3   354  HIS354      0.1656
     54  C        -26.2510  -14.2370   -4.6690 C.2   354  HIS354      0.2291
     55  O        -26.8520  -13.1680   -4.6240 O.2   354  HIS354     -0.2864
     56  CB       -24.6640  -14.9310   -2.8740 C.3   354  HIS354      0.0771
     57  CG       -25.0690  -14.0040   -1.7730 C.ar  354  HIS354      0.0820
     58  ND1      -26.3810  -13.8030   -1.4100 N.ar  354  HIS354     -0.2267
     59  CD2      -24.3320  -13.2120   -0.9590 C.ar  354  HIS354      0.1154
     60  CE1      -26.4330  -12.9410   -0.4120 C.ar  354  HIS354      0.1986
     61  NE2      -25.2050  -12.5650   -0.1200 N.ar  354  HIS354     -0.2212
     62  N        -28.3540  -16.7040    1.1320 N.3   361  HIS361     -0.1241
     63  CA       -27.5150  -17.3180    0.1120 C.3   361  HIS361      0.1621
     64  C        -28.3870  -18.3340   -0.5850 C.2   361  HIS361      0.2264
     65  O        -28.4650  -19.4810   -0.1760 O.2   361  HIS361     -0.2867
     66  CB       -26.2720  -17.9640    0.6860 C.3   361  HIS361      0.0745
     67  CG       -25.4100  -17.0150    1.4200 C.ar  361  HIS361      0.0817
     68  ND1      -24.6280  -17.3940    2.4820 N.ar  361  HIS361     -0.2268
     69  CD2      -25.2230  -15.6860    1.2590 C.ar  361  HIS361      0.1154
     70  CE1      -23.9900  -16.3350    2.9420 C.ar  361  HIS361      0.1986
     71  NE2      -24.3370  -15.2850    2.2210 N.ar  361  HIS361     -0.2212
     72  N        -22.0260   -6.6710   -3.3940 N.3   384  GLU384     -0.1245
     73  CA       -21.4210   -6.2880   -2.1320 C.3   384  GLU384      0.1567
     74  C        -19.8960   -6.2620   -2.1770 C.2   384  GLU384      0.2260
     75  O        -19.2460   -7.0050   -1.4380 O.2   384  GLU384     -0.2867
     76  CB       -21.8700   -7.2280   -1.0220 C.3   384  GLU384      0.0388
     77  CG       -21.8040   -8.6630   -1.3930 C.3   384  GLU384      0.1160
     78  CD       -22.4670   -9.5260   -0.3650 C.2   384  GLU384      0.3649
     79  OE1      -22.2440   -9.2930    0.8310 O.co2 384  GLU384     -0.2457
     80  OE2      -23.2360  -10.4100   -0.7540 O.co2 384  GLU384     -0.2457
     81  N        -17.8090   -2.1350    3.4480 N.3   406  ARG406     -0.1245
     82  CA       -18.5910   -2.8960    2.4880 C.3   406  ARG406      0.1563
     83  C        -19.8710   -2.1230    2.1930 C.2   406  ARG406      0.2260
     84  O        -20.4430   -1.5100    3.0920 O.2   406  ARG406     -0.2867
     85  CB       -18.9050   -4.3140    3.0140 C.3   406  ARG406      0.0307
     86  CG       -19.7880   -5.1550    2.1000 C.3   406  ARG406      0.0489
     87  CD       -19.7400   -6.6710    2.4010 C.3   406  ARG406      0.2205
     88  NE       -20.3920   -7.0710    3.6430 N.pl3 406  ARG406     -0.0865
     89  CZ       -19.7460   -7.3620    4.7620 C.cat 406  ARG406      0.5346
     90  NH1      -18.4210   -7.3000    4.7960 N.pl3 406  ARG406      0.1354
     91  NH2      -20.4180   -7.7160    5.8440 N.pl3 406  ARG406      0.1354
@<TRIPOS>BOND
     1    46    45    1
     2    47    45    1
     3    45    44    2
     4    44    43    1
     5    43    42    1
     6    51    50    2
     7    48    49    1
     8    54    55    2
     9    54    53    1
    10    50    49    1
    11    50    52   am
    12    42    41    1
    13    52    53    1
    14    41    38    1
    15    53    56    1
    16    38    39    1
    17    38    37    1
    18    39    40    2
    19    72    73    1
    20    30    29    2
    21    56    57    1
    22    37    29   am
    23    29    28    1
    24    74    73    1
    25    74    75    2
    26    73    76    1
    27    57    58   ar
    28    57    59   ar
    29    58    60   ar
    30    77    76    1
    31    77    78    1
    32    59    61   ar
    33    28    27    1
    34    28    31    1
    35    80    78   ar
    36    64    65    2
    37    64    63    1
    38    33    35   ar
    39    33    32   ar
    40    60    61   ar
    41    78    79   ar
    42    35    36   ar
    43    63    66    1
    44    63    62    1
    45    31    32    1
    46    32    34   ar
    47    66    67    1
    48    36    34   ar
    49    69    67   ar
    50    69    71   ar
    51    67    68   ar
    52    86    87    1
    53    86    85    1
    54    83    82    1
    55    83    84    2
    56    71    70   ar
    57    87    88    1
    58    68    70   ar
    59    82    85    1
    60    82    81    1
    61    88    89    2
    62     7     6    1
    63    89    90    1
    64    89    91    1
    65    26    24   ar
    66     8     6    1
    67    25    24   ar
    68     6     5    1
    69    24    23    1
    70    18    17   ar
    71    18    16   ar
    72    17    15   ar
    73     5     2    1
    74    16    14   ar
    75    23    20    1
    76    20    21    1
    77    20    19    1
    78    15    14   ar
    79     2     3    1
    80     2     1    1
    81     4     3    2
    82    14    13    1
    83    21    22    2
    84     3     9   am
    85     9    10    1
    86    13    10    1
    87    10    11    1
    88    11    12    2
