@<TRIPOS>MOLECULE
tmp/5wzeB00.pdb
 73 69 0 0 0
SMALL
GASTEIGER

@<TRIPOS>ATOM
      1  N        -28.0100    4.5490   11.5700 N.3   199  MET199     -0.1230
      2  CA       -27.2140    5.7340   11.2840 C.3   199  MET199      0.1702
      3  C        -27.6280    6.9080   12.1650 C.2   199  MET199      0.2592
      4  O        -26.7850    7.5370   12.8090 O.2   199  MET199     -0.2718
      5  CB       -27.3380    6.1040    9.8060 C.3   199  MET199      0.0401
      6  CG       -26.6050    5.2010    8.8380 C.3   199  MET199      0.0596
      7  SD       -26.9470    5.6870    7.1350 S.3   199  MET199     -0.1393
      8  CE       -26.1350    4.3960    6.2230 C.3   199  MET199      0.0692
      9  N        -28.9250    7.1920   12.2340 N.am  200  GLU200     -0.1966
     10  CA       -29.4040    8.3890   12.9100 C.3   200  GLU200      0.1733
     11  C        -29.1260    8.3620   14.4030 C.2   200  GLU200      0.2616
     12  O        -28.9170    9.4120   15.0100 O.2   200  GLU200     -0.2715
     13  CB       -30.9020    8.5560   12.6600 C.3   200  GLU200      0.0429
     14  CG       -31.2370    8.9070   11.2330 C.3   200  GLU200      0.1163
     15  CD       -32.7230    9.0030   10.9690 C.2   200  GLU200      0.3649
     16  OE1      -33.5140    8.4900   11.7730 O.co2 200  GLU200     -0.2457
     17  OE2      -33.0910    9.5900    9.9510 O.co2 200  GLU200     -0.2457
     18  N        -29.1230    7.1810   15.0120 N.am  201  VAL201     -0.1963
     19  CA       -28.9310    7.0840   16.4550 C.3   201  VAL201      0.1727
     20  C        -27.4610    6.9680   16.8490 C.2   201  VAL201      0.2616
     21  O        -27.1110    7.2840   17.9880 O.2   201  VAL201     -0.2715
     22  CB       -29.7300    5.8930   17.0240 C.3   201  VAL201      0.0290
     23  CG1      -29.1170    4.5760   16.5790 C.3   201  VAL201      0.0023
     24  CG2      -29.8250    5.9670   18.5480 C.3   201  VAL201      0.0023
     25  N        -26.5920    6.5590   15.9380 N.am  202  CYS202     -0.1954
     26  CA       -25.2220    6.2410   16.3110 C.3   202  CYS202      0.1843
     27  C        -24.5000    7.4600   16.8670 C.2   202  CYS202      0.2625
     28  O        -24.5950    8.5540   16.3240 O.2   202  CYS202     -0.2714
     29  CB       -24.4580    5.7000   15.1110 C.3   202  CYS202      0.0997
     30  SG       -22.7310    5.3190   15.4750 S.3   202  CYS202     -0.0797
     31  N        -23.7820    7.2560   17.9630 N.am  203  ARG203     -0.1977
     32  CA       -22.8720    8.2600   18.4920 C.3   203  ARG203      0.1597
     33  C        -21.8220    7.5520   19.3210 C.2   203  ARG203      0.2287
     34  O        -22.0940    6.4780   19.8600 O.2   203  ARG203     -0.2864
     35  CB       -23.6100    9.2950   19.3470 C.3   203  ARG203      0.0334
     36  CG       -24.2340    8.7160   20.5900 C.3   203  ARG203      0.0492
     37  CD       -24.8090    9.7850   21.5040 C.3   203  ARG203      0.2205
     38  NE       -25.5020    9.2270   22.6660 N.pl3 203  ARG203     -0.0865
     39  CZ       -24.9000    8.7450   23.7490 C.cat 203  ARG203      0.5346
     40  NH1      -23.5800    8.7240   23.8360 N.pl3 203  ARG203      0.1354
     41  NH2      -25.6250    8.2690   24.7470 N.pl3 203  ARG203      0.1354
     42  N        -27.0350   11.9710    9.0020 N.3   436  MET436     -0.1245
     43  CA       -26.6180   11.8870   10.3920 C.3   436  MET436      0.1570
     44  C        -26.6670   13.2510   11.0640 C.2   436  MET436      0.2261
     45  O        -27.0900   13.3620   12.2180 O.2   436  MET436     -0.2867
     46  CB       -25.2140   11.2830   10.4850 C.3   436  MET436      0.0387
     47  CG       -25.1430    9.8300   10.0320 C.3   436  MET436      0.0595
     48  SD       -23.5730    8.9790   10.3080 S.3   436  MET436     -0.1393
     49  CE       -23.4760    8.9270   12.0600 C.3   436  MET436      0.0692
     50  N        -30.2720   14.2460   12.0220 N.3   439  ALA439     -0.1231
     51  CA       -30.8260   13.5380   13.1700 C.3   439  ALA439      0.1694
     52  C        -30.2480   14.0660   14.4740 C.2   439  ALA439      0.2591
     53  O        -30.9790   14.2680   15.4480 O.2   439  ALA439     -0.2718
     54  CB       -30.5650   12.0370   13.0400 C.3   439  ALA439      0.0304
     55  N        -28.9350   14.2660   14.5150 N.am  440  LYS440     -0.1980
     56  CA       -28.2990   14.8580   15.6820 C.3   440  LYS440      0.1596
     57  C        -28.9420   16.1940   16.0270 C.2   440  LYS440      0.2287
     58  O        -29.2650   16.4670   17.1860 O.2   440  LYS440     -0.2864
     59  CB       -26.8110   15.0240   15.3900 C.3   440  LYS440      0.0298
     60  CG       -25.9360   15.3890   16.5470 C.3   440  LYS440      0.0038
     61  CD       -24.4640   15.3570   16.0950 C.3   440  LYS440      0.0206
     62  CE       -23.5100   15.5150   17.2680 C.3   440  LYS440      0.1093
     63  NZ       -22.1110   15.1000   16.9170 N.3   440  LYS440     -0.1314
     64  N        -32.5030   15.7440   17.3070 N.3   443  ALA443     -0.1231
     65  CA       -32.4990   15.1660   18.6440 C.3   443  ALA443      0.1694
     66  C        -32.1220   16.2020   19.6890 C.2   443  ALA443      0.2591
     67  O        -32.6900   16.2150   20.7840 O.2   443  ALA443     -0.2718
     68  CB       -31.5510   13.9740   18.7090 C.3   443  ALA443      0.0304
     69  N        -31.1650   17.0770   19.3700 N.am  444  ALA444     -0.1980
     70  CA       -30.8290   18.1690   20.2800 C.3   444  ALA444      0.1597
     71  C        -32.0230   19.0660   20.5550 C.2   444  ALA444      0.2287
     72  O        -32.1490   19.6020   21.6570 O.2   444  ALA444     -0.2864
     73  CB       -29.6790   19.0050   19.7180 C.3   444  ALA444      0.0319
@<TRIPOS>BOND
     1     8     7    1
     2     7     6    1
     3     6     5    1
     4    42    43    1
     5     5     2    1
     6    17    15   ar
     7    47    48    1
     8    47    46    1
     9    48    49    1
    10    43    46    1
    11    43    44    1
    12    15    14    1
    13    15    16   ar
    14    44    45    2
    15    14    13    1
    16     2     1    1
    17     2     3    1
    18    50    51    1
    19     3     9   am
    20     3     4    2
    21     9    10    1
    22    13    10    1
    23    10    11    1
    24    54    51    1
    25    51    52    1
    26    11    12    2
    27    11    18   am
    28    52    55   am
    29    52    53    2
    30    55    56    1
    31    18    19    1
    32    29    30    1
    33    29    26    1
    34    59    56    1
    35    59    60    1
    36    56    57    1
    37    25    26    1
    38    25    20   am
    39    57    58    2
    40    61    60    1
    41    61    62    1
    42    26    27    1
    43    28    27    2
    44    19    20    1
    45    19    22    1
    46    23    22    1
    47    20    21    2
    48    27    31   am
    49    63    62    1
    50    22    24    1
    51    64    65    1
    52    31    32    1
    53    32    33    1
    54    32    35    1
    55    65    68    1
    56    65    66    1
    57    33    34    2
    58    35    36    1
    59    69    66   am
    60    69    70    1
    61    66    67    2
    62    73    70    1
    63    70    71    1
    64    71    72    2
    65    36    37    1
    66    37    38    1
    67    38    39    2
    68    39    40    1
    69    39    41    1
