@<TRIPOS>MOLECULE
tmp/5wznA00.pdb
 170 166 0 0 0
SMALL
GASTEIGER

@<TRIPOS>ATOM
      1  N        -10.8320    1.7460   60.3070 N.3   267  HIS267     -0.1241
      2  CA       -12.2420    1.3790   60.3090 C.3   267  HIS267      0.1621
      3  C        -12.8130    1.5490   61.7380 C.2   267  HIS267      0.2264
      4  O        -12.5070    0.7540   62.6070 O.2   267  HIS267     -0.2867
      5  CB       -12.3870   -0.0570   59.8010 C.3   267  HIS267      0.0745
      6  CG       -13.8140   -0.4830   59.6880 C.ar  267  HIS267      0.0817
      7  ND1      -14.5580   -0.8860   60.7870 N.ar  267  HIS267     -0.2268
      8  CD2      -14.6690   -0.4810   58.6340 C.ar  267  HIS267      0.1154
      9  CE1      -15.8100   -1.1190   60.4150 C.ar  267  HIS267      0.1986
     10  NE2      -15.9040   -0.8880   59.1140 N.ar  267  HIS267     -0.2212
     11  N        -25.5410    2.8870   63.4470 N.3   325  TYR325     -0.1227
     12  CA       -25.0840    1.8080   62.6220 C.3   325  TYR325      0.1736
     13  C        -26.1560    0.7010   62.4550 C.2   325  TYR325      0.2595
     14  O        -26.7720    0.2580   63.4340 O.2   325  TYR325     -0.2718
     15  CB       -23.8070    1.2220   63.1960 C.3   325  TYR325      0.0548
     16  CG       -23.1790    0.1730   62.3060 C.ar  325  TYR325     -0.0200
     17  CD1      -22.4320    0.5580   61.1860 C.ar  325  TYR325     -0.0009
     18  CD2      -23.3620   -1.1950   62.5540 C.ar  325  TYR325     -0.0009
     19  CE1      -21.8350   -0.3850   60.3870 C.ar  325  TYR325      0.0417
     20  CE2      -22.7890   -2.1800   61.7250 C.ar  325  TYR325      0.0417
     21  CZ       -22.0320   -1.7650   60.6440 C.ar  325  TYR325      0.1957
     22  OH       -21.4010   -2.6830   59.8260 O.3   325  TYR325     -0.2866
     23  N        -26.3450    0.2860   61.1970 N.am  326  ASP326     -0.1974
     24  CA       -27.3060   -0.7240   60.8350 C.3   326  ASP326      0.1709
     25  C        -28.7330   -0.4210   61.3170 C.2   326  ASP326      0.2293
     26  O        -29.4410   -1.3640   61.6710 O.2   326  ASP326     -0.2864
     27  CB       -26.8380   -2.1090   61.3260 C.3   326  ASP326      0.1436
     28  CG       -25.8410   -2.7810   60.3510 C.2   326  ASP326      0.3671
     29  OD1      -25.6070   -2.2710   59.2140 O.co2 326  ASP326     -0.2456
     30  OD2      -25.3340   -3.8670   60.7100 O.co2 326  ASP326     -0.2456
     31  N        -19.5070    4.3950   55.5690 N.3   362  HIS362     -0.1241
     32  CA       -20.1430    3.0670   55.5410 C.3   362  HIS362      0.1621
     33  C        -21.6470    3.2860   55.2970 C.2   362  HIS362      0.2264
     34  O        -22.3420    3.8890   56.1150 O.2   362  HIS362     -0.2867
     35  CB       -19.9490    2.3510   56.8730 C.3   362  HIS362      0.0745
     36  CG       -20.5600    0.9700   56.9220 C.ar  362  HIS362      0.0817
     37  ND1      -19.8170   -0.1660   57.1900 N.ar  362  HIS362     -0.2268
     38  CD2      -21.8440    0.5450   56.7420 C.ar  362  HIS362      0.1154
     39  CE1      -20.6150   -1.2180   57.1950 C.ar  362  HIS362      0.1986
     40  NE2      -21.8420   -0.8130   56.8880 N.ar  362  HIS362     -0.2212
     41  N        -25.4690    1.4740   53.2910 N.3   364  GLN364     -0.1245
     42  CA       -26.1420    0.1390   53.2050 C.3   364  GLN364      0.1566
     43  C        -27.4270    0.3220   52.3940 C.2   364  GLN364      0.2260
     44  O        -28.2630    1.1410   52.7630 O.2   364  GLN364     -0.2867
     45  CB       -26.5310   -0.3720   54.6200 C.3   364  GLN364      0.0367
     46  CG       -27.4960   -1.5720   54.6490 C.3   364  GLN364      0.0905
     47  CD       -26.8860   -2.8820   54.1280 C.2   364  GLN364      0.2608
     48  OE1      -27.3690   -3.4480   53.1130 O.2   364  GLN364     -0.2717
     49  NE2      -25.8590   -3.3900   54.8130 N.am  364  GLN364     -0.0878
     50  N        -30.2510   -4.0820   53.0970 N.3   367  ASP367     -0.1239
     51  CA       -31.0930   -4.2460   54.3300 C.3   367  ASP367      0.1674
     52  C        -32.1290   -3.1140   54.3850 C.2   367  ASP367      0.2266
     53  O        -31.7810   -1.9330   54.2020 O.2   367  ASP367     -0.2867
     54  CB       -30.2690   -4.2820   55.6080 C.3   367  ASP367      0.1410
     55  CG       -29.1970   -5.4320   55.6070 C.2   367  ASP367      0.3668
     56  OD1      -29.4230   -6.5310   55.0600 O.co2 367  ASP367     -0.2456
     57  OD2      -28.0740   -5.2320   56.1620 O.co2 367  ASP367     -0.2456
     58  N        -29.8150   -7.8480   62.7200 N.3   394  TRP394     -0.1241
     59  CA       -28.8580   -6.7370   62.9680 C.3   394  TRP394      0.1605
     60  C        -29.3060   -5.6860   63.9560 C.2   394  TRP394      0.2264
     61  O        -30.3990   -5.7780   64.5260 O.2   394  TRP394     -0.2867
     62  CB       -28.4290   -6.0760   61.6480 C.3   394  TRP394      0.0550
     63  CG       -27.9710   -7.0940   60.6790 C.ar  394  TRP394      0.0003
     64  CD1      -28.5800   -7.4200   59.4950 C.ar  394  TRP394      0.0946
     65  CD2      -26.8340   -7.9710   60.8060 C.ar  394  TRP394      0.0152
     66  NE1      -27.8980   -8.4310   58.8710 N.ar  394  TRP394     -0.2442
     67  CE2      -26.8170   -8.7920   59.6400 C.ar  394  TRP394      0.0810
     68  CE3      -25.8040   -8.1050   61.7560 C.ar  394  TRP394      0.0012
     69  CZ2      -25.7690   -9.7570   59.3740 C.ar  394  TRP394      0.0191
     70  CZ3      -24.7910   -9.0820   61.5440 C.ar  394  TRP394      0.0001
     71  CH2      -24.7710   -9.8860   60.3300 C.ar  394  TRP394      0.0015
     72  N        -18.6710    3.2470   50.7350 N.3   429  TYR429     -0.1241
     73  CA       -18.8130    1.8070   50.9460 C.3   429  TYR429      0.1605
     74  C        -20.3120    1.4720   50.9210 C.2   429  TYR429      0.2264
     75  O        -21.0500    1.9970   51.7710 O.2   429  TYR429     -0.2867
     76  CB       -18.3030    1.4990   52.3530 C.3   429  TYR429      0.0534
     77  CG       -18.2910    0.0390   52.7450 C.ar  429  TYR429     -0.0201
     78  CD1      -17.2960   -0.8030   52.2750 C.ar  429  TYR429     -0.0009
     79  CD2      -19.2720   -0.4840   53.6560 C.ar  429  TYR429     -0.0009
     80  CE1      -17.2450   -2.1720   52.6740 C.ar  429  TYR429      0.0417
     81  CE2      -19.2620   -1.8340   54.0310 C.ar  429  TYR429      0.0417
     82  CZ       -18.2410   -2.6730   53.5560 C.ar  429  TYR429      0.1957
     83  OH       -18.1980   -3.9700   53.9730 O.3   429  TYR429     -0.2866
     84  N        -22.2980   -1.5120   51.6530 N.3   431  ASP431     -0.1225
     85  CA       -22.1780   -2.8090   52.3290 C.3   431  ASP431      0.1805
     86  C        -22.8960   -3.9540   51.6090 C.2   431  ASP431      0.2597
     87  O        -23.8130   -3.7010   50.7990 O.2   431  ASP431     -0.2718
     88  CB       -22.6690   -2.6820   53.7610 C.3   431  ASP431      0.1424
     89  CG       -21.9860   -3.6800   54.6880 C.2   431  ASP431      0.3668
     90  OD1      -21.1280   -4.4570   54.1950 O.co2 431  ASP431     -0.2456
     91  OD2      -22.3080   -3.6610   55.9120 O.co2 431  ASP431     -0.2456
     92  N        -22.4250   -5.1880   51.8830 N.am  432  VAL432     -0.1980
     93  CA       -22.9910   -6.4820   51.4330 C.3   432  VAL432      0.1595
     94  C        -23.0990   -6.7980   49.9410 C.2   432  VAL432      0.2287
     95  O        -23.0740   -7.9490   49.5900 O.2   432  VAL432     -0.2864
     96  CB       -24.3290   -6.8290   52.1410 C.3   432  VAL432      0.0276
     97  CG1      -24.3530   -6.3450   53.5920 C.3   432  VAL432      0.0022
     98  CG2      -25.5130   -6.2690   51.3740 C.3   432  VAL432      0.0022
     99  N        -22.7530  -10.9340   49.5180 N.3   436  ASN436     -0.1240
    100  CA       -23.9880  -11.7700   49.4280 C.3   436  ASN436      0.1653
    101  C        -24.5260  -11.9300   48.0310 C.2   436  ASN436      0.2266
    102  O        -24.2720  -11.0970   47.1400 O.2   436  ASN436     -0.2867
    103  CB       -25.1160  -11.1620   50.3120 C.3   436  ASN436      0.1155
    104  CG       -24.7610  -11.1500   51.7560 C.2   436  ASN436      0.2627
    105  OD1      -23.7150  -10.6140   52.1660 O.2   436  ASN436     -0.2716
    106  ND2      -25.5930  -11.7980   52.5510 N.am  436  ASN436     -0.0877
    107  N        -18.2310   -4.9440   50.6270 N.3   474  GLU474     -0.1245
    108  CA       -17.7440   -5.9060   51.6000 C.3   474  GLU474      0.1567
    109  C        -16.5950   -6.7710   51.1190 C.2   474  GLU474      0.2260
    110  O        -15.5460   -6.7980   51.7590 O.2   474  GLU474     -0.2867
    111  CB       -18.9130   -6.7960   52.0850 C.3   474  GLU474      0.0388
    112  CG       -18.6050   -7.5250   53.3900 C.3   474  GLU474      0.1160
    113  CD       -19.8670   -8.1710   54.0140 C.2   474  GLU474      0.3649
    114  OE1      -21.0220   -8.0420   53.4870 O.co2 474  GLU474     -0.2457
    115  OE2      -19.7000   -8.7780   55.0540 O.co2 474  GLU474     -0.2457
    116  N        -13.6530   -4.0650   51.7130 N.3   488  HIS488     -0.1226
    117  CA       -13.3950   -4.0550   53.1470 C.3   488  HIS488      0.1752
    118  C        -12.2590   -5.0730   53.3710 C.2   488  HIS488      0.2596
    119  O        -11.4000   -4.8380   54.2240 O.2   488  HIS488     -0.2718
    120  CB       -14.6700   -4.3810   53.9450 C.3   488  HIS488      0.0759
    121  CG       -14.4380   -4.5030   55.4370 C.ar  488  HIS488      0.0818
    122  ND1      -14.6700   -3.4510   56.2970 N.ar  488  HIS488     -0.2268
    123  CD2      -13.9980   -5.5400   56.2030 C.ar  488  HIS488      0.1154
    124  CE1      -14.3840   -3.8430   57.5330 C.ar  488  HIS488      0.1986
    125  NE2      -13.9600   -5.1000   57.4950 N.ar  488  HIS488     -0.2212
    126  N        -12.2460   -6.1640   52.5890 N.am  489  TYR489     -0.1976
    127  CA       -11.1480   -7.1390   52.5480 C.3   489  TYR489      0.1639
    128  C        -11.4800   -8.1360   51.4940 C.2   489  TYR489      0.2290
    129  O        -12.6210   -8.1700   50.9250 O.2   489  TYR489     -0.2864
    130  CB       -10.8990   -7.8950   53.9050 C.3   489  TYR489      0.0560
    131  CG       -12.1380   -8.2740   54.7480 C.ar  489  TYR489     -0.0198
    132  CD1      -13.4060   -8.4880   54.1560 C.ar  489  TYR489     -0.0009
    133  CD2      -12.0130   -8.4730   56.1570 C.ar  489  TYR489     -0.0009
    134  CE1      -14.5050   -8.8630   54.9280 C.ar  489  TYR489      0.0417
    135  CE2      -13.1000   -8.8430   56.9420 C.ar  489  TYR489      0.0417
    136  CZ       -14.3450   -9.0190   56.3310 C.ar  489  TYR489      0.1957
    137  OH       -15.4400   -9.3310   57.0730 O.3   489  TYR489     -0.2866
    138  N        -17.7680   -4.0820   64.1420 N.3   552  ALA552     -0.1231
    139  CA       -19.1040   -3.5300   64.3010 C.3   552  ALA552      0.1694
    140  C        -19.8650   -4.2640   65.4150 C.2   552  ALA552      0.2592
    141  O        -20.5400   -3.6340   66.2200 O.2   552  ALA552     -0.2718
    142  CB       -19.8580   -3.6700   62.9850 C.3   552  ALA552      0.0304
    143  N        -19.7680   -5.5900   65.4120 N.am  553  TYR553     -0.1976
    144  CA       -20.4380   -6.4830   66.3750 C.3   553  TYR553      0.1639
    145  C        -19.3140   -7.3870   66.8480 C.2   553  TYR553      0.2290
    146  O        -18.5640   -7.9010   66.0120 O.2   553  TYR553     -0.2864
    147  CB       -21.4710   -7.3700   65.6560 C.3   553  TYR553      0.0560
    148  CG       -22.5780   -6.6120   64.9650 C.ar  553  TYR553     -0.0198
    149  CD1      -23.6730   -6.1640   65.6880 C.ar  553  TYR553     -0.0009
    150  CD2      -22.5230   -6.3370   63.5510 C.ar  553  TYR553     -0.0009
    151  CE1      -24.7130   -5.4850   65.0710 C.ar  553  TYR553      0.0417
    152  CE2      -23.5410   -5.6120   62.9250 C.ar  553  TYR553      0.0417
    153  CZ       -24.6350   -5.2080   63.6860 C.ar  553  TYR553      0.1957
    154  OH       -25.6490   -4.5000   63.1320 O.3   553  TYR553     -0.2866
    155  N        -17.9650  -10.8580   64.9040 N.3   556  MET556     -0.1230
    156  CA       -18.3060  -10.8120   63.4580 C.3   556  MET556      0.1702
    157  C        -17.1530  -10.2210   62.6300 C.2   556  MET556      0.2592
    158  O        -16.3420   -9.4480   63.1680 O.2   556  MET556     -0.2718
    159  CB       -19.5330   -9.9040   63.2430 C.3   556  MET556      0.0401
    160  CG       -20.7720  -10.2810   64.0250 C.3   556  MET556      0.0596
    161  SD       -21.1640  -12.0400   63.8130 S.3   556  MET556     -0.1393
    162  CE       -21.9600  -12.0700   62.1970 C.3   556  MET556      0.0692
    163  N        -17.1290  -10.5270   61.3260 N.am  557  ASP557     -0.1974
    164  CA       -16.3100   -9.7670   60.3370 C.3   557  ASP557      0.1709
    165  C        -14.7950  -10.0250   60.5100 C.2   557  ASP557      0.2293
    166  O        -14.0000   -9.0750   60.4760 O.2   557  ASP557     -0.2864
    167  CB       -16.6520   -8.2390   60.3320 C.3   557  ASP557      0.1436
    168  CG       -18.1440   -7.9630   60.0190 C.2   557  ASP557      0.3671
    169  OD1      -18.7110   -8.6970   59.1380 O.co2 557  ASP557     -0.2456
    170  OD2      -18.7690   -7.0110   60.6410 O.co2 557  ASP557     -0.2456
@<TRIPOS>BOND
     1   102   101    2
     2   101   100    1
     3   100    99    1
     4   100   103    1
     5    95    94    2
     6    94    93    1
     7   103   104    1
     8   107   108    1
     9    72    73    1
    10    87    86    2
    11    74    73    1
    12    74    75    2
    13   129   128    2
    14    73    76    1
    15   109   108    1
    16   109   110    2
    17    98    96    1
    18    93    92    1
    19    93    96    1
    20   128   127    1
    21   108   111    1
    22    86    92   am
    23    86    85    1
    24    84    85    1
    25   116   117    1
    26   104   105    2
    27   104   106   am
    28   111   112    1
    29    96    97    1
    30    78    80   ar
    31    78    77   ar
    32    85    88    1
    33    76    77    1
    34    43    44    2
    35    43    42    1
    36   127   126    1
    37   127   130    1
    38   126   118   am
    39    80    82   ar
    40    77    79   ar
    41    50    51    1
    42    48    47    2
    43   117   118    1
    44   117   120    1
    45    42    41    1
    46    42    45    1
    47   118   119    2
    48   112   113    1
    49   114   113   ar
    50    82    83    1
    51    82    81   ar
    52    79    81   ar
    53    88    89    1
    54   130   131    1
    55   120   121    1
    56   113   115   ar
    57    47    46    1
    58    47    49   am
    59   132   131   ar
    60   132   134   ar
    61    90    89   ar
    62    53    52    2
    63    51    52    1
    64    51    54    1
    65    45    46    1
    66    89    91   ar
    67   131   133   ar
    68   134   136   ar
    69    56    55   ar
    70    33    32    1
    71    33    34    2
    72   121   123   ar
    73   121   122   ar
    74    32    31    1
    75    32    35    1
    76    55    54    1
    77    55    57   ar
    78   133   135   ar
    79   123   125   ar
    80   122   124   ar
    81   136   135   ar
    82   136   137    1
    83    38    40   ar
    84    38    36   ar
    85    35    36    1
    86    40    39   ar
    87    36    37   ar
    88    37    39   ar
    89   125   124   ar
    90     8    10   ar
    91     8     6   ar
    92    66    64   ar
    93    66    67   ar
    94    10     9   ar
    95   169   168   ar
    96    29    28   ar
    97    69    67   ar
    98    69    71   ar
    99    64    63   ar
   100    67    65   ar
   101     6     5    1
   102     6     7   ar
   103     5     2    1
   104    22    21    1
   105   168   167    1
   106   168   170   ar
   107     1     2    1
   108     2     3    1
   109    71    70   ar
   110   167   164    1
   111   164   165    1
   112   164   163    1
   113    28    30   ar
   114    28    27    1
   115    19    21   ar
   116    19    17   ar
   117     9     7   ar
   118   166   165    2
   119    21    20   ar
   120    63    65   ar
   121    63    62    1
   122    65    68   ar
   123    24    23    1
   124    24    25    1
   125    24    27    1
   126    17    16   ar
   127    23    13   am
   128    25    26    2
   129   163   157   am
   130    70    68   ar
   131    62    59    1
   132    20    18   ar
   133     3     4    2
   134   162   161    1
   135    16    18   ar
   136    16    15    1
   137    13    12    1
   138    13    14    2
   139    12    15    1
   140    12    11    1
   141   157   158    2
   142   157   156    1
   143    58    59    1
   144   152   150   ar
   145   152   153   ar
   146    59    60    1
   147   142   139    1
   148   154   153    1
   149   159   156    1
   150   159   160    1
   151   156   155    1
   152   150   148   ar
   153   153   151   ar
   154   161   160    1
   155    60    61    2
   156   138   139    1
   157   139   140    1
   158   148   147    1
   159   148   149   ar
   160   151   149   ar
   161   143   140   am
   162   143   144    1
   163   140   141    2
   164   147   144    1
   165   146   145    2
   166   144   145    1
