@<TRIPOS>MOLECULE
tmp/5wzrB00.pdb
 170 166 0 0 0
SMALL
GASTEIGER

@<TRIPOS>ATOM
      1  N         10.1540   -3.0320    1.8650 N.3   271  HIS271     -0.1241
      2  CA        11.1610   -1.9500    1.7850 C.3   271  HIS271      0.1621
      3  C         11.3120   -1.4240    0.3480 C.2   271  HIS271      0.2264
      4  O         11.9180   -2.0950   -0.4970 O.2   271  HIS271     -0.2867
      5  CB        12.5080   -2.4740    2.2750 C.3   271  HIS271      0.0745
      6  CG        13.5960   -1.4450    2.3080 C.ar  271  HIS271      0.0817
      7  ND1       14.2620   -1.0200    1.1790 N.ar  271  HIS271     -0.2268
      8  CD2       14.1650   -0.7870    3.3460 C.ar  271  HIS271      0.1154
      9  CE1       15.1820   -0.1340    1.5160 C.ar  271  HIS271      0.1986
     10  NE2       15.1410    0.0280    2.8260 N.ar  271  HIS271     -0.2212
     11  N         16.4050   10.4270   -1.6380 N.3   329  TYR329     -0.1227
     12  CA        17.1000    9.4750   -0.7550 C.3   329  TYR329      0.1736
     13  C         18.5680    9.7940   -0.5570 C.2   329  TYR329      0.2595
     14  O         19.3070    9.9500   -1.5180 O.2   329  TYR329     -0.2718
     15  CB        17.0220    8.0560   -1.2920 C.3   329  TYR329      0.0548
     16  CG        17.6690    7.0300   -0.3820 C.ar  329  TYR329     -0.0200
     17  CD1       17.0130    6.5700    0.7610 C.ar  329  TYR329     -0.0009
     18  CD2       18.9260    6.5250   -0.6570 C.ar  329  TYR329     -0.0009
     19  CE1       17.5900    5.6320    1.6030 C.ar  329  TYR329      0.0417
     20  CE2       19.5090    5.5780    0.1720 C.ar  329  TYR329      0.0417
     21  CZ        18.8410    5.1370    1.3010 C.ar  329  TYR329      0.1957
     22  OH        19.4330    4.1970    2.1140 O.3   329  TYR329     -0.2866
     23  N         18.9800    9.8700    0.7030 N.am  330  ASP330     -0.1974
     24  CA        20.3590   10.1890    1.0460 C.3   330  ASP330      0.1709
     25  C         20.8260   11.5330    0.4580 C.2   330  ASP330      0.2293
     26  O         22.0200   11.7340    0.2120 O.2   330  ASP330     -0.2864
     27  CB        21.2970    9.0360    0.6370 C.3   330  ASP330      0.1436
     28  CG        21.5340    8.0370    1.7650 C.2   330  ASP330      0.3671
     29  OD1       20.9350    8.1670    2.8640 O.co2 330  ASP330     -0.2456
     30  OD2       22.3400    7.1120    1.5440 O.co2 330  ASP330     -0.2456
     31  N         12.1380    5.9950    6.4280 N.3   366  HIS366     -0.1241
     32  CA        13.5860    5.9040    6.4370 C.3   366  HIS366      0.1621
     33  C         14.1500    7.3140    6.5600 C.2   366  HIS366      0.2264
     34  O         14.0760    8.1180    5.6110 O.2   366  HIS366     -0.2867
     35  CB        14.1180    5.2720    5.1640 C.3   366  HIS366      0.0745
     36  CG        15.6070    5.2990    5.0750 C.ar  366  HIS366      0.0817
     37  ND1       16.3690    4.1570    5.1180 N.ar  366  HIS366     -0.2268
     38  CD2       16.4780    6.3310    4.9790 C.ar  366  HIS366      0.1154
     39  CE1       17.6470    4.4810    5.0380 C.ar  366  HIS366      0.1986
     40  NE2       17.7410    5.7940    4.9540 N.ar  366  HIS366     -0.2212
     41  N         17.4770    9.7270    8.7300 N.3   368  GLN368     -0.1245
     42  CA        18.9220    9.6820    8.8230 C.3   368  GLN368      0.1566
     43  C         19.4250   10.8860    9.5770 C.2   368  GLN368      0.2260
     44  O         19.0790   12.0200    9.2300 O.2   368  GLN368     -0.2867
     45  CB        19.4970    9.7030    7.4190 C.3   368  GLN368      0.0367
     46  CG        20.9580   10.0700    7.3270 C.3   368  GLN368      0.0905
     47  CD        21.8340    8.8530    7.3580 C.2   368  GLN368      0.2608
     48  OE1       21.6580    7.9200    6.5600 O.2   368  GLN368     -0.2717
     49  NE2       22.7900    8.8470    8.2720 N.am  368  GLN368     -0.0878
     50  N         24.7120   11.3290    8.6790 N.3   371  ASP371     -0.1239
     51  CA        25.1110   11.9590    7.4220 C.3   371  ASP371      0.1674
     52  C         24.6060   13.4020    7.3360 C.2   371  ASP371      0.2266
     53  O         23.4080   13.6800    7.4880 O.2   371  ASP371     -0.2867
     54  CB        24.5770   11.1820    6.2230 C.3   371  ASP371      0.1410
     55  CG        25.1780    9.7910    6.0860 C.2   371  ASP371      0.3668
     56  OD1       26.3420    9.5480    6.4730 O.co2 371  ASP371     -0.2456
     57  OD2       24.4630    8.9450    5.5350 O.co2 371  ASP371     -0.2456
     58  N         27.5100    8.7190   -1.0700 N.3   398  TRP398     -0.1241
     59  CA        26.1150    8.4200   -1.3130 C.3   398  TRP398      0.1605
     60  C         25.4850    9.4440   -2.2640 C.2   398  TRP398      0.2264
     61  O         26.1450   10.3780   -2.7090 O.2   398  TRP398     -0.2867
     62  CB        25.3780    8.3230    0.0290 C.3   398  TRP398      0.0550
     63  CG        26.1540    7.5170    1.0510 C.ar  398  TRP398      0.0003
     64  CD1       26.7980    8.0040    2.1440 C.ar  398  TRP398      0.0946
     65  CD2       26.3910    6.0980    1.0500 C.ar  398  TRP398      0.0152
     66  NE1       27.4090    6.9830    2.8370 N.ar  398  TRP398     -0.2442
     67  CE2       27.1770    5.8030    2.1870 C.ar  398  TRP398      0.0810
     68  CE3       26.0170    5.0520    0.2060 C.ar  398  TRP398      0.0012
     69  CZ2       27.6000    4.5000    2.4980 C.ar  398  TRP398      0.0191
     70  CZ3       26.4450    3.7470    0.5170 C.ar  398  TRP398      0.0001
     71  CH2       27.2260    3.4920    1.6490 C.ar  398  TRP398      0.0015
     72  N         12.8180    4.5520   11.1920 N.3   433  TYR433     -0.1241
     73  CA        14.1120    3.9630   10.9540 C.3   433  TYR433      0.1605
     74  C         15.0590    5.1480   10.9660 C.2   433  TYR433      0.2264
     75  O         14.8360    6.1350   10.2530 O.2   433  TYR433     -0.2867
     76  CB        14.1200    3.1980    9.6220 C.3   433  TYR433      0.0534
     77  CG        15.4660    2.6570    9.1680 C.ar  433  TYR433     -0.0201
     78  CD1       15.8820    1.3750    9.5150 C.ar  433  TYR433     -0.0009
     79  CD2       16.2940    3.4050    8.3520 C.ar  433  TYR433     -0.0009
     80  CE1       17.0990    0.8730    9.0920 C.ar  433  TYR433      0.0417
     81  CE2       17.5020    2.8990    7.9130 C.ar  433  TYR433      0.0417
     82  CZ        17.9060    1.6370    8.2900 C.ar  433  TYR433      0.1957
     83  OH        19.1240    1.1510    7.8580 O.3   433  TYR433     -0.2866
     84  N         18.6890    5.6100   10.2820 N.3   435  ASP435     -0.1225
     85  CA        19.7370    4.9080    9.6080 C.3   435  ASP435      0.1805
     86  C         21.0440    5.0310   10.3600 C.2   435  ASP435      0.2597
     87  O         21.2830    6.0290   11.0370 O.2   435  ASP435     -0.2718
     88  CB        19.8880    5.4840    8.1950 C.3   435  ASP435      0.1424
     89  CG        20.5570    4.5210    7.2350 C.2   435  ASP435      0.3668
     90  OD1       20.8470    3.3530    7.6090 O.co2 435  ASP435     -0.2456
     91  OD2       20.7810    4.9490    6.0830 O.co2 435  ASP435     -0.2456
     92  N         21.8630    3.9870   10.2540 N.am  436  VAL436     -0.1980
     93  CA        23.3210    4.0820   10.4490 C.3   436  VAL436      0.1595
     94  C         23.8230    3.7920   11.8730 C.2   436  VAL436      0.2287
     95  O         24.8720    3.1380   12.0570 O.2   436  VAL436     -0.2864
     96  CB        23.8350    5.4520    9.9130 C.3   436  VAL436      0.0276
     97  CG1       25.2510    5.7580   10.3440 C.3   436  VAL436      0.0022
     98  CG2       23.7550    5.4690    8.3950 C.3   436  VAL436      0.0022
     99  N         27.2110    1.5620   12.2270 N.3   440  ASN440     -0.1240
    100  CA        28.4900    2.2790   12.2260 C.3   440  ASN440      0.1653
    101  C         28.9900    2.6290   13.6130 C.2   440  ASN440      0.2266
    102  O         28.1900    2.7650   14.5570 O.2   440  ASN440     -0.2867
    103  CB        28.3800    3.5690   11.4230 C.3   440  ASN440      0.1155
    104  CG        28.4640    3.3220    9.9450 C.2   440  ASN440      0.2627
    105  OD1       29.5620    3.3370    9.3700 O.2   440  ASN440     -0.2716
    106  ND2       27.3150    3.0350    9.3220 N.am  440  ASN440     -0.0877
    107  N         19.9230    0.5490   10.9530 N.3   478  GLU478     -0.1245
    108  CA        20.6180   -0.2830    9.9620 C.3   478  GLU478      0.1567
    109  C         20.7770   -1.7250   10.4430 C.2   478  GLU478      0.2260
    110  O         20.2220   -2.6420    9.8380 O.2   478  GLU478     -0.2867
    111  CB        21.9860    0.3250    9.5970 C.3   478  GLU478      0.0388
    112  CG        22.4240    0.1580    8.1430 C.3   478  GLU478      0.1160
    113  CD        23.8540    0.6550    7.8770 C.2   478  GLU478      0.3649
    114  OE1       24.2110    1.7920    8.2720 O.co2 478  GLU478     -0.2457
    115  OE2       24.6330   -0.0940    7.2470 O.co2 478  GLU478     -0.2457
    116  N         16.3730   -3.1730   10.2400 N.3   492  HIS492     -0.1226
    117  CA        16.2830   -3.4820    8.8280 C.3   492  HIS492      0.1752
    118  C         16.7470   -4.9230    8.6410 C.2   492  HIS492      0.2596
    119  O         16.1330   -5.6640    7.8980 O.2   492  HIS492     -0.2718
    120  CB        17.1620   -2.5090    8.0410 C.3   492  HIS492      0.0759
    121  CG        17.0480   -2.6300    6.5530 C.ar  492  HIS492      0.0818
    122  ND1       17.8750   -3.4440    5.8050 N.ar  492  HIS492     -0.2268
    123  CD2       16.2340   -2.0060    5.6680 C.ar  492  HIS492      0.1154
    124  CE1       17.5630   -3.3290    4.5270 C.ar  492  HIS492      0.1986
    125  NE2       16.5740   -2.4590    4.4150 N.ar  492  HIS492     -0.2212
    126  N         17.8280   -5.3110    9.3150 N.am  493  TYR493     -0.1976
    127  CA        18.2220   -6.7170    9.3860 C.3   493  TYR493      0.1639
    128  C         19.3180   -7.0320   10.4120 C.2   493  TYR493      0.2290
    129  O         20.0230   -6.1540   10.9020 O.2   493  TYR493     -0.2864
    130  CB        18.6350   -7.2760    8.0140 C.3   493  TYR493      0.0560
    131  CG        19.5940   -6.4440    7.1850 C.ar  493  TYR493     -0.0198
    132  CD1       20.4280   -5.4880    7.7520 C.ar  493  TYR493     -0.0009
    133  CD2       19.6860   -6.6460    5.8110 C.ar  493  TYR493     -0.0009
    134  CE1       21.3020   -4.7440    6.9700 C.ar  493  TYR493      0.0417
    135  CE2       20.5600   -5.9120    5.0260 C.ar  493  TYR493      0.0417
    136  CZ        21.3680   -4.9640    5.6100 C.ar  493  TYR493      0.1957
    137  OH        22.2350   -4.2310    4.8370 O.3   493  TYR493     -0.2866
    138  N         18.5200    0.5350   -2.5160 N.3   556  ALA556     -0.1231
    139  CA        18.6040    1.9550   -2.8330 C.3   556  ALA556      0.1694
    140  C         19.8270    2.2290   -3.7030 C.2   556  ALA556      0.2592
    141  O         19.8610    3.2220   -4.4250 O.2   556  ALA556     -0.2718
    142  CB        18.6450    2.7910   -1.5660 C.3   556  ALA556      0.0304
    143  N         20.8330    1.3630   -3.5990 N.am  557  TYR557     -0.1976
    144  CA        21.9680    1.3220   -4.5210 C.3   557  TYR557      0.1639
    145  C         22.2700   -0.1400   -4.7930 C.2   557  TYR557      0.2290
    146  O         22.6120   -0.8830   -3.8640 O.2   557  TYR557     -0.2864
    147  CB        23.2240    1.9530   -3.9160 C.3   557  TYR557      0.0560
    148  CG        23.0320    3.3210   -3.3040 C.ar  557  TYR557     -0.0198
    149  CD1       23.0270    4.4690   -4.0920 C.ar  557  TYR557     -0.0009
    150  CD2       22.8780    3.4690   -1.9260 C.ar  557  TYR557     -0.0009
    151  CE1       22.8520    5.7170   -3.5250 C.ar  557  TYR557      0.0417
    152  CE2       22.7100    4.7150   -1.3540 C.ar  557  TYR557      0.0417
    153  CZ        22.6960    5.8320   -2.1570 C.ar  557  TYR557      0.1957
    154  OH        22.5200    7.0600   -1.5760 O.3   557  TYR557     -0.2866
    155  N         24.4940   -3.0410   -2.9680 N.3   560  MET560     -0.1230
    156  CA        24.5920   -2.6180   -1.5630 C.3   560  MET560      0.1702
    157  C         23.3820   -3.0780   -0.7360 C.2   560  MET560      0.2592
    158  O         22.2540   -3.1990   -1.2540 O.2   560  MET560     -0.2718
    159  CB        24.7560   -1.0880   -1.4460 C.3   560  MET560      0.0401
    160  CG        25.9630   -0.4800   -2.1650 C.3   560  MET560      0.0596
    161  SD        27.6180   -0.9710   -1.5990 S.3   560  MET560     -0.1393
    162  CE        27.6530   -0.3800    0.0980 C.3   560  MET560      0.0692
    163  N         23.6490   -3.3180    0.5530 N.am  561  ASP561     -0.1974
    164  CA        22.6610   -3.8340    1.5160 C.3   561  ASP561      0.1709
    165  C         22.1810   -5.2460    1.1470 C.2   561  ASP561      0.2293
    166  O         20.9690   -5.5370    1.1200 O.2   561  ASP561     -0.2864
    167  CB        21.4740   -2.8790    1.6630 C.3   561  ASP561      0.1436
    168  CG        21.9020   -1.4230    1.7650 C.2   561  ASP561      0.3671
    169  OD1       23.1090   -1.1630    2.0460 O.co2 561  ASP561     -0.2456
    170  OD2       21.0120   -0.5540    1.5570 O.co2 561  ASP561     -0.2456
@<TRIPOS>BOND
     1   145   144    1
     2   145   146    2
     3   144   147    1
     4   144   143    1
     5   141   140    2
     6   149   151   ar
     7   149   148   ar
     8   147   148    1
     9   140   143   am
    10   140   139    1
    11   151   153   ar
    12   148   150   ar
    13   155   156    1
    14   139   138    1
    15   139   142    1
    16    61    60    2
    17    60    59    1
    18   160   161    1
    19   160   159    1
    20   153   154    1
    21   153   152   ar
    22   150   152   ar
    23    11    12    1
    24   161   162    1
    25   156   159    1
    26   156   157    1
    27    14    13    2
    28    59    58    1
    29    59    62    1
    30    15    12    1
    31    15    16    1
    32   158   157    2
    33    12    13    1
    34   157   163   am
    35    18    16   ar
    36    18    20   ar
    37    13    23   am
    38     4     3    2
    39    16    17   ar
    40    62    63    1
    41    20    21   ar
    42    68    70   ar
    43    68    65   ar
    44    26    25    2
    45     3     2    1
    46    25    24    1
    47    70    71   ar
    48   163   164    1
    49    27    24    1
    50    27    28    1
    51    23    24    1
    52    17    19   ar
    53    65    63   ar
    54    65    67   ar
    55    63    64   ar
    56   166   165    2
    57   165   164    1
    58     7     9   ar
    59     7     6   ar
    60    21    19   ar
    61    21    22    1
    62   164   167    1
    63     9    10   ar
    64    30    28   ar
    65   170   168   ar
    66    71    69   ar
    67   167   168    1
    68    28    29   ar
    69   168   169   ar
    70     2     1    1
    71     2     5    1
    72    64    66   ar
    73    67    69   ar
    74    67    66   ar
    75     5     6    1
    76     6     8   ar
    77    10     8   ar
    78   125   124   ar
    79   125   123   ar
    80   124   122   ar
    81   137   136    1
    82    40    38   ar
    83    40    39   ar
    84    38    36   ar
    85   135   136   ar
    86   135   133   ar
    87    39    37   ar
    88    36    37   ar
    89    36    35    1
    90    35    32    1
    91    57    55   ar
    92   136   134   ar
    93    34    33    2
    94   123   121   ar
    95   122   121   ar
    96   133   131   ar
    97    91    89   ar
    98    55    54    1
    99    55    56   ar
   100    54    51    1
   101    31    32    1
   102    32    33    1
   103   121   120    1
   104    48    47    2
   105   134   132   ar
   106   131   132   ar
   107   131   130    1
   108    89    90   ar
   109    89    88    1
   110   115   113   ar
   111    46    47    1
   112    46    45    1
   113    52    51    1
   114    52    53    2
   115    47    49   am
   116    45    42    1
   117    51    50    1
   118    83    82    1
   119   113   112    1
   120   113   114   ar
   121   119   118    2
   122    81    82   ar
   123    81    79   ar
   124   130   127    1
   125   120   117    1
   126   112   111    1
   127    88    85    1
   128    82    80   ar
   129    79    77   ar
   130    98    96    1
   131   118   117    1
   132   118   126   am
   133    41    42    1
   134    42    43    1
   135   117   116    1
   136    80    78   ar
   137    77    78   ar
   138    77    76    1
   139    44    43    2
   140   126   127    1
   141   106   104   am
   142   105   104    2
   143   127   128    1
   144   111   108    1
   145    85    84    1
   146    85    86    1
   147    76    73    1
   148   110   109    2
   149    96    97    1
   150    96    93    1
   151   104   103    1
   152   108   109    1
   153   108   107    1
   154    75    74    2
   155    92    86   am
   156    92    93    1
   157    86    87    2
   158   128   129    2
   159    93    94    1
   160    73    74    1
   161    73    72    1
   162   103   100    1
   163    94    95    2
   164   100    99    1
   165   100   101    1
   166   101   102    2
