@<TRIPOS>MOLECULE
tmp/5wzsA00.pdb
 155 149 0 0 0
SMALL
GASTEIGER

@<TRIPOS>ATOM
      1  N        -12.5810  -19.3540    4.4530 N.3     2  LEU2       -0.1231
      2  CA       -11.8860  -19.5260    5.7520 C.3     2  LEU2        0.1693
      3  C        -10.3930  -19.9110    5.7040 C.2     2  LEU2        0.2591
      4  O         -9.7590  -20.0240    6.7610 O.2     2  LEU2       -0.2718
      5  CB       -12.6330  -20.5710    6.6080 C.3     2  LEU2        0.0284
      6  CG       -13.9440  -20.1470    7.2780 C.3     2  LEU2        0.0019
      7  CD1      -14.5960  -21.3540    7.9440 C.3     2  LEU2        0.0001
      8  CD2      -13.7100  -19.0280    8.2880 C.3     2  LEU2        0.0001
      9  N         -9.8260  -20.0750    4.5070 N.am    3  VAL3       -0.1980
     10  CA        -8.5020  -20.7160    4.3580 C.3     3  VAL3        0.1595
     11  C         -7.3800  -19.8730    4.9830 C.2     3  VAL3        0.2287
     12  O         -6.5770  -20.3820    5.7730 O.2     3  VAL3       -0.2864
     13  CB        -8.1800  -21.0380    2.8730 C.3     3  VAL3        0.0276
     14  CG1       -6.8130  -21.7190    2.7410 C.3     3  VAL3        0.0022
     15  CG2       -9.2780  -21.9150    2.2640 C.3     3  VAL3        0.0022
     16  N         -7.5890  -17.3220    7.1850 N.3     5  PHE5       -0.1227
     17  CA        -7.7710  -17.1460    8.6400 C.3     5  PHE5        0.1736
     18  C         -7.2760  -18.3660    9.4250 C.2     5  PHE5        0.2596
     19  O         -6.5470  -18.2270   10.3990 O.2     5  PHE5       -0.2718
     20  CB        -9.2420  -16.8360    8.9430 C.3     5  PHE5        0.0547
     21  CG        -9.5400  -16.5080   10.3900 C.ar    5  PHE5       -0.0202
     22  CD1       -8.6330  -15.8240   11.2070 C.ar    5  PHE5       -0.0042
     23  CD2      -10.7620  -16.8740   10.9330 C.ar    5  PHE5       -0.0042
     24  CE1       -8.9460  -15.5380   12.5280 C.ar    5  PHE5       -0.0003
     25  CE2      -11.0770  -16.5850   12.2540 C.ar    5  PHE5       -0.0003
     26  CZ       -10.1730  -15.9150   13.0520 C.ar    5  PHE5       -0.0000
     27  N         -7.6450  -19.5570    8.9520 N.am    6  GLY6       -0.1957
     28  CA        -7.1410  -20.8240    9.4820 C.3     6  GLY6        0.1869
     29  C         -5.6370  -20.9090    9.4700 C.2     6  GLY6        0.2309
     30  O         -5.0290  -21.3560   10.4510 O.2     6  GLY6       -0.2863
     31  N         -4.4070  -18.4450   12.1500 N.3     9  ILE9       -0.1245
     32  CA        -4.6010  -18.9990   13.5010 C.3     9  ILE9        0.1561
     33  C         -3.4950  -19.9950   13.8440 C.2     9  ILE9        0.2260
     34  O         -2.8460  -19.8780   14.8950 O.2     9  ILE9       -0.2867
     35  CB        -5.9930  -19.6460   13.6640 C.3     9  ILE9        0.0252
     36  CG1       -7.0750  -18.5560   13.6560 C.3     9  ILE9        0.0019
     37  CG2       -6.0790  -20.4450   14.9660 C.3     9  ILE9        0.0019
     38  CD1       -8.4340  -19.0650   13.2600 C.3     9  ILE9        0.0001
     39  N         -6.7310  -24.7600   13.3520 N.3    17  ALA17      -0.1231
     40  CA        -7.9290  -23.9060   13.3580 C.3    17  ALA17       0.1694
     41  C         -9.2100  -24.6500   13.7700 C.2    17  ALA17       0.2591
     42  O        -10.1920  -24.0170   14.1850 O.2    17  ALA17      -0.2718
     43  CB        -8.1230  -23.2740   11.9940 C.3    17  ALA17       0.0304
     44  N         -9.1950  -25.9800   13.6300 N.am   18  LEU18      -0.1980
     45  CA       -10.2510  -26.8590   14.1410 C.3    18  LEU18       0.1596
     46  C        -10.4430  -26.7470   15.6500 C.2    18  LEU18       0.2287
     47  O        -11.5560  -26.9240   16.1300 O.2    18  LEU18      -0.2864
     48  CB        -9.9550  -28.3340   13.7980 C.3    18  LEU18       0.0297
     49  CG        -9.8200  -28.7570   12.3280 C.3    18  LEU18       0.0022
     50  CD1       -9.7850  -30.2750   12.2430 C.3    18  LEU18       0.0001
     51  CD2      -10.9340  -28.1920   11.4560 C.3    18  LEU18       0.0001
     52  N        -10.3460  -24.0550   17.3650 N.3    20  TYR20      -0.1227
     53  CA       -11.1460  -22.8620   17.6110 C.3    20  TYR20       0.1736
     54  C        -12.5070  -22.9110   16.9220 C.2    20  TYR20       0.2595
     55  O        -13.2430  -21.9400   16.9610 O.2    20  TYR20      -0.2718
     56  CB       -10.3760  -21.6160   17.1720 C.3    20  TYR20       0.0548
     57  CG        -9.1610  -21.3640   18.0220 C.ar   20  TYR20      -0.0200
     58  CD1       -7.9340  -21.9670   17.7180 C.ar   20  TYR20      -0.0009
     59  CD2       -9.2330  -20.5390   19.1390 C.ar   20  TYR20      -0.0009
     60  CE1       -6.8160  -21.7420   18.5000 C.ar   20  TYR20       0.0417
     61  CE2       -8.1180  -20.3080   19.9320 C.ar   20  TYR20       0.0417
     62  CZ        -6.9140  -20.9130   19.6140 C.ar   20  TYR20       0.1957
     63  OH        -5.8130  -20.6830   20.3930 O.3    20  TYR20      -0.2866
     64  N        -12.8430  -24.0350   16.2990 N.am   21  ASN21      -0.1974
     65  CA       -14.1550  -24.2160   15.6850 C.3    21  ASN21       0.1688
     66  C        -15.0910  -24.7690   16.7510 C.2    21  ASN21       0.2292
     67  O        -14.7400  -25.7190   17.4640 O.2    21  ASN21      -0.2864
     68  CB       -14.0570  -25.1810   14.5020 C.3    21  ASN21       0.1181
     69  CG       -15.3770  -25.3450   13.7570 C.2    21  ASN21       0.2629
     70  OD1      -15.8890  -26.4610   13.6430 O.2    21  ASN21      -0.2716
     71  ND2      -15.9350  -24.2430   13.2460 N.am   21  ASN21      -0.0877
     72  N        -19.0570  -18.4450   20.9950 N.3    26  TYR26      -0.1241
     73  CA       -18.9060  -17.5340   19.8540 C.3    26  TYR26       0.1605
     74  C        -18.0190  -18.0030   18.7030 C.2    26  TYR26       0.2264
     75  O        -18.2210  -17.5460   17.5930 O.2    26  TYR26      -0.2867
     76  CB       -18.5010  -16.1320   20.3300 C.3    26  TYR26       0.0534
     77  CG       -19.6810  -15.4200   20.9110 C.ar   26  TYR26      -0.0201
     78  CD1      -20.5840  -14.7620   20.0880 C.ar   26  TYR26      -0.0009
     79  CD2      -19.9450  -15.4760   22.2730 C.ar   26  TYR26      -0.0009
     80  CE1      -21.7120  -14.1410   20.6100 C.ar   26  TYR26       0.0417
     81  CE2      -21.0640  -14.8640   22.8110 C.ar   26  TYR26       0.0417
     82  CZ       -21.9480  -14.1960   21.9740 C.ar   26  TYR26       0.1957
     83  OH       -23.0560  -13.5770   22.4850 O.3    26  TYR26      -0.2866
     84  N        -16.8990  -20.0740   15.6750 N.3    28  GLY28      -0.1210
     85  CA       -17.6890  -20.8560   14.7160 C.3    28  GLY28       0.1956
     86  C        -18.8000  -19.9620   14.2230 C.2    28  GLY28       0.2612
     87  O        -18.8640  -18.7970   14.6160 O.2    28  GLY28      -0.2717
     88  N        -19.6750  -20.4800   13.3690 N.am   29  ILE29      -0.1965
     89  CA       -20.7090  -19.6300   12.7620 C.3    29  ILE29       0.1727
     90  C        -21.6890  -19.0880   13.8170 C.2    29  ILE29       0.2616
     91  O        -22.1030  -19.8180   14.7220 O.2    29  ILE29      -0.2715
     92  CB       -21.4790  -20.3240   11.6030 C.3    29  ILE29       0.0290
     93  CG1      -22.2050  -21.6090   12.0580 C.3    29  ILE29       0.0022
     94  CG2      -20.5290  -20.6160   10.4430 C.3    29  ILE29       0.0023
     95  CD1      -23.5630  -21.8030   11.3970 C.3    29  ILE29       0.0001
     96  N        -22.0250  -17.8040   13.7070 N.am   30  GLY30      -0.1955
     97  CA       -22.9320  -17.1550   14.6490 C.3    30  GLY30       0.1869
     98  C        -22.3630  -17.0940   16.0610 C.2    30  GLY30       0.2309
     99  O        -21.1670  -16.8580   16.2490 O.2    30  GLY30      -0.2863
    100  N        -13.6020  -14.1960   19.8220 N.3    43  CYS43      -0.1235
    101  CA       -14.5700  -14.5430   18.7830 C.3    43  CYS43       0.1677
    102  C        -15.7940  -13.6270   18.7610 C.2    43  CYS43       0.2270
    103  O        -16.2980  -13.2960   17.6810 O.2    43  CYS43      -0.2867
    104  CB       -14.9980  -16.0050   18.9100 C.3    43  CYS43       0.0956
    105  SG       -13.6510  -17.1360   18.5260 S.3    43  CYS43      -0.0801
    106  N        -14.5100  -10.5690   17.1800 N.3    46  HIS46      -0.1226
    107  CA       -14.3200  -10.8710   15.7560 C.3    46  HIS46       0.1752
    108  C        -15.6420  -10.8150   14.9890 C.2    46  HIS46       0.2596
    109  O        -15.7000  -10.2420   13.9000 O.2    46  HIS46      -0.2718
    110  CB       -13.6580  -12.2410   15.5750 C.3    46  HIS46       0.0759
    111  CG       -13.2100  -12.5090   14.1720 C.ar   46  HIS46       0.0818
    112  ND1      -13.8900  -13.3510   13.3200 N.ar   46  HIS46      -0.2268
    113  CD2      -12.1730  -12.0110   13.4580 C.ar   46  HIS46       0.1154
    114  CE1      -13.2860  -13.3660   12.1450 C.ar   46  HIS46       0.1986
    115  NE2      -12.2460  -12.5550   12.2010 N.ar   46  HIS46      -0.2212
    116  N        -16.6910  -11.4080   15.5600 N.am   47  ASP47      -0.1974
    117  CA       -18.0550  -11.2840   15.0250 C.3    47  ASP47       0.1709
    118  C        -18.4880   -9.8190   14.8750 C.2    47  ASP47       0.2293
    119  O        -19.0630   -9.4290   13.8460 O.2    47  ASP47      -0.2864
    120  CB       -19.0700  -11.9850   15.9400 C.3    47  ASP47       0.1436
    121  CG       -19.0110  -13.5070   15.8610 C.2    47  ASP47       0.3671
    122  OD1      -18.1530  -14.0960   15.1570 O.co2  47  ASP47      -0.2456
    123  OD2      -19.8590  -14.1310   16.5300 O.co2  47  ASP47      -0.2456
    124  N        -16.5730   -8.2660   11.9310 N.3    50  TYR50      -0.1241
    125  CA       -17.1930   -8.6190   10.6510 C.3    50  TYR50       0.1605
    126  C        -18.5020   -7.8380   10.3930 C.2    50  TYR50       0.2264
    127  O        -18.7280   -7.3730    9.2710 O.2    50  TYR50      -0.2867
    128  CB       -17.3820  -10.1500   10.5240 C.3    50  TYR50       0.0534
    129  CG       -16.1730  -10.9330    9.9780 C.ar   50  TYR50      -0.0201
    130  CD1      -14.8620  -10.4700   10.1080 C.ar   50  TYR50      -0.0009
    131  CD2      -16.3590  -12.1640    9.3490 C.ar   50  TYR50      -0.0009
    132  CE1      -13.7860  -11.2010    9.6030 C.ar   50  TYR50       0.0417
    133  CE2      -15.2960  -12.9000    8.8480 C.ar   50  TYR50       0.0417
    134  CZ       -14.0110  -12.4250    8.9740 C.ar   50  TYR50       0.1957
    135  OH       -12.9710  -13.1730    8.4570 O.3    50  TYR50      -0.2866
    136  N        -16.8700  -12.5410    5.2400 N.3    61  LYS61      -0.1245
    137  CA       -16.9800  -14.0080    5.1500 C.3    61  LYS61       0.1561
    138  C        -16.3700  -14.5890    3.8910 C.2    61  LYS61       0.2260
    139  O        -15.9510  -15.7300    3.9110 O.2    61  LYS61      -0.2867
    140  CB       -18.4390  -14.4640    5.2320 C.3    61  LYS61       0.0271
    141  CG       -19.0230  -14.3830    6.6310 C.3    61  LYS61       0.0035
    142  CD       -20.5430  -14.2790    6.5930 C.3    61  LYS61       0.0206
    143  CE       -21.1450  -14.5910    7.9560 C.3    61  LYS61       0.1093
    144  NZ       -22.4330  -13.8740    8.1560 N.3    61  LYS61      -0.1314
    145  N         -6.2220  -14.7070   20.2740 N.3    97  PHE97      -0.1241
    146  CA        -6.0790  -16.1380   20.6030 C.3    97  PHE97       0.1605
    147  C         -4.7130  -16.4580   21.2210 C.2    97  PHE97       0.2264
    148  O         -4.6490  -17.1270   22.2670 O.2    97  PHE97      -0.2867
    149  CB        -6.2820  -17.0510   19.3830 C.3    97  PHE97       0.0534
    150  CG        -7.6660  -17.0160   18.7720 C.ar   97  PHE97      -0.0203
    151  CD1       -8.8230  -16.7790   19.5290 C.ar   97  PHE97      -0.0042
    152  CD2       -7.8160  -17.2930   17.4110 C.ar   97  PHE97      -0.0042
    153  CE1      -10.0830  -16.7890   18.9240 C.ar   97  PHE97      -0.0003
    154  CE2       -9.0670  -17.3050   16.8060 C.ar   97  PHE97      -0.0003
    155  CZ       -10.2020  -17.0570   17.5650 C.ar   97  PHE97      -0.0000
@<TRIPOS>BOND
     1    15    13    1
     2    14    13    1
     3    13    10    1
     4   138   139    2
     5   138   137    1
     6    10     9    1
     7    10    11    1
     8     1     2    1
     9     9     3   am
    10    11    12    2
    11   137   140    1
    12   137   136    1
    13   140   141    1
    14     3     2    1
    15     3     4    2
    16     2     5    1
    17   142   141    1
    18   142   143    1
    19     5     6    1
    20    16    17    1
    21     6     7    1
    22     6     8    1
    23   143   144    1
    24   135   134    1
    25    17    20    1
    26    17    18    1
    27   133   134   ar
    28   133   131   ar
    29    20    21    1
    30    27    18   am
    31    27    28    1
    32   134   132   ar
    33   127   126    2
    34   131   129   ar
    35    18    19    2
    36    29    28    1
    37    29    30    2
    38   132   130   ar
    39   129   130   ar
    40   129   128    1
    41    21    23   ar
    42    21    22   ar
    43   126   125    1
    44    94    92    1
    45   128   125    1
    46   125   124    1
    47    23    25   ar
    48    22    24   ar
    49    95    93    1
    50    51    49    1
    51    92    93    1
    52    92    89    1
    53    43    40    1
    54   114   115   ar
    55   114   112   ar
    56    31    32    1
    57   115   113   ar
    58    50    49    1
    59    25    26   ar
    60    49    48    1
    61    24    26   ar
    62    89    88    1
    63    89    90    1
    64    71    69   am
    65    38    36    1
    66   112   111   ar
    67    39    40    1
    68    40    41    1
    69    88    86   am
    70   113   111   ar
    71    32    35    1
    72    32    33    1
    73    44    41   am
    74    44    45    1
    75    70    69    2
    76    36    35    1
    77    35    37    1
    78    96    90   am
    79    96    97    1
    80    69    68    1
    81    41    42    2
    82    48    45    1
    83    90    91    2
    84    33    34    2
    85   119   118    2
    86   109   108    2
    87    45    46    1
    88   111   110    1
    89    86    87    2
    90    86    85    1
    91    68    65    1
    92    97    98    1
    93    85    84    1
    94   118   117    1
    95   108   116   am
    96   108   107    1
    97   117   116    1
    98   117   120    1
    99   122   121   ar
   100   110   107    1
   101    46    47    2
   102    65    64    1
   103    65    66    1
   104   107   106    1
   105   121   120    1
   106   121   123   ar
   107    98    99    2
   108    64    54   am
   109    66    67    2
   110   154   152   ar
   111   154   155   ar
   112    54    55    2
   113    54    53    1
   114    56    53    1
   115    56    57    1
   116    52    53    1
   117   152   150   ar
   118   155   153   ar
   119    75    74    2
   120   103   102    2
   121    58    57   ar
   122    58    60   ar
   123    57    59   ar
   124    60    62   ar
   125   105   104    1
   126    74    73    1
   127   102   101    1
   128   150   149    1
   129   150   151   ar
   130   101   104    1
   131   101   100    1
   132   153   151   ar
   133    59    61   ar
   134   149   146    1
   135    62    61   ar
   136    62    63    1
   137    73    76    1
   138    73    72    1
   139    78    80   ar
   140    78    77   ar
   141   145   146    1
   142    76    77    1
   143   146   147    1
   144    80    82   ar
   145    77    79   ar
   146   147   148    2
   147    82    83    1
   148    82    81   ar
   149    79    81   ar
