@<TRIPOS>MOLECULE
tmp/5wztA00.pdb
 148 142 0 0 0
SMALL
GASTEIGER

@<TRIPOS>ATOM
      1  N        -12.5940  -10.4760   -4.5940 N.3     2  LEU2       -0.1245
      2  CA       -11.8830  -10.5240   -5.8820 C.3     2  LEU2        0.1561
      3  C        -10.3860  -10.1630   -5.8340 C.2     2  LEU2        0.2260
      4  O         -9.7420  -10.0760   -6.8860 O.2     2  LEU2       -0.2867
      5  CB       -12.5990   -9.5960   -6.8900 C.3     2  LEU2        0.0270
      6  CG       -13.9420  -10.0720   -7.4630 C.3     2  LEU2        0.0019
      7  CD1      -14.6020   -8.9550   -8.2700 C.3     2  LEU2        0.0001
      8  CD2      -13.7710  -11.3270   -8.3180 C.3     2  LEU2        0.0001
      9  N         -7.6000  -12.9690   -7.2120 N.3     5  PHE5       -0.1227
     10  CA        -7.7880  -13.1640   -8.6520 C.3     5  PHE5        0.1736
     11  C         -7.2620  -11.9790   -9.4760 C.2     5  PHE5        0.2596
     12  O         -6.4890  -12.1570  -10.4280 O.2     5  PHE5       -0.2718
     13  CB        -9.2670  -13.4090   -8.9410 C.3     5  PHE5        0.0547
     14  CG        -9.5720  -13.8090  -10.3630 C.ar    5  PHE5       -0.0202
     15  CD1       -8.6910  -14.5970  -11.1220 C.ar    5  PHE5       -0.0042
     16  CD2      -10.7710  -13.4170  -10.9430 C.ar    5  PHE5       -0.0042
     17  CE1       -8.9970  -14.9460  -12.4300 C.ar    5  PHE5       -0.0003
     18  CE2      -11.0770  -13.7710  -12.2520 C.ar    5  PHE5       -0.0003
     19  CZ       -10.1970  -14.5390  -12.9920 C.ar    5  PHE5       -0.0000
     20  N         -7.6770  -10.7730   -9.0720 N.am    6  GLY6       -0.1957
     21  CA        -7.1920   -9.5360   -9.6500 C.3     6  GLY6        0.1869
     22  C         -5.6900   -9.4510   -9.5990 C.2     6  GLY6        0.2309
     23  O         -5.0610   -9.0170  -10.5810 O.2     6  GLY6       -0.2863
     24  N         -4.3990  -11.9560  -12.1770 N.3     9  ILE9       -0.1245
     25  CA        -4.5860  -11.3900  -13.5240 C.3     9  ILE9        0.1561
     26  C         -3.4810  -10.3900  -13.8730 C.2     9  ILE9        0.2260
     27  O         -2.9190  -10.4530  -14.9710 O.2     9  ILE9       -0.2867
     28  CB        -5.9780  -10.7650  -13.7040 C.3     9  ILE9        0.0252
     29  CG1       -7.0600  -11.8530  -13.6390 C.3     9  ILE9        0.0019
     30  CG2       -6.0820  -10.0530  -15.0510 C.3     9  ILE9        0.0019
     31  CD1       -8.4110  -11.3380  -13.1950 C.3     9  ILE9        0.0001
     32  N         -6.6110   -5.7070  -13.5030 N.3    17  ALA17      -0.1231
     33  CA        -7.8050   -6.5560  -13.5220 C.3    17  ALA17       0.1694
     34  C         -9.0700   -5.8390  -14.0130 C.2    17  ALA17       0.2591
     35  O         -9.9690   -6.4700  -14.5820 O.2    17  ALA17      -0.2718
     36  CB        -8.0520   -7.1260  -12.1420 C.3    17  ALA17       0.0304
     37  N         -9.1390   -4.5270  -13.7820 N.am   18  LEU18      -0.1980
     38  CA       -10.2410   -3.6930  -14.2690 C.3    18  LEU18       0.1596
     39  C        -10.4310   -3.7680  -15.7900 C.2    18  LEU18       0.2287
     40  O        -11.5480   -3.6010  -16.2800 O.2    18  LEU18      -0.2864
     41  CB       -10.0300   -2.2250  -13.8670 C.3    18  LEU18       0.0297
     42  CG        -9.8910   -1.8690  -12.3820 C.3    18  LEU18       0.0022
     43  CD1       -9.7410   -0.3600  -12.2400 C.3    18  LEU18       0.0001
     44  CD2      -11.0680   -2.3930  -11.5710 C.3    18  LEU18       0.0001
     45  N        -10.3210   -6.4030  -17.5070 N.3    20  TYR20      -0.1227
     46  CA       -11.1180   -7.6020  -17.7290 C.3    20  TYR20       0.1736
     47  C        -12.4580   -7.5620  -16.9880 C.2    20  TYR20       0.2595
     48  O        -13.1350   -8.5740  -16.8960 O.2    20  TYR20      -0.2718
     49  CB       -10.3180   -8.8410  -17.3060 C.3    20  TYR20       0.0548
     50  CG        -9.1050   -9.0930  -18.1690 C.ar   20  TYR20      -0.0200
     51  CD1       -7.8920   -8.4220  -17.9360 C.ar   20  TYR20      -0.0009
     52  CD2       -9.1560  -10.0100  -19.2180 C.ar   20  TYR20      -0.0009
     53  CE1       -6.7800   -8.6590  -18.7300 C.ar   20  TYR20       0.0417
     54  CE2       -8.0470  -10.2430  -20.0230 C.ar   20  TYR20       0.0417
     55  CZ        -6.8670   -9.5690  -19.7760 C.ar   20  TYR20       0.1957
     56  OH        -5.7840   -9.8200  -20.5710 O.3    20  TYR20      -0.2866
     57  N        -12.8510   -6.4070  -16.4660 N.am   21  ASN21      -0.1974
     58  CA       -14.1460   -6.2710  -15.7900 C.3    21  ASN21       0.1688
     59  C        -15.0870   -5.6620  -16.8240 C.2    21  ASN21       0.2292
     60  O        -14.7020   -4.7410  -17.5710 O.2    21  ASN21      -0.2864
     61  CB       -14.0010   -5.4020  -14.5290 C.3    21  ASN21       0.1181
     62  CG       -15.2740   -5.3280  -13.6810 C.2    21  ASN21       0.2629
     63  OD1      -15.7030   -4.2280  -13.3160 O.2    21  ASN21      -0.2716
     64  ND2      -15.8680   -6.4810  -13.3400 N.am   21  ASN21      -0.0877
     65  N        -19.0590  -11.9290  -21.0920 N.3    26  TYR26      -0.1241
     66  CA       -18.8900  -12.8400  -19.9500 C.3    26  TYR26       0.1605
     67  C        -17.9910  -12.4070  -18.7840 C.2    26  TYR26       0.2264
     68  O        -18.1470  -12.9400  -17.6920 O.2    26  TYR26      -0.2867
     69  CB       -18.4800  -14.2510  -20.4390 C.3    26  TYR26       0.0534
     70  CG       -19.6540  -15.0040  -20.9930 C.ar   26  TYR26      -0.0201
     71  CD1      -20.4660  -15.7700  -20.1610 C.ar   26  TYR26      -0.0009
     72  CD2      -20.0070  -14.8820  -22.3270 C.ar   26  TYR26      -0.0009
     73  CE1      -21.5900  -16.4280  -20.6590 C.ar   26  TYR26       0.0417
     74  CE2      -21.1210  -15.5280  -22.8400 C.ar   26  TYR26       0.0417
     75  CZ       -21.9130  -16.3030  -22.0050 C.ar   26  TYR26       0.1957
     76  OH       -23.0200  -16.9400  -22.4930 O.3    26  TYR26      -0.2866
     77  N        -16.9310  -10.4040  -15.7120 N.3    28  GLY28      -0.1210
     78  CA       -17.7180   -9.6070  -14.7630 C.3    28  GLY28       0.1956
     79  C        -18.8780  -10.4560  -14.3100 C.2    28  GLY28       0.2612
     80  O        -19.0440  -11.5600  -14.8140 O.2    28  GLY28      -0.2717
     81  N        -19.6860   -9.9730  -13.3740 N.am   29  ILE29      -0.1965
     82  CA       -20.7340  -10.8340  -12.8070 C.3    29  ILE29       0.1727
     83  C        -21.7460  -11.2830  -13.8740 C.2    29  ILE29       0.2616
     84  O        -22.0950  -10.5210  -14.7840 O.2    29  ILE29      -0.2715
     85  CB       -21.4380  -10.2220  -11.5590 C.3    29  ILE29       0.0290
     86  CG1      -22.1510   -8.8850  -11.8790 C.3    29  ILE29       0.0022
     87  CG2      -20.4440  -10.0950  -10.3990 C.3    29  ILE29       0.0023
     88  CD1      -23.6660   -8.9550  -11.7670 C.3    29  ILE29       0.0001
     89  N        -22.1560  -12.5480  -13.7730 N.am   30  GLY30      -0.1955
     90  CA       -23.0730  -13.1600  -14.7200 C.3    30  GLY30       0.1869
     91  C        -22.4770  -13.3200  -16.1100 C.2    30  GLY30       0.2309
     92  O        -21.2790  -13.5420  -16.2720 O.2    30  GLY30      -0.2863
     93  N        -13.4930  -16.2780  -19.8400 N.3    43  CYS43      -0.1235
     94  CA       -14.4790  -15.9230  -18.8120 C.3    43  CYS43       0.1677
     95  C        -15.7050  -16.8170  -18.7830 C.2    43  CYS43       0.2270
     96  O        -16.1930  -17.1390  -17.6950 O.2    43  CYS43      -0.2867
     97  CB       -14.9290  -14.4600  -18.9650 C.3    43  CYS43       0.0956
     98  SG       -13.5780  -13.3240  -18.6670 S.3    43  CYS43      -0.0801
     99  N        -14.4210  -19.8000  -17.1970 N.3    46  HIS46      -0.1226
    100  CA       -14.2470  -19.4940  -15.7690 C.3    46  HIS46       0.1752
    101  C        -15.5790  -19.5310  -15.0060 C.2    46  HIS46       0.2596
    102  O        -15.6580  -20.1520  -13.9530 O.2    46  HIS46      -0.2718
    103  CB       -13.5610  -18.1430  -15.5980 C.3    46  HIS46       0.0759
    104  CG       -13.1780  -17.8360  -14.1870 C.ar   46  HIS46       0.0818
    105  ND1      -13.9630  -17.0760  -13.3490 N.ar   46  HIS46      -0.2268
    106  CD2      -12.0980  -18.2010  -13.4590 C.ar   46  HIS46       0.1154
    107  CE1      -13.3830  -16.9840  -12.1680 C.ar   46  HIS46       0.1986
    108  NE2      -12.2540  -17.6680  -12.2070 N.ar   46  HIS46      -0.2212
    109  N        -16.6190  -18.8950  -15.5540 N.am   47  ASP47      -0.1974
    110  CA       -18.0000  -19.0560  -15.0470 C.3    47  ASP47       0.1709
    111  C        -18.4120  -20.5530  -14.8910 C.2    47  ASP47       0.2293
    112  O        -18.9690  -20.9680  -13.8580 O.2    47  ASP47      -0.2864
    113  CB       -18.9970  -18.4160  -16.0130 C.3    47  ASP47       0.1436
    114  CG       -19.0430  -16.8840  -15.9490 C.2    47  ASP47       0.3671
    115  OD1      -18.2970  -16.2190  -15.2050 O.co2  47  ASP47      -0.2456
    116  OD2      -19.8770  -16.3270  -16.6840 O.co2  47  ASP47      -0.2456
    117  N        -16.5380  -22.0950  -11.9700 N.3    50  TYR50      -0.1241
    118  CA       -17.1860  -21.7450  -10.7060 C.3    50  TYR50       0.1605
    119  C        -18.4850  -22.5360  -10.4800 C.2    50  TYR50       0.2264
    120  O        -18.7150  -23.0190   -9.3760 O.2    50  TYR50      -0.2867
    121  CB       -17.3780  -20.2070  -10.5860 C.3    50  TYR50       0.0534
    122  CG       -16.1770  -19.4380  -10.0090 C.ar   50  TYR50      -0.0201
    123  CD1      -14.8750  -19.9330  -10.0760 C.ar   50  TYR50      -0.0009
    124  CD2      -16.3530  -18.1720   -9.4150 C.ar   50  TYR50      -0.0009
    125  CE1      -13.7970  -19.2140   -9.5430 C.ar   50  TYR50       0.0417
    126  CE2      -15.2820  -17.4420   -8.8890 C.ar   50  TYR50       0.0417
    127  CZ       -13.9960  -17.9550   -8.9560 C.ar   50  TYR50       0.1957
    128  OH       -12.9240  -17.2460   -8.4240 O.3    50  TYR50      -0.2866
    129  N        -16.8240  -17.7590   -5.1770 N.3    61  LYS61      -0.1245
    130  CA       -16.9110  -16.2900   -5.0980 C.3    61  LYS61       0.1561
    131  C        -16.2520  -15.7370   -3.8580 C.2    61  LYS61       0.2260
    132  O        -15.8000  -14.6110   -3.8720 O.2    61  LYS61      -0.2867
    133  CB       -18.3730  -15.8170   -5.1490 C.3    61  LYS61       0.0271
    134  CG       -18.9020  -15.7070   -6.5690 C.3    61  LYS61       0.0035
    135  CD       -20.4090  -15.8920   -6.6620 C.3    61  LYS61       0.0206
    136  CE       -20.8820  -15.5900   -8.0770 C.3    61  LYS61       0.1093
    137  NZ       -22.0460  -16.4430   -8.4440 N.3    61  LYS61      -0.1314
    138  N         -6.1380  -15.7030  -20.2650 N.3    97  PHE97      -0.1241
    139  CA        -6.0290  -14.2550  -20.5790 C.3    97  PHE97       0.1605
    140  C         -4.6640  -13.8940  -21.1610 C.2    97  PHE97       0.2264
    141  O         -4.6030  -13.2390  -22.1970 O.2    97  PHE97      -0.2867
    142  CB        -6.2690  -13.3500  -19.3700 C.3    97  PHE97       0.0534
    143  CG        -7.6470  -13.4080  -18.7900 C.ar   97  PHE97      -0.0203
    144  CD1       -8.7940  -13.5510  -19.5960 C.ar   97  PHE97      -0.0042
    145  CD2       -7.8150  -13.2270  -17.4200 C.ar   97  PHE97      -0.0042
    146  CE1      -10.0640  -13.5590  -19.0300 C.ar   97  PHE97      -0.0003
    147  CE2       -9.0850  -13.2190  -16.8450 C.ar   97  PHE97      -0.0003
    148  CZ       -10.2150  -13.3760  -17.6570 C.ar   97  PHE97      -0.0000
@<TRIPOS>BOND
     1    74    72   ar
     2    74    75   ar
     3    76    75    1
     4    72    70   ar
     5   141   140    2
     6    75    73   ar
     7   140   139    1
     8    65    66    1
     9    70    69    1
    10    70    71   ar
    11    73    71   ar
    12   139   138    1
    13   139   142    1
    14    56    55    1
    15    69    66    1
    16    54    55   ar
    17    54    52   ar
    18    66    67    1
    19    93    94    1
    20    55    53   ar
    21   144   146   ar
    22   144   143   ar
    23   142   143    1
    24    52    50   ar
    25   146   148   ar
    26    97    94    1
    27    97    98    1
    28    94    95    1
    29   143   145   ar
    30    67    68    2
    31    95    96    2
    32    53    51   ar
    33    50    51   ar
    34    50    49    1
    35    46    45    1
    36    46    49    1
    37    46    47    1
    38   148   147   ar
    39    60    59    2
    40   145   147   ar
    41    99   100    1
    42    47    48    2
    43    47    57   am
    44    59    58    1
    45   116   114   ar
    46    57    58    1
    47    40    39    2
    48    92    91    2
    49    91    90    1
    50   113   114    1
    51   113   110    1
    52   114   115   ar
    53    39    38    1
    54    58    61    1
    55   100   103    1
    56   100   101    1
    57    77    78    1
    58   103   104    1
    59   109   110    1
    60   109   101   am
    61    30    28    1
    62   110   111    1
    63   101   102    2
    64    27    26    2
    65   111   112    2
    66    80    79    2
    67    84    83    2
    68    78    79    1
    69    90    89    1
    70    35    34    2
    71    61    62    1
    72    79    81   am
    73    38    41    1
    74    38    37    1
    75   104   106   ar
    76   104   105   ar
    77    34    37   am
    78    34    33    1
    79    83    89   am
    80    83    82    1
    81    26    25    1
    82    41    42    1
    83    28    29    1
    84    28    25    1
    85    62    64   am
    86    62    63    2
    87    29    31    1
    88    25    24    1
    89    33    32    1
    90    33    36    1
    91   106   108   ar
    92    81    82    1
    93   105   107   ar
    94    19    17   ar
    95    19    18   ar
    96    82    85    1
    97    17    15   ar
    98    42    43    1
    99    42    44    1
   100    18    16   ar
   101   108   107   ar
   102   117   118    1
   103    86    88    1
   104    86    85    1
   105    85    87    1
   106    15    14   ar
   107    16    14   ar
   108   118   121    1
   109   118   119    1
   110   121   122    1
   111    23    22    2
   112   119   120    2
   113    12    11    2
   114    14    13    1
   115   123   122   ar
   116   123   125   ar
   117   122   124   ar
   118    21    22    1
   119    21    20    1
   120   125   127   ar
   121    11    20   am
   122    11    10    1
   123   124   126   ar
   124   127   126   ar
   125   127   128    1
   126    13    10    1
   127    10     9    1
   128   137   136    1
   129     8     6    1
   130     7     6    1
   131   136   135    1
   132     6     5    1
   133     5     2    1
   134     4     3    2
   135   135   134    1
   136   134   133    1
   137     2     3    1
   138     2     1    1
   139   129   130    1
   140   133   130    1
   141   130   131    1
   142   132   131    2
