@<TRIPOS>MOLECULE
tmp/5wzvA00.pdb
 161 157 0 0 0
SMALL
GASTEIGER

@<TRIPOS>ATOM
      1  N         12.4970   19.2750    4.2910 N.3     2  LEU2       -0.1231
      2  CA        11.6180   18.9980    5.4360 C.3     2  LEU2        0.1693
      3  C         10.4040   19.9350    5.5920 C.2     2  LEU2        0.2591
      4  O         10.0540   20.3090    6.7160 O.2     2  LEU2       -0.2718
      5  CB        12.4160   18.9450    6.7580 C.3     2  LEU2        0.0284
      6  CG        13.7990   18.2800    6.8460 C.3     2  LEU2        0.0019
      7  CD1       14.4370   18.7340    8.1550 C.3     2  LEU2        0.0001
      8  CD2       13.7830   16.7490    6.7420 C.3     2  LEU2        0.0001
      9  N          9.7330   20.2760    4.4870 N.am    3  VAL3       -0.1980
     10  CA         8.4720   21.0310    4.5950 C.3     3  VAL3        0.1595
     11  C          7.3210   20.1060    5.0370 C.2     3  VAL3        0.2287
     12  O          6.4850   20.5270    5.8320 O.2     3  VAL3       -0.2864
     13  CB         8.1650   21.9190    3.3490 C.3     3  VAL3        0.0276
     14  CG1        7.1150   21.3010    2.4200 C.3     3  VAL3        0.0022
     15  CG2        7.7340   23.3220    3.8000 C.3     3  VAL3        0.0022
     16  N          7.6310   17.3660    7.0380 N.3     5  PHE5       -0.1227
     17  CA         7.8270   17.1430    8.5050 C.3     5  PHE5        0.1736
     18  C          7.3450   18.3440    9.3410 C.2     5  PHE5        0.2596
     19  O          6.6050   18.1780   10.3050 O.2     5  PHE5       -0.2718
     20  CB         9.2830   16.8000    8.8290 C.3     5  PHE5        0.0547
     21  CG         9.5550   16.4840   10.2940 C.ar    5  PHE5       -0.0202
     22  CD1        8.6080   15.8500   11.1220 C.ar    5  PHE5       -0.0042
     23  CD2       10.7720   16.8270   10.8500 C.ar    5  PHE5       -0.0042
     24  CE1        8.8900   15.5700   12.4380 C.ar    5  PHE5       -0.0003
     25  CE2       11.0590   16.5420   12.1850 C.ar    5  PHE5       -0.0003
     26  CZ        10.1220   15.9100   12.9790 C.ar    5  PHE5       -0.0000
     27  N          7.7360   19.5490    8.9260 N.am    6  GLY6       -0.1957
     28  CA         7.2370   20.7880    9.5080 C.3     6  GLY6        0.1869
     29  C          5.7320   20.8780    9.4920 C.2     6  GLY6        0.2309
     30  O          5.1140   21.2860   10.4780 O.2     6  GLY6       -0.2863
     31  N          4.4950   18.4610   12.1360 N.3     9  ILE9       -0.1245
     32  CA         4.6790   19.0730   13.4620 C.3     9  ILE9        0.1561
     33  C          3.5460   20.0630   13.7700 C.2     9  ILE9        0.2260
     34  O          2.8900   19.9740   14.8160 O.2     9  ILE9       -0.2867
     35  CB         6.0550   19.7710   13.5870 C.3     9  ILE9        0.0252
     36  CG1        7.1720   18.7230   13.6730 C.3     9  ILE9        0.0019
     37  CG2        6.1040   20.6570   14.8240 C.3     9  ILE9        0.0019
     38  CD1        8.5310   19.2540   13.3060 C.3     9  ILE9        0.0001
     39  N          6.6240   24.9190   13.2480 N.3    17  ALA17      -0.1231
     40  CA         7.8480   24.1060   13.1810 C.3    17  ALA17       0.1694
     41  C          9.0940   24.8190   13.7150 C.2    17  ALA17       0.2591
     42  O         10.0040   24.1580   14.2400 O.2    17  ALA17      -0.2718
     43  CB         8.0960   23.6630   11.7480 C.3    17  ALA17       0.0304
     44  N          9.1190   26.1520   13.5570 N.am   18  LEU18      -0.1980
     45  CA        10.1620   27.0560   14.0940 C.3    18  LEU18       0.1596
     46  C         10.4220   26.8490   15.5780 C.2    18  LEU18       0.2287
     47  O         11.5450   27.0200   16.0420 O.2    18  LEU18      -0.2864
     48  CB         9.7820   28.5530   13.9200 C.3    18  LEU18       0.0297
     49  CG         9.2850   29.1600   12.5920 C.3    18  LEU18       0.0022
     50  CD1        8.9410   30.6300   12.7930 C.3    18  LEU18       0.0001
     51  CD2       10.2620   28.9770   11.4320 C.3    18  LEU18       0.0001
     52  N         10.4290   24.1330   17.2080 N.3    20  TYR20      -0.1227
     53  CA        11.1260   22.8860   17.4860 C.3    20  TYR20       0.1736
     54  C         12.5500   22.8530   16.9270 C.2    20  TYR20       0.2595
     55  O         13.3730   22.1040   17.4360 O.2    20  TYR20      -0.2718
     56  CB        10.2980   21.7060   16.9930 C.3    20  TYR20       0.0548
     57  CG         9.1180   21.4470   17.8880 C.ar   20  TYR20      -0.0200
     58  CD1        9.2320   20.6100   18.9800 C.ar   20  TYR20      -0.0009
     59  CD2        7.8870   22.0800   17.6670 C.ar   20  TYR20      -0.0009
     60  CE1        8.1560   20.3670   19.8150 C.ar   20  TYR20       0.0417
     61  CE2        6.8050   21.8470   18.4970 C.ar   20  TYR20       0.0417
     62  CZ         6.9470   20.9900   19.5770 C.ar   20  TYR20       0.1957
     63  OH         5.8990   20.7500   20.4080 O.3    20  TYR20      -0.2866
     64  N         12.8510   23.6650   15.9130 N.am   21  ASN21      -0.1974
     65  CA        14.2460   23.9270   15.5270 C.3    21  ASN21       0.1688
     66  C         15.0340   24.5580   16.6860 C.2    21  ASN21       0.2292
     67  O         14.5040   25.4000   17.4390 O.2    21  ASN21      -0.2864
     68  CB        14.3010   24.8730   14.3230 C.3    21  ASN21       0.1181
     69  CG        15.7230   25.1250   13.8320 C.2    21  ASN21       0.2629
     70  OD1       16.1570   26.2740   13.7270 O.2    21  ASN21      -0.2716
     71  ND2       16.4610   24.0500   13.5450 N.am   21  ASN21      -0.0877
     72  N         19.2220   18.4480   20.8990 N.3    26  TYR26      -0.1227
     73  CA        19.0410   17.5330   19.7760 C.3    26  TYR26       0.1736
     74  C         18.1060   18.0220   18.6730 C.2    26  TYR26       0.2596
     75  O         18.2170   17.5300   17.5570 O.2    26  TYR26      -0.2718
     76  CB        18.6520   16.1080   20.2630 C.3    26  TYR26       0.0548
     77  CG        19.8530   15.4270   20.8640 C.ar   26  TYR26      -0.0200
     78  CD1       20.7520   14.7330   20.0570 C.ar   26  TYR26      -0.0009
     79  CD2       20.1630   15.5750   22.2070 C.ar   26  TYR26      -0.0009
     80  CE1       21.9150   14.1580   20.5810 C.ar   26  TYR26       0.0417
     81  CE2       21.3210   15.0250   22.7430 C.ar   26  TYR26       0.0417
     82  CZ        22.1950   14.3050   21.9300 C.ar   26  TYR26       0.1957
     83  OH        23.3480   13.7430   22.4290 O.3    26  TYR26      -0.2866
     84  N         17.1870   18.9410   18.9410 N.am   27  CYS27      -0.1956
     85  CA        16.2660   19.3480   17.8830 C.3    27  CYS27       0.1843
     86  C         16.9180   20.4080   16.9620 C.2    27  CYS27       0.2626
     87  O         17.3000   21.4920   17.4060 O.2    27  CYS27      -0.2714
     88  CB        14.9470   19.8750   18.4490 C.3    27  CYS27       0.0997
     89  SG        14.0630   18.8210   19.6020 S.3    27  CYS27      -0.0797
     90  N         16.9920   20.1020   15.6750 N.am   28  GLY28      -0.1940
     91  CA        17.8060   20.8750   14.7360 C.3    28  GLY28       0.2014
     92  C         18.9610   19.9960   14.3210 C.2    28  GLY28       0.2639
     93  O         19.0910   18.8700   14.8190 O.2    28  GLY28      -0.2714
     94  N         19.7980   20.4800   13.4130 N.am   29  ILE29      -0.1963
     95  CA        20.8010   19.5870   12.8020 C.3    29  ILE29       0.1727
     96  C         21.7970   19.0300   13.8300 C.2    29  ILE29       0.2616
     97  O         22.2460   19.7470   14.7380 O.2    29  ILE29      -0.2715
     98  CB        21.5480   20.2060   11.5870 C.3    29  ILE29       0.0290
     99  CG1       22.1750   21.5730   11.9270 C.3    29  ILE29       0.0022
    100  CG2       20.6040   20.3070   10.3890 C.3    29  ILE29       0.0023
    101  CD1       23.2240   22.0290   10.9240 C.3    29  ILE29       0.0001
    102  N         22.0970   17.7380   13.6860 N.am   30  GLY30      -0.1955
    103  CA        22.9630   17.0200   14.6160 C.3    30  GLY30       0.1869
    104  C         22.4480   17.0940   16.0470 C.2    30  GLY30       0.2309
    105  O         21.2510   16.9330   16.2900 O.2    30  GLY30      -0.2863
    106  N         13.6600   14.2680   19.8320 N.3    43  CYS43      -0.1235
    107  CA        14.5940   14.6060   18.7750 C.3    43  CYS43       0.1677
    108  C         15.8020   13.6880   18.7220 C.2    43  CYS43       0.2270
    109  O         16.1990   13.2930   17.6440 O.2    43  CYS43      -0.2867
    110  CB        15.0200   16.0580   18.8900 C.3    43  CYS43       0.0956
    111  SG        13.6440   17.1630   18.5190 S.3    43  CYS43      -0.0801
    112  N         14.5760   10.6830   17.1450 N.3    46  HIS46      -0.1226
    113  CA        14.3830   10.9480   15.7020 C.3    46  HIS46       0.1752
    114  C         15.6950   10.8680   14.9430 C.2    46  HIS46       0.2596
    115  O         15.7510   10.2610   13.8690 O.2    46  HIS46      -0.2718
    116  CB        13.7390   12.3200   15.4980 C.3    46  HIS46       0.0759
    117  CG        13.2360   12.5780   14.1100 C.ar   46  HIS46       0.0818
    118  ND1       13.7760   13.5400   13.2910 N.ar   46  HIS46      -0.2268
    119  CD2       12.2340   12.0080   13.4010 C.ar   46  HIS46       0.1154
    120  CE1       13.1360   13.5480   12.1390 C.ar   46  HIS46       0.1986
    121  NE2       12.1860   12.6370   12.1870 N.ar   46  HIS46      -0.2212
    122  N         16.7400   11.4890   15.4930 N.am   47  ASP47      -0.1974
    123  CA        18.0960   11.3550   14.9590 C.3    47  ASP47       0.1709
    124  C         18.5370    9.8990   14.8520 C.2    47  ASP47       0.2293
    125  O         19.1510    9.4970   13.8500 O.2    47  ASP47      -0.2864
    126  CB        19.1060   12.0460   15.8790 C.3    47  ASP47       0.1436
    127  CG        19.0490   13.5510   15.7950 C.2    47  ASP47       0.3671
    128  OD1       18.1720   14.1190   15.1010 O.co2  47  ASP47      -0.2456
    129  OD2       19.9010   14.1810   16.4510 O.co2  47  ASP47      -0.2456
    130  N         16.6090    8.2910   11.9080 N.3    50  TYR50      -0.1241
    131  CA        17.2750    8.6070   10.6440 C.3    50  TYR50       0.1605
    132  C         18.5620    7.8040   10.4110 C.2    50  TYR50       0.2264
    133  O         18.7870    7.3280    9.2950 O.2    50  TYR50      -0.2867
    134  CB        17.4960   10.1250   10.4780 C.3    50  TYR50       0.0534
    135  CG        16.2780   10.9180    9.9520 C.ar   50  TYR50      -0.0201
    136  CD1       14.9750   10.4440   10.0580 C.ar   50  TYR50      -0.0009
    137  CD2       16.4510   12.1900    9.3950 C.ar   50  TYR50      -0.0009
    138  CE1       13.8920   11.1880    9.5780 C.ar   50  TYR50       0.0417
    139  CE2       15.3770   12.9410    8.9160 C.ar   50  TYR50       0.0417
    140  CZ        14.0960   12.4500    9.0090 C.ar   50  TYR50       0.1957
    141  OH        13.0410   13.2100    8.4960 O.3    50  TYR50      -0.2866
    142  N         16.9390   12.5010    5.2230 N.3    61  LYS61      -0.1245
    143  CA        17.0240   13.9780    5.1590 C.3    61  LYS61       0.1561
    144  C         16.4430   14.5470    3.8720 C.2    61  LYS61       0.2260
    145  O         16.0030   15.6780    3.8630 O.2    61  LYS61      -0.2867
    146  CB        18.4680   14.4550    5.3070 C.3    61  LYS61       0.0271
    147  CG        19.0590   14.2770    6.6970 C.3    61  LYS61       0.0035
    148  CD        20.4470   14.8910    6.7360 C.3    61  LYS61       0.0206
    149  CE        21.0290   14.9280    8.1360 C.3    61  LYS61       0.1093
    150  NZ        21.7030   13.6330    8.4200 N.3    61  LYS61      -0.1314
    151  N          6.2360   14.7590   20.2120 N.3    97  PHE97      -0.1241
    152  CA         6.1020   16.1960   20.5260 C.3    97  PHE97       0.1605
    153  C          4.7390   16.4890   21.1460 C.2    97  PHE97       0.2264
    154  O          4.6700   17.1080   22.2220 O.2    97  PHE97      -0.2867
    155  CB         6.2890   17.1240   19.3160 C.3    97  PHE97       0.0534
    156  CG         7.6640   17.1180   18.7200 C.ar   97  PHE97      -0.0203
    157  CD1        8.8170   16.8980   19.4930 C.ar   97  PHE97      -0.0042
    158  CD2        7.8220   17.3840   17.3550 C.ar   97  PHE97      -0.0042
    159  CE1       10.0840   16.9070   18.9000 C.ar   97  PHE97      -0.0003
    160  CE2        9.0810   17.4010   16.7710 C.ar   97  PHE97      -0.0003
    161  CZ        10.2140   17.1700   17.5530 C.ar   97  PHE97      -0.0000
@<TRIPOS>BOND
     1    14    13    1
     2    13    15    1
     3    13    10    1
     4   145   144    2
     5   144   143    1
     6     1     2    1
     7     9    10    1
     8     9     3   am
     9    10    11    1
    10    11    12    2
    11   143   142    1
    12   143   146    1
    13   146   147    1
    14     2     3    1
    15     2     5    1
    16     3     4    2
    17   147   148    1
    18   148   149    1
    19     8     6    1
    20     5     6    1
    21     6     7    1
    22    16    17    1
    23   149   150    1
    24   141   140    1
    25    17    20    1
    26    17    18    1
    27    20    21    1
    28   139   140   ar
    29   139   137   ar
    30    27    18   am
    31    27    28    1
    32   140   138   ar
    33   133   132    2
    34    18    19    2
    35   137   135   ar
    36    29    28    1
    37    29    30    2
    38   138   136   ar
    39   135   136   ar
    40   135   134    1
    41    21    23   ar
    42    21    22   ar
    43   100    98    1
    44   132   131    1
    45   134   131    1
    46   131   130    1
    47    23    25   ar
    48   101    99    1
    49    22    24   ar
    50    51    49    1
    51    98    99    1
    52    98    95    1
    53    43    40    1
    54    31    32    1
    55   120   121   ar
    56   120   118   ar
    57    25    26   ar
    58   121   119   ar
    59    24    26   ar
    60    49    50    1
    61    49    48    1
    62    95    94    1
    63    95    96    1
    64    40    39    1
    65    40    41    1
    66   118   117   ar
    67    38    36    1
    68   119   117   ar
    69    94    92   am
    70    32    35    1
    71    32    33    1
    72    71    69   am
    73    44    41   am
    74    44    45    1
    75    35    36    1
    76    35    37    1
    77   102    96   am
    78   102   103    1
    79    41    42    2
    80    70    69    2
    81    33    34    2
    82    96    97    2
    83    69    68    1
    84   125   124    2
    85   115   114    2
    86    48    45    1
    87    45    46    1
    88   117   116    1
    89    92    91    1
    90    92    93    2
    91    68    65    1
    92   103   104    1
    93    91    90    1
    94   124   123    1
    95   114   122   am
    96   114   113    1
    97   123   122    1
    98   123   126    1
    99   128   127   ar
   100   116   113    1
   101    65    64    1
   102    65    66    1
   103    46    47    2
   104    90    86   am
   105   113   112    1
   106   127   126    1
   107   127   129   ar
   108    64    54   am
   109   104   105    2
   110    66    67    2
   111   160   158   ar
   112   160   161   ar
   113    54    55    2
   114    54    53    1
   115    86    87    2
   116    86    85    1
   117    56    53    1
   118    56    57    1
   119    52    53    1
   120   158   156   ar
   121   161   159   ar
   122    75    74    2
   123   109   108    2
   124    59    57   ar
   125    59    61   ar
   126    85    88    1
   127    85    84    1
   128    57    58   ar
   129    88    89    1
   130    61    62   ar
   131   111   110    1
   132   111    89    1
   133    74    84   am
   134    74    73    1
   135   156   155    1
   136   156   157   ar
   137   108   107    1
   138   107   110    1
   139   107   106    1
   140   159   157   ar
   141    58    60   ar
   142   155   152    1
   143    62    60   ar
   144    62    63    1
   145    73    76    1
   146    73    72    1
   147    78    80   ar
   148    78    77   ar
   149   151   152    1
   150    76    77    1
   151   152   153    1
   152    80    82   ar
   153    77    79   ar
   154   153   154    2
   155    82    83    1
   156    82    81   ar
   157    79    81   ar
