@<TRIPOS>MOLECULE
tmp/5wzwA00.pdb
 163 158 0 0 0
SMALL
GASTEIGER

@<TRIPOS>ATOM
      1  N         11.4720   18.5780    4.6960 N.3     2  LEU2       -0.1245
      2  CA        11.1770   19.2680    5.9430 C.3     2  LEU2        0.1561
      3  C          9.9540   20.1580    5.7560 C.2     2  LEU2        0.2260
      4  O          9.3970   20.6330    6.7400 O.2     2  LEU2       -0.2867
      5  CB        12.3930   20.0830    6.4200 C.3     2  LEU2        0.0270
      6  CG        13.5200   19.3420    7.1700 C.3     2  LEU2        0.0019
      7  CD1       13.5680   17.8280    6.9330 C.3     2  LEU2        0.0001
      8  CD2       14.8640   19.9880    6.8390 C.3     2  LEU2        0.0001
      9  N          7.8070   17.1720    7.0810 N.3     5  PHE5       -0.1227
     10  CA         7.9840   16.9960    8.5470 C.3     5  PHE5        0.1736
     11  C          7.4820   18.2310    9.2860 C.2     5  PHE5        0.2596
     12  O          6.7240   18.1260   10.2480 O.2     5  PHE5       -0.2718
     13  CB         9.4360   16.6960    8.9240 C.3     5  PHE5        0.0547
     14  CG         9.6520   16.3560   10.3950 C.ar    5  PHE5       -0.0202
     15  CD1        8.6690   15.7130   11.1710 C.ar    5  PHE5       -0.0042
     16  CD2       10.8500   16.6820   11.0090 C.ar    5  PHE5       -0.0042
     17  CE1        8.8970   15.4080   12.5120 C.ar    5  PHE5       -0.0003
     18  CE2       11.0790   16.3740   12.3420 C.ar    5  PHE5       -0.0003
     19  CZ        10.1050   15.7380   13.0970 C.ar    5  PHE5       -0.0000
     20  N          7.8690   19.4020    8.7870 N.am    6  GLY6       -0.1957
     21  CA         7.3720   20.6730    9.3140 C.3     6  GLY6        0.1869
     22  C          5.8630   20.7750    9.3330 C.2     6  GLY6        0.2309
     23  O          5.2690   21.1800   10.3350 O.2     6  GLY6       -0.2863
     24  N          4.6000   18.4890   12.0160 N.3     9  ILE9       -0.1245
     25  CA         4.7880   19.0750   13.3520 C.3     9  ILE9        0.1561
     26  C          3.6870   20.0920   13.6690 C.2     9  ILE9        0.2260
     27  O          3.1000   20.0620   14.7560 O.2     9  ILE9       -0.2867
     28  CB         6.1650   19.7480   13.4980 C.3     9  ILE9        0.0252
     29  CG1        7.2740   18.6820   13.4940 C.3     9  ILE9        0.0019
     30  CG2        6.2410   20.5570   14.8010 C.3     9  ILE9        0.0019
     31  CD1        8.6080   19.2290   13.0790 C.3     9  ILE9        0.0001
     32  N          6.6580   24.9580   12.9790 N.3    17  ALA17      -0.1231
     33  CA         7.7780   24.0210   12.8730 C.3    17  ALA17       0.1694
     34  C          9.1100   24.6320   13.3480 C.2    17  ALA17       0.2591
     35  O          9.9810   23.9240   13.8670 O.2    17  ALA17      -0.2718
     36  CB         7.9130   23.5210   11.4450 C.3    17  ALA17       0.0304
     37  N          9.2420   25.9490   13.1940 N.am   18  LEU18      -0.1980
     38  CA        10.4430   26.6720   13.6100 C.3    18  LEU18       0.1596
     39  C         10.6300   26.7240   15.1370 C.2    18  LEU18       0.2287
     40  O         11.7330   27.0110   15.6030 O.2    18  LEU18      -0.2864
     41  CB        10.4270   28.0940   13.0440 C.3    18  LEU18       0.0297
     42  CG        10.2920   28.2210   11.5210 C.3    18  LEU18       0.0022
     43  CD1       10.2750   29.6900   11.1230 C.3    18  LEU18       0.0001
     44  CD2       11.4050   27.4650   10.8080 C.3    18  LEU18       0.0001
     45  N         10.3810   24.0410   16.8950 N.3    20  TYR20      -0.1227
     46  CA        11.0900   22.8070   17.1980 C.3    20  TYR20       0.1736
     47  C         12.5260   22.7970   16.6450 C.2    20  TYR20       0.2595
     48  O         13.3930   22.1690   17.2470 O.2    20  TYR20      -0.2718
     49  CB        10.2560   21.5970   16.7860 C.3    20  TYR20       0.0548
     50  CG         9.1070   21.3640   17.7450 C.ar   20  TYR20      -0.0200
     51  CD1        9.2740   20.5670   18.8790 C.ar   20  TYR20      -0.0009
     52  CD2        7.8640   21.9660   17.5430 C.ar   20  TYR20      -0.0009
     53  CE1        8.2350   20.3630   19.7710 C.ar   20  TYR20       0.0417
     54  CE2        6.8110   21.7550   18.4260 C.ar   20  TYR20       0.0417
     55  CZ         7.0040   20.9630   19.5470 C.ar   20  TYR20       0.1957
     56  OH         5.9760   20.7370   20.4330 O.3    20  TYR20      -0.2866
     57  N         12.8070   23.5230   15.5610 N.am   21  ASN21      -0.1974
     58  CA        14.2040   23.7390   15.1430 C.3    21  ASN21       0.1688
     59  C         15.0630   24.4240   16.2220 C.2    21  ASN21       0.2292
     60  O         14.6620   25.4230   16.8290 O.2    21  ASN21      -0.2864
     61  CB        14.2670   24.5850   13.8610 C.3    21  ASN21       0.1181
     62  CG        15.6950   24.7780   13.3530 C.2    21  ASN21       0.2629
     63  OD1       16.0690   25.8680   12.9120 O.2    21  ASN21      -0.2716
     64  ND2       16.5040   23.7200   13.4300 N.am   21  ASN21      -0.0877
     65  N         19.2320   18.5290   20.7300 N.3    26  TYR26      -0.1227
     66  CA        19.0390   17.6000   19.6120 C.3    26  TYR26       0.1736
     67  C         18.0910   18.0260   18.4940 C.2    26  TYR26       0.2596
     68  O         18.2300   17.5140   17.3970 O.2    26  TYR26      -0.2718
     69  CB        18.6400   16.2110   20.1340 C.3    26  TYR26       0.0548
     70  CG        19.8170   15.5440   20.7540 C.ar   26  TYR26      -0.0200
     71  CD1       20.6970   14.7950   19.9780 C.ar   26  TYR26      -0.0009
     72  CD2       20.1100   15.7290   22.0960 C.ar   26  TYR26      -0.0009
     73  CE1       21.8210   14.2060   20.5340 C.ar   26  TYR26       0.0417
     74  CE2       21.2300   15.1490   22.6620 C.ar   26  TYR26       0.0417
     75  CZ        22.0840   14.3890   21.8740 C.ar   26  TYR26       0.1957
     76  OH        23.1940   13.8010   22.4170 O.3    26  TYR26      -0.2866
     77  N         17.1380   18.9190   18.7360 N.am   27  CYS27      -0.1956
     78  CA        16.2240   19.3130   17.6540 C.3    27  CYS27       0.1843
     79  C         16.9140   20.2820   16.6860 C.2    27  CYS27       0.2626
     80  O         17.3220   21.3760   17.0690 O.2    27  CYS27      -0.2714
     81  CB        14.9500   19.9180   18.2030 C.3    27  CYS27       0.0997
     82  SG        14.1100   18.8970   19.4210 S.3    27  CYS27      -0.0797
     83  N         17.0110   19.8820   15.4260 N.am   28  GLY28      -0.1940
     84  CA        17.8140   20.6000   14.4310 C.3    28  GLY28       0.2014
     85  C         18.8750   19.6620   13.9120 C.2    28  GLY28       0.2639
     86  O         18.8990   18.4930   14.2890 O.2    28  GLY28      -0.2714
     87  N         19.7480   20.1480   13.0440 N.am   29  ILE29      -0.1963
     88  CA        20.7740   19.2820   12.4550 C.3    29  ILE29       0.1727
     89  C         21.8420   18.9240   13.5100 C.2    29  ILE29       0.2616
     90  O         22.3650   19.7940   14.2010 O.2    29  ILE29      -0.2715
     91  CB        21.4120   19.9180   11.1940 C.3    29  ILE29       0.0290
     92  CG1       20.3440   20.0920   10.0960 C.3    29  ILE29       0.0022
     93  CG2       22.5560   19.0450   10.6730 C.3    29  ILE29       0.0023
     94  CD1       20.7480   21.0070    8.9490 C.3    29  ILE29       0.0001
     95  N         22.1290   17.6310   13.6340 N.am   30  GLY30      -0.1955
     96  CA        23.1570   17.1300   14.5490 C.3    30  GLY30       0.1869
     97  C         22.6820   17.0990   15.9870 C.2    30  GLY30       0.2309
     98  O         21.4850   17.0210   16.2590 O.2    30  GLY30      -0.2863
     99  N         13.7680   14.3020   19.7320 N.3    43  CYS43      -0.1235
    100  CA        14.7270   14.6340   18.6760 C.3    43  CYS43       0.1677
    101  C         15.9430   13.7130   18.6500 C.2    43  CYS43       0.2270
    102  O         16.3840   13.2980   17.5760 O.2    43  CYS43      -0.2867
    103  CB        15.1460   16.1000   18.7740 C.3    43  CYS43       0.0956
    104  SG        13.7480   17.1910   18.4080 S.3    43  CYS43      -0.0801
    105  N         14.6440   10.6290   16.9900 N.3    46  HIS46      -0.1226
    106  CA        14.4340   10.8970   15.5700 C.3    46  HIS46       0.1752
    107  C         15.7640   10.8750   14.7820 C.2    46  HIS46       0.2596
    108  O         15.8160   10.3110   13.6990 O.2    46  HIS46      -0.2718
    109  CB        13.7100   12.2350   15.4300 C.3    46  HIS46       0.0759
    110  CG        13.3120   12.5770   14.0340 C.ar   46  HIS46       0.0818
    111  ND1       13.9880   13.5030   13.2680 N.ar   46  HIS46      -0.2268
    112  CD2       12.3050   12.1180   13.2600 C.ar   46  HIS46       0.1154
    113  CE1       13.4200   13.5910   12.0800 C.ar   46  HIS46       0.1986
    114  NE2       12.3890   12.7700   12.0560 N.ar   46  HIS46      -0.2212
    115  N         16.8280   11.4560   15.3400 N.am   47  ASP47      -0.1974
    116  CA        18.1750   11.3420   14.7630 C.3    47  ASP47       0.1709
    117  C         18.6100    9.8810   14.6400 C.2    47  ASP47       0.2293
    118  O         19.1290    9.4750   13.5990 O.2    47  ASP47      -0.2864
    119  CB        19.2050   12.0860   15.6140 C.3    47  ASP47       0.1436
    120  CG        19.0780   13.5970   15.5230 C.2    47  ASP47       0.3671
    121  OD1       18.2690   14.1380   14.7250 O.co2  47  ASP47      -0.2456
    122  OD2       19.8000   14.2750   16.2740 O.co2  47  ASP47      -0.2456
    123  N         16.6210    8.3040   11.8180 N.3    50  TYR50      -0.1241
    124  CA        17.2470    8.6160   10.5300 C.3    50  TYR50       0.1605
    125  C         18.5430    7.8300   10.2850 C.2    50  TYR50       0.2264
    126  O         18.7840    7.3770    9.1630 O.2    50  TYR50      -0.2867
    127  CB        17.4620   10.1230   10.3570 C.3    50  TYR50       0.0534
    128  CG        16.2480   10.9050    9.8270 C.ar   50  TYR50      -0.0201
    129  CD1       14.9260   10.4470    9.9740 C.ar   50  TYR50      -0.0009
    130  CD2       16.4400   12.1330    9.2180 C.ar   50  TYR50      -0.0009
    131  CE1       13.8460   11.2020    9.5090 C.ar   50  TYR50       0.0417
    132  CE2       15.3770   12.8880    8.7420 C.ar   50  TYR50       0.0417
    133  CZ        14.0820   12.4310    8.8860 C.ar   50  TYR50       0.1957
    134  OH        13.0580   13.2350    8.3930 O.3    50  TYR50      -0.2866
    135  N         19.4200    5.5260    7.0510 N.3    54  GLU54      -0.1245
    136  CA        20.6530    5.6590    6.2830 C.3    54  GLU54       0.1567
    137  C         21.3520    4.2960    6.1570 C.2    54  GLU54       0.2260
    138  O         21.7600    3.9100    5.0610 O.2    54  GLU54      -0.2867
    139  CB        21.5820    6.7470    6.8800 C.3    54  GLU54       0.0388
    140  CG        21.0960    8.1460    6.5430 C.3    54  GLU54       0.1160
    141  CD        21.7960    9.2820    7.2680 C.2    54  GLU54       0.3649
    142  OE1       22.7580    9.0620    8.0260 O.co2  54  GLU54      -0.2457
    143  OE2       21.3460   10.4360    7.0820 O.co2  54  GLU54      -0.2457
    144  N         17.0270   12.5240    4.9960 N.3    61  LYS61      -0.1245
    145  CA        17.0820   13.9840    4.9350 C.3    61  LYS61       0.1561
    146  C         16.5130   14.5330    3.6470 C.2    61  LYS61       0.2260
    147  O         16.1040   15.6780    3.6260 O.2    61  LYS61      -0.2867
    148  CB        18.5100   14.5090    5.0940 C.3    61  LYS61       0.0271
    149  CG        19.1010   14.2520    6.4690 C.3    61  LYS61       0.0035
    150  CD        20.5420   14.7440    6.5760 C.3    61  LYS61       0.0206
    151  CE        21.3950   13.7780    7.3780 C.3    61  LYS61       0.1093
    152  NZ        22.6420   14.4090    7.8860 N.3    61  LYS61      -0.1314
    153  N          6.3900   14.7580   20.1720 N.3    97  PHE97      -0.1241
    154  CA         6.2430   16.1870   20.4350 C.3    97  PHE97       0.1605
    155  C          4.8810   16.4970   21.0650 C.2    97  PHE97       0.2264
    156  O          4.8300   17.1670   22.0980 O.2    97  PHE97      -0.2867
    157  CB         6.4120   17.0370   19.1610 C.3    97  PHE97       0.0534
    158  CG         7.8050   17.0450   18.5750 C.ar   97  PHE97      -0.0203
    159  CD1        8.9490   16.7390   19.3270 C.ar   97  PHE97      -0.0042
    160  CD2        7.9770   17.4450   17.2500 C.ar   97  PHE97      -0.0042
    161  CE1       10.2040   16.7910   18.7470 C.ar   97  PHE97      -0.0003
    162  CE2        9.2310   17.5080   16.6780 C.ar   97  PHE97      -0.0003
    163  CZ        10.3450   17.1740   17.4270 C.ar   97  PHE97      -0.0000
@<TRIPOS>BOND
     1   147   146    2
     2   146   145    1
     3     1     2    1
     4   145   144    1
     5   145   148    1
     6   138   137    2
     7   148   149    1
     8     3     2    1
     9     3     4    2
    10     2     5    1
    11   137   136    1
    12   136   139    1
    13   136   135    1
    14     5     6    1
    15   149   150    1
    16   140   139    1
    17   140   141    1
    18   150   151    1
    19     8     6    1
    20     7     6    1
    21     9    10    1
    22   143   141   ar
    23   141   142   ar
    24   151   152    1
    25   134   133    1
    26    10    13    1
    27    10    11    1
    28   132   133   ar
    29   132   130   ar
    30    20    11   am
    31    20    21    1
    32   133   131   ar
    33    13    14    1
    34    94    92    1
    35   126   125    2
    36   130   128   ar
    37    11    12    2
    38    21    22    1
    39    22    23    2
    40   131   129   ar
    41   128   129   ar
    42   128   127    1
    43    92    91    1
    44   125   124    1
    45   127   124    1
    46    14    16   ar
    47    14    15   ar
    48   124   123    1
    49    93    91    1
    50    44    42    1
    51    16    18   ar
    52    43    42    1
    53    15    17   ar
    54    91    88    1
    55    36    33    1
    56    42    41    1
    57    24    25    1
    58   114   113   ar
    59   114   112   ar
    60   113   111   ar
    61    18    19   ar
    62    88    87    1
    63    88    89    1
    64    17    19   ar
    65    33    32    1
    66    33    34    1
    67    63    62    2
    68    87    85   am
    69    41    38    1
    70    31    29    1
    71    37    34   am
    72    37    38    1
    73   112   110   ar
    74   111   110   ar
    75    34    35    2
    76    25    28    1
    77    25    26    1
    78    62    64   am
    79    62    61    1
    80    29    28    1
    81    28    30    1
    82    89    95   am
    83    89    90    2
    84   118   117    2
    85    38    39    1
    86    95    96    1
    87    26    27    2
    88   108   107    2
    89    61    58    1
    90    85    86    2
    91    85    84    1
    92   110   109    1
    93    84    83    1
    94    96    97    1
    95   117   116    1
    96   121   120   ar
    97   116   115    1
    98   116   119    1
    99   107   115   am
   100   107   106    1
   101    39    40    2
   102    58    57    1
   103    58    59    1
   104    83    79   am
   105   109   106    1
   106   120   119    1
   107   120   122   ar
   108    57    47   am
   109   106   105    1
   110    97    98    2
   111    59    60    2
   112    47    46    1
   113    47    48    2
   114   162   160   ar
   115   162   163   ar
   116    79    80    2
   117    79    78    1
   118    49    46    1
   119    49    50    1
   120    45    46    1
   121   160   158   ar
   122    68    67    2
   123   163   161   ar
   124    52    50   ar
   125    52    54   ar
   126   102   101    2
   127    78    81    1
   128    78    77    1
   129    50    51   ar
   130    81    82    1
   131   104   103    1
   132   104    82    1
   133    54    55   ar
   134    67    77   am
   135    67    66    1
   136   158   157    1
   137   158   159   ar
   138   101   100    1
   139   100   103    1
   140   100    99    1
   141   161   159   ar
   142    51    53   ar
   143   157   154    1
   144    55    53   ar
   145    55    56    1
   146    66    69    1
   147    66    65    1
   148    71    73   ar
   149    71    70   ar
   150    69    70    1
   151   153   154    1
   152   154   155    1
   153    73    75   ar
   154    70    72   ar
   155   155   156    2
   156    75    76    1
   157    75    74   ar
   158    72    74   ar
