@<TRIPOS>MOLECULE
tmp/5wzxA00.pdb
 224 215 0 0 0
SMALL
GASTEIGER

@<TRIPOS>ATOM
      1  N         94.0340  102.9220   54.1180 N.3    30  LEU30      -0.1245
      2  CA        94.0130  101.6750   54.8670 C.3    30  LEU30       0.1561
      3  C         94.6860  100.5930   53.9780 C.2    30  LEU30       0.2260
      4  O         95.7540  100.8530   53.4110 O.2    30  LEU30      -0.2867
      5  CB        92.5580  101.3520   55.3090 C.3    30  LEU30       0.0270
      6  CG        92.3300  100.4080   56.5390 C.3    30  LEU30       0.0019
      7  CD1       92.0810  101.0950   57.8970 C.3    30  LEU30       0.0001
      8  CD2       91.1710   99.4680   56.2380 C.3    30  LEU30       0.0001
      9  N         93.3570   99.6440   51.1530 N.3    32  LEU32      -0.1231
     10  CA        93.0900  100.1610   49.8010 C.3    32  LEU32       0.1693
     11  C         94.3080  100.8330   49.1620 C.2    32  LEU32       0.2592
     12  O         94.5240  100.7560   47.9410 O.2    32  LEU32      -0.2718
     13  CB        91.9270  101.1470   49.8470 C.3    32  LEU32       0.0284
     14  CG        90.5480  100.5980   50.2320 C.3    32  LEU32       0.0019
     15  CD1       89.5480  101.7310   50.4460 C.3    32  LEU32       0.0001
     16  CD2       90.0390   99.6470   49.1630 C.3    32  LEU32       0.0001
     17  N         95.1030  101.4780   50.0070 N.am   33  THR33      -0.1953
     18  CA        96.4020  102.0420   49.6190 C.3    33  THR33       0.1897
     19  C         97.4380  100.9770   49.2010 C.2    33  THR33       0.2313
     20  O         98.1400  101.1480   48.1950 O.2    33  THR33      -0.2863
     21  CB        96.9600  102.9000   50.7730 C.3    33  THR33       0.1794
     22  OG1       95.8720  103.5220   51.4900 O.3    33  THR33      -0.2208
     23  CG2       97.8840  103.9520   50.2360 C.3    33  THR33       0.0378
     24  N         96.7090   97.8790   47.9820 N.3    35  MET35      -0.1230
     25  CA        96.1980   97.4990   46.6640 C.3    35  MET35       0.1702
     26  C         96.6240   98.5030   45.5810 C.2    35  MET35       0.2592
     27  O         97.3050   98.1300   44.6150 O.2    35  MET35      -0.2718
     28  CB        94.6690   97.3920   46.6830 C.3    35  MET35       0.0401
     29  CG        94.0410   97.3020   45.2890 C.3    35  MET35       0.0596
     30  SD        92.2920   96.8830   45.1990 S.3    35  MET35      -0.1393
     31  CE        91.5330   98.2570   46.0520 C.3    35  MET35       0.0692
     32  N         96.2160   99.7660   45.7420 N.am   36  ALA36      -0.1980
     33  CA        96.5800  100.8450   44.8000 C.3    36  ALA36       0.1597
     34  C         98.0680  100.8130   44.5060 C.2    36  ALA36       0.2287
     35  O         98.4910  100.8360   43.3500 O.2    36  ALA36      -0.2864
     36  CB        96.1950  102.2120   45.3580 C.3    36  ALA36       0.0319
     37  N         99.1290   97.7250   42.5590 N.3    39  HIS39      -0.1241
     38  CA        98.7620   97.9550   41.1590 C.3    39  HIS39       0.1621
     39  C         99.8340   98.6990   40.3780 C.2    39  HIS39       0.2264
     40  O        100.3070   98.2090   39.3580 O.2    39  HIS39      -0.2867
     41  CB        97.4490   98.7130   41.0230 C.3    39  HIS39       0.0745
     42  CG        96.2270   97.8800   41.2290 C.ar   39  HIS39       0.0817
     43  ND1       96.1780   96.5260   40.9740 N.ar   39  HIS39      -0.2268
     44  CD2       94.9840   98.2280   41.6410 C.ar   39  HIS39       0.1154
     45  CE1       94.9690   96.0720   41.2520 C.ar   39  HIS39       0.1986
     46  NE2       94.2240   97.0850   41.6560 N.ar   39  HIS39      -0.2212
     47  N         94.6480  104.7010   35.2090 N.3    70  VAL70      -0.1245
     48  CA        93.2540  104.4650   35.6110 C.3    70  VAL70       0.1561
     49  C         92.6120  103.2790   34.8570 C.2    70  VAL70       0.2260
     50  O         91.7680  102.5380   35.3890 O.2    70  VAL70      -0.2867
     51  CB        92.3870  105.7390   35.4610 C.3    70  VAL70       0.0252
     52  CG1       92.2260  106.1240   34.0070 C.3    70  VAL70       0.0019
     53  CG2       91.0260  105.5530   36.1020 C.3    70  VAL70       0.0019
     54  N         94.3820   99.9090   36.0660 N.3    73  MET73      -0.1230
     55  CA        93.9440   99.5290   37.3880 C.3    73  MET73       0.1702
     56  C         92.5380   98.9170   37.4040 C.2    73  MET73       0.2592
     57  O         92.3010   97.9470   38.1340 O.2    73  MET73      -0.2718
     58  CB        94.0270  100.7250   38.3270 C.3    73  MET73       0.0401
     59  CG        95.4460  101.1420   38.6840 C.3    73  MET73       0.0596
     60  SD        95.5210  102.0520   40.2470 S.3    73  MET73      -0.1393
     61  CE        96.6080  103.3630   39.7090 C.3    73  MET73       0.0692
     62  N         91.6200   99.4840   36.6150 N.am   74  PHE74      -0.1976
     63  CA        90.2900   98.8650   36.3730 C.3    74  PHE74       0.1639
     64  C         90.4340   97.4810   35.7590 C.2    74  PHE74       0.2290
     65  O         89.7450   96.5430   36.1650 O.2    74  PHE74      -0.2864
     66  CB        89.4130   99.7300   35.4630 C.3    74  PHE74       0.0560
     67  CG        88.5470  100.6850   36.2070 C.ar   74  PHE74      -0.0200
     68  CD1       87.3360  100.2590   36.7410 C.ar   74  PHE74      -0.0042
     69  CD2       88.9300  102.0070   36.4010 C.ar   74  PHE74      -0.0042
     70  CE1       86.5120  101.1430   37.4330 C.ar   74  PHE74      -0.0003
     71  CE2       88.1080  102.9010   37.0900 C.ar   74  PHE74      -0.0003
     72  CZ        86.9020  102.4700   37.6090 C.ar   74  PHE74      -0.0000
     73  N         92.3510   95.1610   38.4410 N.3    77  SER77      -0.1217
     74  CA        91.3380   94.8580   39.4520 C.3    77  SER77       0.1889
     75  C         90.4300   93.7780   38.9270 C.2    77  SER77       0.2288
     76  O         90.2480   92.7640   39.5810 O.2    77  SER77      -0.2866
     77  CB        90.4900   96.0720   39.8210 C.3    77  SER77       0.2089
     78  OG        91.2700   97.0250   40.5020 O.3    77  SER77      -0.2183
     79  N         89.5160   90.4250   41.0820 N.3    81  PHE81      -0.1241
     80  CA        88.2700   90.3230   41.9070 C.3    81  PHE81       0.1605
     81  C         86.9530   89.9680   41.1680 C.2    81  PHE81       0.2264
     82  O         85.8470   90.2640   41.6640 O.2    81  PHE81      -0.2867
     83  CB        88.0530   91.6020   42.7190 C.3    81  PHE81       0.0534
     84  CG        89.2890   92.0960   43.4030 C.ar   81  PHE81      -0.0203
     85  CD1       89.8470   91.3780   44.4530 C.ar   81  PHE81      -0.0042
     86  CD2       89.9090   93.2790   42.9880 C.ar   81  PHE81      -0.0042
     87  CE1       90.9940   91.8300   45.0800 C.ar   81  PHE81      -0.0003
     88  CE2       91.0550   93.7320   43.6120 C.ar   81  PHE81      -0.0003
     89  CZ        91.5960   93.0070   44.6590 C.ar   81  PHE81      -0.0000
     90  N         82.5800   95.9770   48.4400 N.3    89  GLU89      -0.1245
     91  CA        83.4970   97.1320   48.4200 C.3    89  GLU89       0.1567
     92  C         83.5170   97.9940   49.6590 C.2    89  GLU89       0.2260
     93  O         82.5630   98.0770   50.4330 O.2    89  GLU89      -0.2867
     94  CB        83.2850   98.0080   47.1920 C.3    89  GLU89       0.0388
     95  CG        83.7350   97.3050   45.9270 C.3    89  GLU89       0.1160
     96  CD        82.5830   96.6530   45.1820 C.2    89  GLU89       0.3649
     97  OE1       81.4720   97.2320   45.1490 O.co2  89  GLU89      -0.2457
     98  OE2       82.7670   95.5280   44.6570 O.co2  89  GLU89      -0.2457
     99  N         84.4380  101.2700   49.5030 N.3    91  ILE91      -0.1245
    100  CA        84.6700  102.5960   48.8920 C.3    91  ILE91       0.1561
    101  C         83.5720  103.6180   49.2180 C.2    91  ILE91       0.2260
    102  O         83.8320  104.8290   49.2470 O.2    91  ILE91      -0.2867
    103  CB        84.9020  102.4550   47.3570 C.3    91  ILE91       0.0252
    104  CG1       86.1640  101.6140   47.1100 C.3    91  ILE91       0.0019
    105  CG2       85.0590  103.8170   46.6730 C.3    91  ILE91       0.0019
    106  CD1       86.2760  101.0360   45.7310 C.3    91  ILE91       0.0001
    107  N         84.9540  104.5100   52.5540 N.3    94  SER94      -0.1217
    108  CA        86.1300  105.3550   52.3780 C.3    94  SER94       0.1889
    109  C         85.8380  106.8610   52.1350 C.2    94  SER94       0.2288
    110  O         86.7660  107.6420   51.9810 O.2    94  SER94      -0.2866
    111  CB        86.9320  104.8270   51.2070 C.3    94  SER94       0.2089
    112  OG        86.2890  105.1740   49.9880 O.3    94  SER94      -0.2183
    113  N         83.9930  108.5240   49.6540 N.3    96  ILE96      -0.1245
    114  CA        83.9640  109.0000   48.2890 C.3    96  ILE96       0.1561
    115  C         82.5510  109.4350   48.0130 C.2    96  ILE96       0.2260
    116  O         81.6180  108.6570   48.2360 O.2    96  ILE96      -0.2867
    117  CB        84.3240  107.8760   47.2930 C.3    96  ILE96       0.0252
    118  CG1       85.7930  107.4780   47.4220 C.3    96  ILE96       0.0019
    119  CG2       84.0510  108.2880   45.8470 C.3    96  ILE96       0.0019
    120  CD1       86.7820  108.4970   46.8880 C.3    96  ILE96       0.0001
    121  N         81.3660  104.5760   38.4260 N.3   104  MET104     -0.1230
    122  CA        82.6350  103.9160   38.2050 C.3   104  MET104      0.1702
    123  C         82.5170  102.4300   38.4080 C.2   104  MET104      0.2592
    124  O         83.3570  101.6890   37.9380 O.2   104  MET104     -0.2718
    125  CB        83.7520  104.5400   39.0410 C.3   104  MET104      0.0401
    126  CG        83.8370  104.1140   40.4830 C.3   104  MET104      0.0596
    127  SD        85.3160  104.8540   41.1920 S.3   104  MET104     -0.1393
    128  CE        85.3160  103.9310   42.7400 C.3   104  MET104      0.0692
    129  N         81.4630  101.9860   39.0770 N.am  105  PHE105     -0.1976
    130  CA        81.1670  100.5510   39.1240 C.3   105  PHE105      0.1639
    131  C         80.4410   99.9900   37.9130 C.2   105  PHE105      0.2290
    132  O         80.6770   98.8320   37.5740 O.2   105  PHE105     -0.2864
    133  CB        80.4870  100.1780   40.4260 C.3   105  PHE105      0.0560
    134  CG        81.4630   99.9950   41.5150 C.ar  105  PHE105     -0.0200
    135  CD1       81.6330  100.9600   42.4910 C.ar  105  PHE105     -0.0042
    136  CD2       82.3000   98.8890   41.4980 C.ar  105  PHE105     -0.0042
    137  CE1       82.5890  100.7980   43.4770 C.ar  105  PHE105     -0.0003
    138  CE2       83.2460   98.7180   42.4830 C.ar  105  PHE105     -0.0003
    139  CZ        83.3930   99.6800   43.4730 C.ar  105  PHE105     -0.0000
    140  N         83.2170   98.8950   35.9710 N.3   108  TYR108     -0.1241
    141  CA        83.8350   97.6940   36.5230 C.3   108  TYR108      0.1605
    142  C         83.0850   96.4270   36.1160 C.2   108  TYR108      0.2264
    143  O         83.6970   95.4910   35.5920 O.2   108  TYR108     -0.2867
    144  CB        83.9750   97.7930   38.0530 C.3   108  TYR108      0.0534
    145  CG        84.9000   96.7460   38.6480 C.ar  108  TYR108     -0.0201
    146  CD1       86.2430   96.6670   38.2550 C.ar  108  TYR108     -0.0009
    147  CD2       84.4390   95.8430   39.5980 C.ar  108  TYR108     -0.0009
    148  CE1       87.0890   95.7130   38.7880 C.ar  108  TYR108      0.0417
    149  CE2       85.2740   94.8830   40.1310 C.ar  108  TYR108      0.0417
    150  CZ        86.5980   94.8260   39.7270 C.ar  108  TYR108      0.1957
    151  OH        87.4320   93.8870   40.2660 O.3   108  TYR108     -0.2866
    152  N         87.4690  111.0430   37.4200 N.3   186  HIS186     -0.1241
    153  CA        88.3270  110.3130   38.3610 C.3   186  HIS186      0.1621
    154  C         89.2630  111.2820   39.0970 C.2   186  HIS186      0.2264
    155  O         89.4440  111.1720   40.3000 O.2   186  HIS186     -0.2867
    156  CB        89.1500  109.2770   37.6000 C.3   186  HIS186      0.0745
    157  CG        89.8310  108.2680   38.4680 C.ar  186  HIS186      0.0817
    158  ND1       91.1480  108.3810   38.8530 N.ar  186  HIS186     -0.2268
    159  CD2       89.3870  107.0990   38.9860 C.ar  186  HIS186      0.1154
    160  CE1       91.4830  107.3230   39.5700 C.ar  186  HIS186      0.1986
    161  NE2       90.4330  106.5270   39.6620 N.ar  186  HIS186     -0.2212
    162  N         87.0510  112.9210   41.5510 N.3   189  MET189     -0.1230
    163  CA        86.7690  111.8630   42.5280 C.3   189  MET189      0.1702
    164  C         87.8630  111.7590   43.5710 C.2   189  MET189      0.2592
    165  O         87.5720  111.6560   44.7390 O.2   189  MET189     -0.2718
    166  CB        86.6090  110.5170   41.8260 C.3   189  MET189      0.0401
    167  CG        86.2320  109.3610   42.7370 C.3   189  MET189      0.0596
    168  SD        87.3720  107.9710   42.6210 S.3   189  MET189     -0.1393
    169  CE        88.7170  108.6970   43.5290 C.3   189  MET189      0.0692
    170  N         89.1180  111.7800   43.1300 N.am  190  LEU190     -0.1980
    171  CA        90.2940  111.6960   44.0130 C.3   190  LEU190      0.1596
    172  C         90.4610  112.9890   44.8070 C.2   190  LEU190      0.2287
    173  O         90.6060  112.9620   46.0290 O.2   190  LEU190     -0.2864
    174  CB        91.5820  111.4690   43.1980 C.3   190  LEU190      0.0297
    175  CG        91.7820  110.2690   42.2440 C.3   190  LEU190      0.0022
    176  CD1       92.7940  110.6060   41.1510 C.3   190  LEU190      0.0001
    177  CD2       92.2050  108.9850   42.9620 C.3   190  LEU190      0.0001
    178  N         88.2360  113.0560   47.7440 N.3   193  TRP193     -0.1241
    179  CA        88.6930  112.3410   48.9610 C.3   193  TRP193      0.1605
    180  C         89.8850  112.9920   49.6800 C.2   193  TRP193      0.2264
    181  O         90.1140  112.7360   50.8650 O.2   193  TRP193     -0.2867
    182  CB        89.1030  110.9310   48.5930 C.3   193  TRP193      0.0550
    183  CG        89.4880  110.0440   49.7430 C.ar  193  TRP193      0.0003
    184  CD1       88.6410  109.3870   50.5680 C.ar  193  TRP193      0.0946
    185  CD2       90.8140  109.6960   50.1720 C.ar  193  TRP193      0.0152
    186  NE1       89.3400  108.6430   51.4940 N.ar  193  TRP193     -0.2442
    187  CE2       90.6790  108.8140   51.2740 C.ar  193  TRP193      0.0810
    188  CE3       92.1000  110.0460   49.7410 C.ar  193  TRP193      0.0012
    189  CZ2       91.7850  108.2690   51.9500 C.ar  193  TRP193      0.0191
    190  CZ3       93.2140  109.5010   50.4190 C.ar  193  TRP193      0.0001
    191  CH2       93.0410  108.6180   51.5080 C.ar  193  TRP193      0.0015
    192  N         97.6250  110.6550   50.2890 N.3   200  PHE200     -0.1241
    193  CA        98.1390  109.5870   49.4640 C.3   200  PHE200      0.1605
    194  C         99.6400  109.3730   49.6790 C.2   200  PHE200      0.2264
    195  O        100.3610  110.2850   50.0710 O.2   200  PHE200     -0.2867
    196  CB        97.9440  109.9460   48.0030 C.3   200  PHE200      0.0534
    197  CG        96.5220  110.0340   47.5830 C.ar  200  PHE200     -0.0203
    198  CD1       95.8700  108.9170   47.0860 C.ar  200  PHE200     -0.0042
    199  CD2       95.8360  111.2360   47.6500 C.ar  200  PHE200     -0.0042
    200  CE1       94.5500  108.9910   46.6760 C.ar  200  PHE200     -0.0003
    201  CE2       94.5150  111.3150   47.2350 C.ar  200  PHE200     -0.0003
    202  CZ        93.8690  110.1910   46.7480 C.ar  200  PHE200     -0.0000
    203  N        101.5540  107.3460   44.8650 N.3   204  LEU204     -0.1245
    204  CA       100.1830  107.5330   44.3620 C.3   204  LEU204      0.1561
    205  C         99.8640  108.9720   43.9480 C.2   204  LEU204      0.2260
    206  O         98.9270  109.2050   43.1790 O.2   204  LEU204     -0.2867
    207  CB        99.1590  107.0470   45.3830 C.3   204  LEU204      0.0270
    208  CG        99.1540  105.5410   45.6600 C.3   204  LEU204      0.0019
    209  CD1       98.2010  105.2440   46.7970 C.3   204  LEU204      0.0001
    210  CD2       98.7570  104.7260   44.4390 C.3   204  LEU204      0.0001
    211  N         98.9310  109.6160   39.8610 N.3   208  TRP208     -0.1241
    212  CA        97.6940  110.3620   39.6210 C.3   208  TRP208      0.1605
    213  C         97.8710  111.8640   39.4160 C.2   208  TRP208      0.2264
    214  O         96.8910  112.5530   39.1710 O.2   208  TRP208     -0.2867
    215  CB        96.7200  110.0870   40.7660 C.3   208  TRP208      0.0550
    216  CG        96.2370  108.6910   40.7450 C.ar  208  TRP208      0.0003
    217  CD1       95.9620  107.9370   39.6330 C.ar  208  TRP208      0.0946
    218  CD2       95.9350  107.8600   41.8650 C.ar  208  TRP208      0.0152
    219  NE1       95.5150  106.7000   39.9940 N.ar  208  TRP208     -0.2442
    220  CE2       95.4850  106.6270   41.3600 C.ar  208  TRP208      0.0810
    221  CE3       95.9940  108.0340   43.2400 C.ar  208  TRP208      0.0012
    222  CZ2       95.1050  105.5890   42.1820 C.ar  208  TRP208      0.0191
    223  CZ3       95.6230  107.0040   44.0420 C.ar  208  TRP208      0.0001
    224  CH2       95.1900  105.7940   43.5150 C.ar  208  TRP208      0.0015
@<TRIPOS>BOND
     1    52    51    1
     2    49    50    2
     3    49    48    1
     4    47    48    1
     5    51    48    1
     6    51    53    1
     7    66    67    1
     8    66    63    1
     9   143   142    2
    10    64    65    2
    11    64    63    1
    12   140   141    1
    13    54    55    1
    14   142   141    1
    15    67    69   ar
    16    67    68   ar
    17    63    62    1
    18    69    71   ar
    19   141   144    1
    20    62    56   am
    21    68    70   ar
    22    71    72   ar
    23    55    56    1
    24    55    58    1
    25    56    57    2
    26   152   153    1
    27    70    72   ar
    28   132   131    2
    29   156   153    1
    30   156   157    1
    31   131   130    1
    32   124   123    2
    33   144   145    1
    34   122   123    1
    35   122   121    1
    36   122   125    1
    37   146   145   ar
    38   146   148   ar
    39    58    59    1
    40   153   154    1
    41   123   129   am
    42    73    74    1
    43   157   158   ar
    44   157   159   ar
    45   145   147   ar
    46    59    60    1
    47   148   150   ar
    48   158   160   ar
    49    75    74    1
    50    75    76    2
    51   159   161   ar
    52   125   126    1
    53   129   130    1
    54   154   155    2
    55   130   133    1
    56   214   213    2
    57    40    39    2
    58   213   212    1
    59    74    77    1
    60   160   161   ar
    61   147   149   ar
    62   212   211    1
    63   212   215    1
    64   217   219   ar
    65   217   216   ar
    66    61    60    1
    67   150   149   ar
    68   150   151    1
    69    77    78    1
    70   219   220   ar
    71    39    38    1
    72   133   134    1
    73   126   127    1
    74   216   215    1
    75   216   218   ar
    76    43    42   ar
    77    43    45   ar
    78    41    38    1
    79    41    42    1
    80    79    80    1
    81   176   175    1
    82    38    37    1
    83    81    82    2
    84    81    80    1
    85   127   128    1
    86    42    44   ar
    87    45    46   ar
    88   220   218   ar
    89   220   222   ar
    90   136   134   ar
    91   136   138   ar
    92   134   135   ar
    93   162   163    1
    94    44    46   ar
    95   166   163    1
    96   166   167    1
    97   218   221   ar
    98    80    83    1
    99   222   224   ar
   100   175   177    1
   101   175   174    1
   102   138   139   ar
   103   135   137   ar
   104   163   164    1
   105   168   167    1
   106   168   169    1
   107    83    84    1
   108    86    84   ar
   109    86    88   ar
   110   170   164   am
   111   170   171    1
   112   206   205    2
   113   174   171    1
   114   221   223   ar
   115    35    34    2
   116    84    85   ar
   117   139   137   ar
   118   224   223   ar
   119   164   165    2
   120    88    89   ar
   121   205   204    1
   122   171   172    1
   123   204   203    1
   124   204   207    1
   125   210   208    1
   126    85    87   ar
   127    34    33    1
   128    27    26    2
   129    98    96   ar
   130    89    87   ar
   131    33    36    1
   132    33    32    1
   133   172   173    2
   134    97    96   ar
   135    96    95    1
   136    30    29    1
   137    30    31    1
   138    29    28    1
   139   207   208    1
   140    26    32   am
   141    26    25    1
   142   208   209    1
   143   106   104    1
   144   119   117    1
   145    95    94    1
   146    25    28    1
   147    25    24    1
   148   105   103    1
   149   200   202   ar
   150   200   198   ar
   151   202   201   ar
   152   120   118    1
   153   198   197   ar
   154   104   103    1
   155    94    91    1
   156   201   199   ar
   157   117   118    1
   158   117   114    1
   159   103   100    1
   160   197   199   ar
   161   197   196    1
   162   178   179    1
   163    12    11    2
   164   196   193    1
   165   115   116    2
   166   115   114    1
   167    20    19    2
   168   114   113    1
   169    91    90    1
   170    91    92    1
   171   182   179    1
   172   182   183    1
   173   100   101    1
   174   100    99    1
   175   179   180    1
   176    11    10    1
   177    11    17   am
   178    16    14    1
   179    19    18    1
   180   101   102    2
   181   193   194    1
   182   193   192    1
   183    18    17    1
   184    18    21    1
   185    92    93    2
   186   194   195    2
   187   180   181    2
   188   188   185   ar
   189   188   190   ar
   190   183   185   ar
   191   183   184   ar
   192    10    13    1
   193    10     9    1
   194    13    14    1
   195   112   111    1
   196   185   187   ar
   197    14    15    1
   198    23    21    1
   199   190   191   ar
   200   184   186   ar
   201    21    22    1
   202   111   108    1
   203   187   186   ar
   204   187   189   ar
   205   191   189   ar
   206   110   109    2
   207   109   108    1
   208   108   107    1
   209     4     3    2
   210     3     2    1
   211     1     2    1
   212     2     5    1
   213     5     6    1
   214     8     6    1
   215     6     7    1
