@<TRIPOS>MOLECULE
tmp/5x02A00.pdb
 160 155 0 0 0
SMALL
GASTEIGER

@<TRIPOS>ATOM
      1  N        -34.9950    7.7490   -8.8550 N.3    44  LEU44      -0.1231
      2  CA       -33.6120    8.1990   -8.9150 C.3    44  LEU44       0.1693
      3  C        -33.0570    8.0120  -10.3220 C.2    44  LEU44       0.2592
      4  O        -32.1080    8.6820  -10.7250 O.2    44  LEU44      -0.2718
      5  CB       -32.7510    7.4320   -7.9100 C.3    44  LEU44       0.0284
      6  CG       -33.1660    7.4850   -6.4410 C.3    44  LEU44       0.0019
      7  CD1      -32.3130    6.5310   -5.6240 C.3    44  LEU44       0.0001
      8  CD2      -33.0510    8.8980   -5.9000 C.3    44  LEU44       0.0001
      9  N        -33.6510    7.0860  -11.0620 N.am   45  GLY45      -0.1957
     10  CA       -33.2110    6.7880  -12.4110 C.3    45  GLY45       0.1869
     11  C        -34.2350    5.9210  -13.1070 C.2    45  GLY45       0.2309
     12  O        -34.9700    5.1810  -12.4570 O.2    45  GLY45      -0.2863
     13  N        -34.8270    2.5460  -10.7370 N.3    52  VAL52      -0.1245
     14  CA       -34.3910    2.5680   -9.3510 C.3    52  VAL52       0.1561
     15  C        -35.0650    3.7350   -8.6450 C.2    52  VAL52       0.2260
     16  O        -35.0500    4.8600   -9.1440 O.2    52  VAL52      -0.2867
     17  CB       -32.8680    2.6950   -9.2270 C.3    52  VAL52       0.0252
     18  CG1      -32.4680    2.8310   -7.7700 C.3    52  VAL52       0.0019
     19  CG2      -32.1910    1.4940   -9.8510 C.3    52  VAL52       0.0019
     20  N        -32.0050    2.2440   -2.1210 N.3    70  ALA70      -0.1245
     21  CA       -32.3720    2.3390   -3.5260 C.3    70  ALA70       0.1562
     22  C        -32.9730    1.0150   -3.9660 C.2    70  ALA70       0.2260
     23  O        -32.3630   -0.0370   -3.7950 O.2    70  ALA70      -0.2867
     24  CB       -31.1670    2.6980   -4.3740 C.3    70  ALA70       0.0290
     25  N        -34.3280   -1.3130   -6.8990 N.3    72  LYS72      -0.1245
     26  CA       -34.4300   -1.6500   -8.3140 C.3    72  LYS72       0.1561
     27  C        -35.6570   -2.5170   -8.5690 C.2    72  LYS72       0.2260
     28  O        -35.8320   -3.5580   -7.9430 O.2    72  LYS72      -0.2867
     29  CB       -33.1650   -2.3630   -8.7800 C.3    72  LYS72       0.0271
     30  CG       -33.1050   -2.6510  -10.2670 C.3    72  LYS72       0.0035
     31  CD       -31.6540   -2.6970  -10.7080 C.3    72  LYS72       0.0206
     32  CE       -31.4010   -3.7460  -11.7680 C.3    72  LYS72       0.1093
     33  NZ       -29.9510   -3.7960  -12.1040 N.3    72  LYS72      -0.1314
     34  N        -30.3630  -11.9760  -11.4530 N.3    89  GLU89      -0.1245
     35  CA       -29.4620  -10.9430  -10.9740 C.3    89  GLU89       0.1567
     36  C        -29.4520  -10.9380   -9.4520 C.2    89  GLU89       0.2260
     37  O        -28.3990  -10.8270   -8.8230 O.2    89  GLU89      -0.2867
     38  CB       -29.8810   -9.5760  -11.5140 C.3    89  GLU89       0.0388
     39  CG       -29.0230   -8.4260  -11.0210 C.3    89  GLU89       0.1160
     40  CD       -29.5930   -7.0730  -11.4010 C.2    89  GLU89       0.3649
     41  OE1      -29.1460   -6.0670  -10.8180 O.co2  89  GLU89      -0.2457
     42  OE2      -30.4860   -7.0160  -12.2780 O.co2  89  GLU89      -0.2457
     43  N        -21.9040   -1.5090   -4.6590 N.3   103  VAL103     -0.1245
     44  CA       -23.2720   -1.2400   -4.2370 C.3   103  VAL103      0.1561
     45  C        -23.9040   -2.5610   -3.8210 C.2   103  VAL103      0.2260
     46  O        -24.2320   -3.4000   -4.6610 O.2   103  VAL103     -0.2867
     47  CB       -24.1060   -0.5740   -5.3410 C.3   103  VAL103      0.0252
     48  CG1      -25.5460   -0.4010   -4.8800 C.3   103  VAL103      0.0019
     49  CG2      -23.5010    0.7710   -5.7200 C.3   103  VAL103      0.0019
     50  N        -31.0360   -2.1490   -2.7180 N.3   119  PHE119     -0.1227
     51  CA       -29.6080   -1.8540   -2.6340 C.3   119  PHE119      0.1736
     52  C        -29.3220   -0.6400   -1.7550 C.2   119  PHE119      0.2595
     53  O        -30.2270    0.1160   -1.3990 O.2   119  PHE119     -0.2718
     54  CB       -29.0230   -1.5990   -4.0210 C.3   119  PHE119      0.0547
     55  CG       -29.1500   -2.7560   -4.9680 C.ar  119  PHE119     -0.0202
     56  CD1      -30.2740   -2.8910   -5.7630 C.ar  119  PHE119     -0.0042
     57  CD2      -28.1280   -3.6850   -5.0940 C.ar  119  PHE119     -0.0042
     58  CE1      -30.3890   -3.9400   -6.6520 C.ar  119  PHE119     -0.0003
     59  CE2      -28.2390   -4.7400   -5.9770 C.ar  119  PHE119     -0.0003
     60  CZ       -29.3720   -4.8670   -6.7580 C.ar  119  PHE119     -0.0000
     61  N        -28.0460   -0.4510   -1.4350 N.am  120  GLU120     -0.1965
     62  CA       -27.5950    0.7100   -0.6840 C.3   120  GLU120      0.1733
     63  C        -27.9910    2.0150   -1.3690 C.2   120  GLU120      0.2616
     64  O        -28.0830    2.0800   -2.5960 O.2   120  GLU120     -0.2715
     65  CB       -26.0780    0.6650   -0.5020 C.3   120  GLU120      0.0429
     66  CG       -25.5930   -0.5200    0.2940 C.3   120  GLU120      0.1163
     67  CD       -24.0870   -0.6520    0.2830 C.2   120  GLU120      0.3649
     68  OE1      -23.4980   -0.8470    1.3660 O.co2 120  GLU120     -0.2457
     69  OE2      -23.4870   -0.5660   -0.8070 O.co2 120  GLU120     -0.2457
     70  N        -28.2360    3.0490   -0.5670 N.am  121  TYR121     -0.1960
     71  CA       -28.4840    4.3850   -1.0960 C.3   121  TYR121      0.1771
     72  C        -27.1800    5.1610   -1.1200 C.2   121  TYR121      0.2620
     73  O        -26.4120    5.1320   -0.1570 O.2   121  TYR121     -0.2715
     74  CB       -29.5350    5.1220   -0.2640 C.3   121  TYR121      0.0574
     75  CG       -29.8540    6.5110   -0.7680 C.ar  121  TYR121     -0.0198
     76  CD1      -30.5600    6.6950   -1.9490 C.ar  121  TYR121     -0.0009
     77  CD2      -29.4550    7.6380   -0.0600 C.ar  121  TYR121     -0.0009
     78  CE1      -30.8540    7.9640   -2.4150 C.ar  121  TYR121      0.0417
     79  CE2      -29.7470    8.9110   -0.5150 C.ar  121  TYR121      0.0417
     80  CZ       -30.4450    9.0710   -1.6950 C.ar  121  TYR121      0.1957
     81  OH       -30.7350   10.3430   -2.1540 O.3   121  TYR121     -0.2866
     82  N        -26.9150    5.8380   -2.2290 N.am  122  CYS122     -0.1954
     83  CA       -25.6800    6.5950   -2.3560 C.3   122  CYS122      0.1843
     84  C        -25.9860    8.0740   -2.5610 C.2   122  CYS122      0.2626
     85  O        -26.2090    8.5320   -3.6820 O.2   122  CYS122     -0.2714
     86  CB       -24.8290    6.0280   -3.4900 C.3   122  CYS122      0.0997
     87  SG       -24.2380    4.3300   -3.1560 S.3   122  CYS122     -0.0797
     88  N        -25.9780    8.8230   -1.4610 N.am  123  CYS123     -0.1954
     89  CA       -26.6280   10.1330   -1.4390 C.3   123  CYS123      0.1843
     90  C        -25.9430   11.1850   -2.3060 C.2   123  CYS123      0.2625
     91  O        -26.5330   12.2230   -2.5760 O.2   123  CYS123     -0.2714
     92  CB       -26.7260   10.6780   -0.0090 C.3   123  CYS123      0.0997
     93  SG       -25.1450   11.1650    0.7620 S.3   123  CYS123     -0.0797
     94  N        -24.7090   10.9360   -2.7300 N.am  124  TYR124     -0.1960
     95  CA       -24.0110   11.8970   -3.5760 C.3   124  TYR124      0.1771
     96  C        -24.1430   11.5740   -5.0670 C.2   124  TYR124      0.2620
     97  O        -23.5360   12.2390   -5.8990 O.2   124  TYR124     -0.2715
     98  CB       -22.5340   11.9780   -3.1860 C.3   124  TYR124      0.0574
     99  CG       -22.2920   12.6740   -1.8630 C.ar  124  TYR124     -0.0198
    100  CD1      -22.7380   13.9720   -1.6500 C.ar  124  TYR124     -0.0009
    101  CD2      -21.6040   12.0400   -0.8340 C.ar  124  TYR124     -0.0009
    102  CE1      -22.5170   14.6160   -0.4450 C.ar  124  TYR124      0.0417
    103  CE2      -21.3760   12.6780    0.3750 C.ar  124  TYR124      0.0417
    104  CZ       -21.8340   13.9650    0.5620 C.ar  124  TYR124      0.1957
    105  OH       -21.6110   14.6010    1.7620 O.3   124  TYR124     -0.2866
    106  N        -24.9420   10.5630   -5.4030 N.am  125  GLY125     -0.1940
    107  CA       -25.1790   10.2010   -6.7940 C.3   125  GLY125      0.2014
    108  C        -23.9770    9.6060   -7.5140 C.2   125  GLY125      0.2638
    109  O        -22.9860    9.2220   -6.8870 O.2   125  GLY125     -0.2714
    110  N        -24.0560    9.5410   -8.8410 N.am  126  ASP126     -0.1971
    111  CA       -23.0200    8.8800   -9.6290 C.3   126  ASP126      0.1709
    112  C        -21.7390    9.6960   -9.6730 C.2   126  ASP126      0.2293
    113  O        -21.7660   10.9160   -9.5520 O.2   126  ASP126     -0.2864
    114  CB       -23.5190    8.6010  -11.0460 C.3   126  ASP126      0.1436
    115  CG       -23.6990    9.8590  -11.8610 C.2   126  ASP126      0.3671
    116  OD1      -24.7870   10.4690  -11.8000 O.co2 126  ASP126     -0.2456
    117  OD2      -22.7510   10.2230  -12.5820 O.co2 126  ASP126     -0.2456
    118  N        -21.0430    4.9420   -7.9270 N.3   176  LEU176     -0.1245
    119  CA       -21.8190    5.8180   -7.0590 C.3   176  LEU176      0.1561
    120  C        -20.9580    6.3690   -5.9240 C.2   176  LEU176      0.2260
    121  O        -19.8740    5.8530   -5.6580 O.2   176  LEU176     -0.2867
    122  CB       -23.0250    5.0740   -6.4980 C.3   176  LEU176      0.0270
    123  CG       -24.0000    4.5340   -7.5410 C.3   176  LEU176      0.0019
    124  CD1      -25.2270    3.9600   -6.8640 C.3   176  LEU176      0.0001
    125  CD2      -24.3910    5.6200   -8.5330 C.3   176  LEU176      0.0001
    126  N        -21.0650    8.5880    1.7960 N.3   179  HIS179     -0.1241
    127  CA       -20.3640    9.1740    2.9330 C.3   179  HIS179      0.1621
    128  C        -18.8670    8.8990    2.8840 C.2   179  HIS179      0.2264
    129  O        -18.4340    7.8710    2.3600 O.2   179  HIS179     -0.2867
    130  CB       -20.9420    8.6240    4.2410 C.3   179  HIS179      0.0745
    131  CG       -22.4280    8.5290    4.2470 C.ar  179  HIS179      0.0817
    132  ND1      -23.2530    9.6220    4.1250 N.ar  179  HIS179     -0.2268
    133  CD2      -23.2630    7.4510    4.3530 C.ar  179  HIS179      0.1154
    134  CE1      -24.5220    9.2390    4.1600 C.ar  179  HIS179      0.1986
    135  NE2      -24.5370    7.9190    4.2980 N.ar  179  HIS179     -0.2212
    136  N        -21.3060   -0.0600   -9.3710 N.3   186  CYS186     -0.1221
    137  CA       -22.6950   -0.4120   -9.5390 C.3   186  CYS186      0.1808
    138  C        -22.9430   -0.9860  -10.9200 C.2   186  CYS186      0.2601
    139  O        -22.0480   -1.0190  -11.7640 O.2   186  CYS186     -0.2717
    140  CB       -23.5820    0.8150   -9.3190 C.3   186  CYS186      0.0970
    141  SG       -25.3280    0.4390   -9.4250 S.3   186  CYS186     -0.0800
    142  N        -24.1690   -1.4330  -11.1460 N.am  187  ASP187     -0.1959
    143  CA       -24.5900   -1.8130  -12.4820 C.3   187  ASP187      0.1840
    144  C        -26.0910   -1.7070  -12.6420 C.2   187  ASP187      0.2622
    145  O        -26.8490   -2.5020  -12.0850 O.2   187  ASP187     -0.2715
    146  CB       -24.1470   -3.2330  -12.8180 C.3   187  ASP187      0.1450
    147  CG       -24.7450   -3.7270  -14.1210 C.2   187  ASP187      0.3671
    148  OD1      -24.8530   -2.9100  -15.0640 O.co2 187  ASP187     -0.2456
    149  OD2      -25.1100   -4.9240  -14.1990 O.co2 187  ASP187     -0.2456
    150  N        -26.5210   -0.7220  -13.4130 N.am  188  PHE188     -0.1974
    151  CA       -27.9160   -0.6550  -13.8010 C.3   188  PHE188      0.1639
    152  C        -27.9950   -0.4390  -15.3000 C.2   188  PHE188      0.2290
    153  O        -27.3960    0.4910  -15.8400 O.2   188  PHE188     -0.2864
    154  CB       -28.6650    0.4440  -13.0380 C.3   188  PHE188      0.0560
    155  CG       -27.9260    1.7540  -12.9490 C.ar  188  PHE188     -0.0200
    156  CD1      -26.9320    1.9460  -12.0000 C.ar  188  PHE188     -0.0042
    157  CD2      -28.2500    2.8040  -13.7880 C.ar  188  PHE188     -0.0042
    158  CE1      -26.2580    3.1520  -11.9050 C.ar  188  PHE188     -0.0003
    159  CE2      -27.5840    4.0130  -13.6940 C.ar  188  PHE188     -0.0003
    160  CZ       -26.5840    4.1860  -12.7530 C.ar  188  PHE188     -0.0000
@<TRIPOS>BOND
     1   153   152    2
     2   152   151    1
     3   148   147   ar
     4   149   147   ar
     5   147   146    1
     6   151   150    1
     7   151   154    1
     8   157   159   ar
     9   157   155   ar
    10   159   160   ar
    11   150   144   am
    12    11    12    2
    13    11    10    1
    14   154   155    1
    15   155   156   ar
    16   146   143    1
    17   160   158   ar
    18   144   143    1
    19   144   145    2
    20   117   115   ar
    21   143   142    1
    22    10     9    1
    23    42    40   ar
    24    33    32    1
    25   156   158   ar
    26   115   116   ar
    27   115   114    1
    28    32    31    1
    29   139   138    2
    30    38    39    1
    31    38    35    1
    32    34    35    1
    33    40    39    1
    34    40    41   ar
    35   142   138   am
    36     9     3   am
    37   114   111    1
    38    35    36    1
    39   138   137    1
    40    13    14    1
    41     4     3    2
    42    31    30    1
    43     3     2    1
    44    30    29    1
    45    19    17    1
    46   112   111    1
    47   112   113    2
    48   111   110    1
    49   137   136    1
    50   137   140    1
    51    36    37    2
    52   141   140    1
    53    14    17    1
    54    14    15    1
    55    17    18    1
    56    16    15    2
    57     2     1    1
    58     2     5    1
    59   110   108   am
    60    29    26    1
    61    27    26    1
    62    27    28    2
    63   125   123    1
    64    26    25    1
    65   118   119    1
    66     5     6    1
    67   123   124    1
    68   123   122    1
    69   108   109    2
    70   108   107    1
    71   119   122    1
    72   119   120    1
    73   107   106    1
    74    60    58   ar
    75    60    59   ar
    76    58    56   ar
    77     6     8    1
    78     6     7    1
    79    59    57   ar
    80   120   121    2
    81    97    96    2
    82    56    55   ar
    83    49    47    1
    84   106    96   am
    85    47    48    1
    86    47    44    1
    87    57    55   ar
    88    96    95    1
    89    55    54    1
    90    46    45    2
    91    43    44    1
    92    24    21    1
    93    44    45    1
    94    54    51    1
    95    22    23    2
    96    22    21    1
    97    85    84    2
    98    95    98    1
    99    95    94    1
   100    21    20    1
   101    86    87    1
   102    86    83    1
   103    98    99    1
   104    94    90   am
   105    50    51    1
   106    51    52    1
   107    64    63    2
   108    91    90    2
   109    84    83    1
   110    84    88   am
   111    78    76   ar
   112    78    80   ar
   113    83    82    1
   114    90    89    1
   115    82    72   am
   116    81    80    1
   117    76    75   ar
   118    99   100   ar
   119    99   101   ar
   120    52    61   am
   121    52    53    2
   122    80    79   ar
   123   100   102   ar
   124    88    89    1
   125    89    92    1
   126    61    62    1
   127    63    62    1
   128    63    70   am
   129    72    71    1
   130    72    73    2
   131    71    70    1
   132    71    74    1
   133   101   103   ar
   134    69    67   ar
   135    75    74    1
   136    75    77   ar
   137    62    65    1
   138    79    77   ar
   139    65    66    1
   140   102   104   ar
   141    92    93    1
   142    67    66    1
   143    67    68   ar
   144   103   104   ar
   145   104   105    1
   146   126   127    1
   147   129   128    2
   148   128   127    1
   149   127   130    1
   150   132   134   ar
   151   132   131   ar
   152   134   135   ar
   153   130   131    1
   154   131   133   ar
   155   135   133   ar
