@<TRIPOS>MOLECULE
tmp/5x03B00.pdb
 125 116 0 0 0
SMALL
GASTEIGER

@<TRIPOS>ATOM
      1  N         10.1720  -42.5090  -17.1190 N.3     8  MET8       -0.1245
      2  CA        11.3080  -42.1050  -16.3040 C.3     8  MET8        0.1570
      3  C         11.2320  -42.7000  -14.8990 C.2     8  MET8        0.2261
      4  O         12.0230  -42.3480  -14.0180 O.2     8  MET8       -0.2867
      5  CB        11.3440  -40.5820  -16.1960 C.3     8  MET8        0.0387
      6  CG        10.4790  -39.8500  -17.2290 C.3     8  MET8        0.0595
      7  SD        11.4640  -39.1350  -18.5640 S.3     8  MET8       -0.1393
      8  CE        10.2060  -38.2140  -19.4570 C.3     8  MET8        0.0692
      9  N          4.3740  -37.4400   -1.3880 N.3    73  GLY73      -0.1210
     10  CA         4.8000  -36.8380   -2.6420 C.3    73  GLY73       0.1956
     11  C          5.4110  -35.4470   -2.5490 C.2    73  GLY73       0.2613
     12  O          5.1710  -34.7220   -1.5900 O.2    73  GLY73      -0.2717
     13  N          6.1750  -35.0830   -3.5800 N.am   74  THR74      -0.1938
     14  CA         6.8720  -33.7960   -3.6970 C.3    74  THR74       0.2028
     15  C          5.9720  -32.5600   -3.7950 C.2    74  THR74       0.2642
     16  O          6.3350  -31.4950   -3.3040 O.2    74  THR74      -0.2714
     17  CB         7.8440  -33.8290   -4.9000 C.3    74  THR74       0.1808
     18  OG1        8.9080  -34.7350   -4.6090 O.3    74  THR74      -0.2208
     19  CG2        8.4470  -32.4860   -5.1660 C.3    74  THR74       0.0379
     20  N          4.8040  -32.7010   -4.4220 N.am   75  GLN75      -0.1976
     21  CA         3.8510  -31.6010   -4.5490 C.3    75  GLN75       0.1601
     22  C          3.4270  -31.0480   -3.1990 C.2    75  GLN75       0.2287
     23  O          3.4260  -29.8390   -2.9750 O.2    75  GLN75      -0.2864
     24  CB         2.6000  -32.0490   -5.3050 C.3    75  GLN75       0.0394
     25  CG         1.5490  -30.9420   -5.4190 C.3    75  GLN75       0.0908
     26  CD         0.1270  -31.4490   -5.6330 C.2    75  GLN75       0.2608
     27  OE1       -0.0900  -32.5870   -6.0410 O.2    75  GLN75      -0.2717
     28  NE2       -0.8500  -30.5960   -5.3440 N.am   75  GLN75      -0.0878
     29  N         10.1900  -28.8310  -15.2940 N.3    98  TYR98      -0.1241
     30  CA         8.9620  -29.4470  -14.8360 C.3    98  TYR98       0.1605
     31  C          7.8490  -28.4100  -14.8440 C.2    98  TYR98       0.2264
     32  O          7.7660  -27.5780  -13.9410 O.2    98  TYR98      -0.2867
     33  CB         9.1790  -29.9490  -13.4120 C.3    98  TYR98       0.0534
     34  CG         8.1760  -30.9690  -12.9400 C.ar   98  TYR98      -0.0201
     35  CD1        7.2590  -31.5350  -13.8140 C.ar   98  TYR98      -0.0009
     36  CD2        8.1480  -31.3700  -11.6150 C.ar   98  TYR98      -0.0009
     37  CE1        6.3490  -32.4710  -13.3750 C.ar   98  TYR98       0.0417
     38  CE2        7.2410  -32.3030  -11.1700 C.ar   98  TYR98       0.0417
     39  CZ         6.3480  -32.8470  -12.0510 C.ar   98  TYR98       0.1957
     40  OH         5.4510  -33.7760  -11.6030 O.3    98  TYR98      -0.2866
     41  N         17.6980  -28.8810  -10.4030 N.3   138  THR138     -0.1218
     42  CA        18.0260  -30.3050  -10.3850 C.3   138  THR138      0.1862
     43  C         19.4960  -30.5000  -10.7130 C.2   138  THR138      0.2287
     44  O         19.8480  -30.7770  -11.8540 O.2   138  THR138     -0.2866
     45  CB        17.1530  -31.1500  -11.3460 C.3   138  THR138      0.1770
     46  OG1       17.1320  -30.5590  -12.6480 O.3   138  THR138     -0.2211
     47  CG2       15.7480  -31.2360  -10.8420 C.3   138  THR138      0.0375
     48  N         16.4690  -32.0610  -15.2560 N.3   143  PHE143     -0.1241
     49  CA        15.2400  -32.5120  -15.8900 C.3   143  PHE143      0.1605
     50  C         14.7270  -31.4530  -16.8560 C.2   143  PHE143      0.2264
     51  O         14.4200  -30.3370  -16.4450 O.2   143  PHE143     -0.2867
     52  CB        14.1760  -32.8310  -14.8380 C.3   143  PHE143      0.0534
     53  CG        12.9560  -33.5180  -15.3930 C.ar  143  PHE143     -0.0203
     54  CD1       13.0130  -34.8340  -15.8220 C.ar  143  PHE143     -0.0042
     55  CD2       11.7480  -32.8500  -15.4750 C.ar  143  PHE143     -0.0042
     56  CE1       11.8910  -35.4600  -16.3370 C.ar  143  PHE143     -0.0003
     57  CE2       10.6250  -33.4750  -15.9860 C.ar  143  PHE143     -0.0003
     58  CZ        10.7020  -34.7800  -16.4150 C.ar  143  PHE143     -0.0000
     59  N         16.1480  -30.3620   -6.0550 N.3   172  ASP172     -0.1239
     60  CA        15.2850  -31.4970   -6.3610 C.3   172  ASP172      0.1674
     61  C         16.1180  -32.7070   -6.7500 C.2   172  ASP172      0.2266
     62  O         16.5400  -32.8220   -7.8940 O.2   172  ASP172     -0.2867
     63  CB        14.3300  -31.1270   -7.4950 C.3   172  ASP172      0.1410
     64  CG        13.2840  -32.1880   -7.7620 C.2   172  ASP172      0.3668
     65  OD1       13.5310  -33.3910   -7.5400 O.co2 172  ASP172     -0.2456
     66  OD2       12.1920  -31.8090   -8.2240 O.co2 172  ASP172     -0.2456
     67  N         15.8820  -36.3690   -7.5280 N.3   174  TYR174     -0.1241
     68  CA        14.7660  -37.2630   -7.8280 C.3   174  TYR174      0.1605
     69  C         15.1270  -38.6600   -8.3200 C.2   174  TYR174      0.2264
     70  O         14.3780  -39.6010   -8.0610 O.2   174  TYR174     -0.2867
     71  CB        13.7950  -36.6060   -8.8050 C.3   174  TYR174      0.0534
     72  CG        14.4200  -36.3090  -10.1390 C.ar  174  TYR174     -0.0201
     73  CD1       15.2430  -35.2050  -10.3110 C.ar  174  TYR174     -0.0009
     74  CD2       14.1870  -37.1250  -11.2350 C.ar  174  TYR174     -0.0009
     75  CE1       15.8200  -34.9300  -11.5320 C.ar  174  TYR174      0.0417
     76  CE2       14.7540  -36.8500  -12.4530 C.ar  174  TYR174      0.0417
     77  CZ        15.5740  -35.7570  -12.5890 C.ar  174  TYR174      0.1957
     78  OH        16.1470  -35.4800  -13.7990 O.3   174  TYR174     -0.2866
     79  N         12.8690  -38.2320   -2.9920 N.3   202  THR202     -0.1218
     80  CA        11.6700  -39.0170   -3.1580 C.3   202  THR202      0.1862
     81  C         12.0370  -40.4550   -3.3890 C.2   202  THR202      0.2287
     82  O         13.1870  -40.7510   -3.6850 O.2   202  THR202     -0.2866
     83  CB        10.8420  -38.5100   -4.3410 C.3   202  THR202      0.1770
     84  OG1        9.5810  -39.1820   -4.3630 O.3   202  THR202     -0.2211
     85  CG2       11.5670  -38.7620   -5.6490 C.3   202  THR202      0.0375
     86  N         10.0240  -42.1070   -5.5160 N.3   204  SER204     -0.1202
     87  CA         9.2030  -42.2930   -6.7130 C.3   204  SER204      0.2020
     88  C          9.9140  -43.0260   -7.8460 C.2   204  SER204      0.2618
     89  O          9.2890  -43.7290   -8.6310 O.2   204  SER204     -0.2717
     90  CB         8.7040  -40.9430   -7.2310 C.3   204  SER204      0.2103
     91  OG         7.6930  -40.4190   -6.3950 O.3   204  SER204     -0.2182
     92  N         11.2210  -42.8340   -7.9610 N.am  205  LYS205     -0.1979
     93  CA        11.9720  -43.4580   -9.0440 C.3   205  LYS205      0.1596
     94  C         12.5120  -44.8140   -8.6180 C.2   205  LYS205      0.2287
     95  O         12.1980  -45.8370   -9.2190 O.2   205  LYS205     -0.2864
     96  CB        13.1120  -42.5490   -9.5000 C.3   205  LYS205      0.0298
     97  CG        12.7000  -41.1010   -9.6990 C.3   205  LYS205      0.0038
     98  CD        11.8550  -40.9340  -10.9500 C.3   205  LYS205      0.0206
     99  CE        10.4630  -40.4260  -10.6170 C.3   205  LYS205      0.1093
    100  NZ        10.3470  -38.9560  -10.8220 N.3   205  LYS205     -0.1314
    101  N          8.5340  -46.3510   -6.4470 N.3   208  LEU208     -0.1245
    102  CA         7.1310  -46.1160   -6.8440 C.3   208  LEU208      0.1561
    103  C          6.4860  -47.1310   -7.7480 C.2   208  LEU208      0.2260
    104  O          6.6000  -47.0690   -8.9710 O.2   208  LEU208     -0.2867
    105  CB         6.8530  -44.6900   -7.3570 C.3   208  LEU208      0.0270
    106  CG         5.5650  -44.3780   -8.1370 C.3   208  LEU208      0.0019
    107  CD1        4.7610  -43.2660   -7.5080 C.3   208  LEU208      0.0001
    108  CD2        5.8750  -44.0380   -9.5780 C.3   208  LEU208      0.0001
    109  N          3.3030  -42.9210   -2.5650 N.3   212  ARG212     -0.1245
    110  CA         3.4590  -41.4960   -2.3740 C.3   212  ARG212      0.1563
    111  C          4.3310  -41.2720   -1.1460 C.2   212  ARG212      0.2260
    112  O          3.8140  -41.1080   -0.0440 O.2   212  ARG212     -0.2867
    113  CB         2.0820  -40.8870   -2.1600 C.3   212  ARG212      0.0307
    114  CG         1.0670  -41.3370   -3.1990 C.3   212  ARG212      0.0489
    115  CD         1.5670  -41.0450   -4.6050 C.3   212  ARG212      0.2205
    116  NE         1.8440  -39.6250   -4.8180 N.pl3 212  ARG212     -0.0865
    117  CZ         2.9440  -39.1580   -5.4090 C.cat 212  ARG212      0.5346
    118  NH1        3.8740  -39.9980   -5.8530 N.pl3 212  ARG212      0.1354
    119  NH2        3.1200  -37.8510   -5.5550 N.pl3 212  ARG212      0.1354
    120  N          7.8620  -39.0710   -0.1680 N.3   214  SER214     -0.1217
    121  CA         8.9750  -38.1910   -0.4670 C.3   214  SER214      0.1889
    122  C          9.4380  -37.6150    0.8690 C.2   214  SER214      0.2288
    123  O          8.9340  -38.0240    1.9010 O.2   214  SER214     -0.2866
    124  CB         8.5410  -37.1040   -1.4510 C.3   214  SER214      0.2089
    125  OG         8.0880  -37.6590   -2.6790 O.3   214  SER214     -0.2183
@<TRIPOS>BOND
     1     8     7    1
     2     7     6    1
     3     6     5    1
     4     1     2    1
     5    50    51    2
     6    50    49    1
     7    58    56   ar
     8    58    57   ar
     9    56    54   ar
    10     2     5    1
    11     2     3    1
    12    57    55   ar
    13    49    48    1
    14    49    52    1
    15    54    53   ar
    16    55    53   ar
    17    53    52    1
    18    29    30    1
    19     3     4    2
    20    31    30    1
    21    31    32    2
    22    30    33    1
    23    35    37   ar
    24    35    34   ar
    25    78    77    1
    26    33    34    1
    27    37    39   ar
    28    34    36   ar
    29    46    45    1
    30    77    76   ar
    31    77    75   ar
    32    76    74   ar
    33    39    40    1
    34    39    38   ar
    35    44    43    2
    36    36    38   ar
    37    75    73   ar
    38    45    47    1
    39    45    42    1
    40    74    72   ar
    41    98    99    1
    42    98    97    1
    43   100    99    1
    44    43    42    1
    45    41    42    1
    46    73    72   ar
    47    72    71    1
    48    97    96    1
    49   108   106    1
    50    96    93    1
    51    95    94    2
    52    93    94    1
    53    93    92    1
    54   104   103    2
    55    71    68    1
    56    89    88    2
    57    69    70    2
    58    69    68    1
    59    66    64   ar
    60   106   107    1
    61   106   105    1
    62    92    88   am
    63    62    61    2
    64    88    87    1
    65    68    67    1
    66    64    65   ar
    67    64    63    1
    68   103   102    1
    69    63    60    1
    70   105   102    1
    71    90    87    1
    72    90    91    1
    73   102   101    1
    74    61    60    1
    75    87    86    1
    76    60    59    1
    77    27    26    2
    78   118   117    1
    79    85    83    1
    80    26    25    1
    81    26    28   am
    82   119   117    1
    83    25    24    1
    84   117   116    2
    85    24    21    1
    86    19    17    1
    87    17    18    1
    88    17    14    1
    89   116   115    1
    90   115   114    1
    91    21    20    1
    92    21    22    1
    93    20    15   am
    94    84    83    1
    95    83    80    1
    96    15    14    1
    97    15    16    2
    98    14    13    1
    99    82    81    2
   100    13    11   am
   101    81    80    1
   102    22    23    2
   103   114   113    1
   104    80    79    1
   105   125   124    1
   106    10    11    1
   107    10     9    1
   108   109   110    1
   109    11    12    2
   110   110   113    1
   111   110   111    1
   112   124   121    1
   113   111   112    2
   114   121   120    1
   115   121   122    1
   116   122   123    2
