@<TRIPOS>MOLECULE
tmp/5x06F00.pdb
 159 154 0 0 0
SMALL
GASTEIGER

@<TRIPOS>ATOM
      1  N        -56.7040  -49.5800  -41.8350 N.3    14  GLU14      -0.1245
      2  CA       -56.1860  -50.6330  -40.9650 C.3    14  GLU14       0.1567
      3  C        -57.3730  -51.4470  -40.4560 C.2    14  GLU14       0.2260
      4  O        -57.9210  -51.1780  -39.3860 O.2    14  GLU14      -0.2867
      5  CB       -55.3650  -50.0460  -39.8170 C.3    14  GLU14       0.0388
      6  CG       -54.1610  -49.2340  -40.2750 C.3    14  GLU14       0.1160
      7  CD       -53.2190  -48.8830  -39.1390 C.2    14  GLU14       0.3649
      8  OE1      -53.5000  -49.2790  -37.9880 O.co2  14  GLU14      -0.2457
      9  OE2      -52.1960  -48.2130  -39.4000 O.co2  14  GLU14      -0.2457
     10  N        -57.2230  -55.3950  -44.8030 N.3    18  SER18      -0.1202
     11  CA       -55.8990  -54.9450  -45.2150 C.3    18  SER18       0.2020
     12  C        -54.7740  -55.6020  -44.4260 C.2    18  SER18       0.2619
     13  O        -53.6020  -55.3090  -44.6880 O.2    18  SER18      -0.2717
     14  CB       -55.7980  -53.4220  -45.0840 C.3    18  SER18       0.2103
     15  OG       -56.0340  -53.0090  -43.7490 O.3    18  SER18      -0.2182
     16  N        -55.0970  -56.4780  -43.4800 N.am   19  PHE19      -0.1961
     17  CA       -54.1090  -57.1450  -42.6430 C.3    19  PHE19       0.1771
     18  C        -53.7880  -58.5150  -43.2250 C.2    19  PHE19       0.2619
     19  O        -54.6960  -59.3100  -43.4910 O.2    19  PHE19      -0.2715
     20  CB       -54.6260  -57.2800  -41.2090 C.3    19  PHE19       0.0574
     21  CG       -53.6150  -57.8380  -40.2450 C.ar   19  PHE19      -0.0200
     22  CD1      -52.6740  -57.0110  -39.6550 C.ar   19  PHE19      -0.0042
     23  CD2      -53.6120  -59.1850  -39.9220 C.ar   19  PHE19      -0.0042
     24  CE1      -51.7470  -57.5170  -38.7680 C.ar   19  PHE19      -0.0003
     25  CE2      -52.6850  -59.6960  -39.0340 C.ar   19  PHE19      -0.0003
     26  CZ       -51.7520  -58.8600  -38.4570 C.ar   19  PHE19      -0.0000
     27  N        -52.4930  -58.7920  -43.4170 N.am   20  TRP20      -0.1974
     28  CA       -52.1000  -60.0660  -44.0130 C.3    20  TRP20       0.1640
     29  C        -52.0020  -61.1400  -42.9350 C.2    20  TRP20       0.2290
     30  O        -51.4230  -60.8900  -41.8700 O.2    20  TRP20      -0.2864
     31  CB       -50.7740  -59.9350  -44.7460 C.3    20  TRP20       0.0576
     32  CG       -50.8690  -60.3530  -46.1750 C.ar   20  TRP20       0.0006
     33  CD1      -51.4650  -59.6630  -47.1920 C.ar   20  TRP20       0.0946
     34  CD2      -50.3660  -61.5620  -46.7530 C.ar   20  TRP20       0.0152
     35  NE1      -51.3620  -60.3670  -48.3680 N.ar   20  TRP20      -0.2442
     36  CE2      -50.6910  -61.5350  -48.1250 C.ar   20  TRP20       0.0810
     37  CE3      -49.6700  -62.6630  -46.2460 C.ar   20  TRP20       0.0012
     38  CZ2      -50.3440  -62.5650  -48.9940 C.ar   20  TRP20       0.0191
     39  CZ3      -49.3250  -63.6850  -47.1110 C.ar   20  TRP20       0.0001
     40  CH2      -49.6630  -63.6290  -48.4700 C.ar   20  TRP20       0.0015
     41  N        -49.9020  -65.4070  -38.4720 N.3    24  ASN24      -0.1240
     42  CA       -50.7920  -65.3030  -37.3160 C.3    24  ASN24       0.1653
     43  C        -52.1520  -65.9240  -37.6080 C.2    24  ASN24       0.2266
     44  O        -53.1980  -65.3370  -37.3340 O.2    24  ASN24      -0.2867
     45  CB       -50.9320  -63.8450  -36.9010 C.3    24  ASN24       0.1155
     46  CG       -49.6080  -63.1120  -36.9150 C.2    24  ASN24       0.2627
     47  OD1      -48.7930  -63.2560  -36.0030 O.2    24  ASN24      -0.2716
     48  ND2      -49.3840  -62.3190  -37.9560 N.am   24  ASN24      -0.0877
     49  N        -41.2130  -55.0660  -33.0780 N.3    49  GLU49      -0.1231
     50  CA       -41.2360  -53.8200  -33.8360 C.3    49  GLU49       0.1699
     51  C        -42.0720  -54.0030  -35.0920 C.2    49  GLU49       0.2593
     52  O        -41.7810  -54.8820  -35.9110 O.2    49  GLU49      -0.2718
     53  CB       -39.8140  -53.3760  -34.1990 C.3    49  GLU49       0.0402
     54  CG       -39.7220  -52.3380  -35.3160 C.3    49  GLU49       0.1161
     55  CD       -40.0830  -50.9350  -34.8610 C.2    49  GLU49       0.3649
     56  OE1      -40.7990  -50.2330  -35.6070 O.co2  49  GLU49      -0.2457
     57  OE2      -39.6470  -50.5330  -33.7620 O.co2  49  GLU49      -0.2457
     58  N        -43.1030  -53.1780  -35.2410 N.am   50  GLY50      -0.1942
     59  CA       -43.8670  -53.1320  -36.4800 C.3    50  GLY50       0.2014
     60  C        -44.5190  -54.4380  -36.8790 C.2    50  GLY50       0.2639
     61  O        -44.5360  -54.7820  -38.0670 O.2    50  GLY50      -0.2714
     62  N        -45.0580  -55.1750  -35.9130 N.am   51  ALA51      -0.1963
     63  CA       -45.7710  -56.4110  -36.2020 C.3    51  ALA51       0.1728
     64  C        -47.2620  -56.1960  -36.4300 C.2    51  ALA51       0.2617
     65  O        -47.9630  -57.1510  -36.7770 O.2    51  ALA51      -0.2715
     66  CB       -45.5670  -57.4180  -35.0690 C.3    51  ALA51       0.0334
     67  N        -47.7630  -54.9770  -36.2500 N.am   52  GLY52      -0.1940
     68  CA       -49.1710  -54.7130  -36.4510 C.3    52  GLY52       0.2014
     69  C        -50.0240  -54.8940  -35.2200 C.2    52  GLY52       0.2639
     70  O        -51.1960  -55.2670  -35.3410 O.2    52  GLY52      -0.2714
     71  N        -49.4650  -54.6550  -34.0310 N.am   53  ARG53      -0.1963
     72  CA       -50.2510  -54.7640  -32.8070 C.3    53  ARG53       0.1729
     73  C        -51.3460  -53.7040  -32.7620 C.2    53  ARG53       0.2617
     74  O        -52.4870  -53.9980  -32.3860 O.2    53  ARG53      -0.2715
     75  CB       -49.3400  -54.6470  -31.5850 C.3    53  ARG53       0.0348
     76  CG       -48.2510  -55.7040  -31.4950 C.3    53  ARG53       0.0492
     77  CD       -47.2130  -55.3100  -30.4570 C.3    53  ARG53       0.2205
     78  NE       -46.5530  -54.0570  -30.8130 N.pl3  53  ARG53      -0.0865
     79  CZ       -45.6280  -53.4590  -30.0700 C.cat  53  ARG53       0.5346
     80  NH1      -45.0830  -52.3210  -30.4780 N.pl3  53  ARG53       0.1354
     81  NH2      -45.2480  -53.9970  -28.9200 N.pl3  53  ARG53       0.1354
     82  N        -51.0190  -52.4660  -33.1420 N.am   54  SER54      -0.1936
     83  CA       -52.0350  -51.4220  -33.1920 C.3    54  SER54       0.2055
     84  C        -52.9670  -51.6100  -34.3800 C.2    54  SER54       0.2643
     85  O        -54.1130  -51.1480  -34.3460 O.2    54  SER54      -0.2714
     86  CB       -51.3750  -50.0460  -33.2490 C.3    54  SER54       0.2130
     87  OG       -50.4580  -49.8760  -32.1820 O.3    54  SER54      -0.2179
     88  N        -52.4940  -52.2790  -35.4340 N.am   55  HIS55      -0.1973
     89  CA       -53.3530  -52.5780  -36.5750 C.3    55  HIS55       0.1656
     90  C        -54.5060  -53.4860  -36.1660 C.2    55  HIS55       0.2291
     91  O        -55.6600  -53.2460  -36.5390 O.2    55  HIS55      -0.2864
     92  CB       -52.5230  -53.2170  -37.6910 C.3    55  HIS55       0.0771
     93  CG       -53.2430  -53.3420  -39.0000 C.ar   55  HIS55       0.0820
     94  ND1      -52.6830  -52.9420  -40.1940 N.ar   55  HIS55      -0.2267
     95  CD2      -54.4640  -53.8430  -39.3070 C.ar   55  HIS55       0.1154
     96  CE1      -53.5330  -53.1780  -41.1770 C.ar   55  HIS55       0.1986
     97  NE2      -54.6210  -53.7250  -40.6660 N.ar   55  HIS55      -0.2212
     98  N        -50.0140  -50.8900  -26.0250 N.3   100  ASN100     -0.1240
     99  CA       -48.6970  -50.6000  -25.4520 C.3   100  ASN100      0.1653
    100  C        -48.7770  -50.4220  -23.9330 C.2   100  ASN100      0.2266
    101  O        -48.4800  -49.3590  -23.3840 O.2   100  ASN100     -0.2867
    102  CB       -48.0720  -49.3700  -26.1210 C.3   100  ASN100      0.1155
    103  CG       -48.0790  -49.4630  -27.6330 C.2   100  ASN100      0.2627
    104  OD1      -47.9960  -50.5510  -28.2040 O.2   100  ASN100     -0.2716
    105  ND2      -48.1830  -48.3150  -28.2940 N.am  100  ASN100     -0.0877
    106  N        -44.4840  -59.6430  -40.5550 N.3   162  LEU162     -0.1245
    107  CA       -44.5630  -60.0830  -41.9400 C.3   162  LEU162      0.1561
    108  C        -43.1770  -60.3520  -42.5040 C.2   162  LEU162      0.2260
    109  O        -42.2390  -59.5800  -42.2890 O.2   162  LEU162     -0.2867
    110  CB       -45.2620  -59.0300  -42.7960 C.3   162  LEU162      0.0270
    111  CG       -46.7740  -58.8850  -42.6710 C.3   162  LEU162      0.0019
    112  CD1      -47.2600  -57.8450  -43.6620 C.3   162  LEU162      0.0001
    113  CD2      -47.4580  -60.2180  -42.9090 C.3   162  LEU162      0.0001
    114  N        -48.5300  -57.0490  -48.9990 N.3   170  ALA170     -0.1245
    115  CA       -49.3170  -56.2610  -48.0590 C.3   170  ALA170      0.1562
    116  C        -49.3720  -54.7960  -48.4720 C.2   170  ALA170      0.2260
    117  O        -50.3960  -54.1350  -48.2630 O.2   170  ALA170     -0.2867
    118  CB       -48.7530  -56.3920  -46.6440 C.3   170  ALA170      0.0290
    119  N        -52.9360  -52.6620  -49.8740 N.3   174  ARG174     -0.1245
    120  CA       -53.4530  -51.3360  -49.5460 C.3   174  ARG174      0.1563
    121  C        -53.7160  -50.5110  -50.7960 C.2   174  ARG174      0.2260
    122  O        -54.5540  -49.6030  -50.7730 O.2   174  ARG174     -0.2867
    123  CB       -52.4790  -50.6010  -48.6290 C.3   174  ARG174      0.0307
    124  CG       -52.3040  -51.2440  -47.2730 C.3   174  ARG174      0.0489
    125  CD       -53.4690  -50.9310  -46.3540 C.3   174  ARG174      0.2205
    126  NE       -53.0380  -50.1770  -45.1810 N.pl3 174  ARG174     -0.0865
    127  CZ       -52.4770  -50.7260  -44.1100 C.cat 174  ARG174      0.5346
    128  NH1      -52.2730  -52.0350  -44.0650 N.pl3 174  ARG174      0.1354
    129  NH2      -52.1160  -49.9680  -43.0850 N.pl3 174  ARG174      0.1354
    130  N        -42.0000  -51.0020  -42.1280 N.3   198  MET198     -0.1230
    131  CA       -43.4180  -51.0900  -42.4600 C.3   198  MET198      0.1702
    132  C        -44.2030  -49.8910  -41.9470 C.2   198  MET198      0.2592
    133  O        -45.2040  -49.5010  -42.5590 O.2   198  MET198     -0.2718
    134  CB       -44.0100  -52.3890  -41.9130 C.3   198  MET198      0.0401
    135  CG       -43.9570  -53.5460  -42.8940 C.3   198  MET198      0.0596
    136  SD       -44.6260  -55.0760  -42.2170 S.3   198  MET198     -0.1393
    137  CE       -43.3920  -55.4720  -40.9790 C.3   198  MET198      0.0692
    138  N        -43.7710  -49.2900  -40.8360 N.am  199  ARG199     -0.1980
    139  CA       -44.4610  -48.1080  -40.3300 C.3   199  ARG199      0.1597
    140  C        -44.3910  -46.9630  -41.3310 C.2   199  ARG199      0.2287
    141  O        -45.3780  -46.2490  -41.5420 O.2   199  ARG199     -0.2864
    142  CB       -43.8720  -47.6810  -38.9850 C.3   199  ARG199      0.0334
    143  CG       -44.8880  -47.6240  -37.8540 C.3   199  ARG199      0.0492
    144  CD       -46.0710  -46.7310  -38.2010 C.3   199  ARG199      0.2205
    145  NE       -45.7030  -45.3190  -38.2170 N.pl3 199  ARG199     -0.0865
    146  CZ       -45.6890  -44.5400  -37.1390 C.cat 199  ARG199      0.5346
    147  NH1      -46.0200  -45.0380  -35.9550 N.pl3 199  ARG199      0.1354
    148  NH2      -45.3410  -43.2650  -37.2450 N.pl3 199  ARG199      0.1354
    149  N        -46.1950  -48.0270  -45.5270 N.3   202  PHE202     -0.1241
    150  CA       -47.5910  -47.6580  -45.7300 C.3   202  PHE202      0.1605
    151  C        -47.8320  -46.1750  -45.4880 C.2   202  PHE202      0.2264
    152  O        -48.8160  -45.6260  -45.9950 O.2   202  PHE202     -0.2867
    153  CB       -48.4900  -48.4960  -44.8220 C.3   202  PHE202      0.0534
    154  CG       -48.3720  -49.9730  -45.0550 C.ar  202  PHE202     -0.0203
    155  CD1      -49.1400  -50.5970  -46.0200 C.ar  202  PHE202     -0.0042
    156  CD2      -47.4860  -50.7350  -44.3150 C.ar  202  PHE202     -0.0042
    157  CE1      -49.0300  -51.9540  -46.2390 C.ar  202  PHE202     -0.0003
    158  CE2      -47.3720  -52.0920  -44.5300 C.ar  202  PHE202     -0.0003
    159  CZ       -48.1470  -52.7030  -45.4910 C.ar  202  PHE202     -0.0000
@<TRIPOS>BOND
     1   121   122    2
     2   121   120    1
     3   119   120    1
     4   120   123    1
     5   114   115    1
     6    38    40   ar
     7    38    36   ar
     8   123   124    1
     9   116   117    2
    10   116   115    1
    11    40    39   ar
    12    35    36   ar
    13    35    33   ar
    14    36    34   ar
    15   115   118    1
    16   124   125    1
    17    33    32   ar
    18    39    37   ar
    19    34    37   ar
    20    34    32   ar
    21   125   126    1
    22   157   155   ar
    23   157   159   ar
    24    32    31    1
    25   155   154   ar
    26   152   151    2
    27   150   149    1
    28   150   151    1
    29   150   153    1
    30   159   158   ar
    31    11    14    1
    32    11    10    1
    33    11    12    1
    34   126   127    2
    35    14    15    1
    36   154   153    1
    37   154   156   ar
    38    31    28    1
    39    13    12    2
    40   158   156   ar
    41    12    16   am
    42   127   128    1
    43   127   129    1
    44    28    27    1
    45    28    29    1
    46   112   111    1
    47    19    18    2
    48    16    17    1
    49    27    18   am
    50    18    17    1
    51    29    30    2
    52   113   111    1
    53   135   136    1
    54   135   134    1
    55   110   111    1
    56   110   107    1
    57    17    20    1
    58   133   132    2
    59   108   109    2
    60   108   107    1
    61   131   130    1
    62   131   132    1
    63   131   134    1
    64   136   137    1
    65   132   138   am
    66   107   106    1
    67     1     2    1
    68   141   140    2
    69   140   139    1
    70    20    21    1
    71    96    97   ar
    72    96    94   ar
    73     2     3    1
    74     2     5    1
    75   138   139    1
    76    97    95   ar
    77     3     4    2
    78   139   142    1
    79     6     5    1
    80     6     7    1
    81    21    23   ar
    82    21    22   ar
    83    94    93   ar
    84    23    25   ar
    85    22    24   ar
    86     9     7   ar
    87    95    93   ar
    88     7     8   ar
    89    25    26   ar
    90    93    92    1
    91   142   143    1
    92    24    26   ar
    93    41    42    1
    94   145   144    1
    95   145   146    2
    96   144   143    1
    97    61    60    2
    98    48    46   am
    99    92    89    1
   100    43    44    2
   101    43    42    1
   102    42    45    1
   103   148   146    1
   104   146   147    1
   105    46    45    1
   106    46    47    2
   107    60    59    1
   108    60    62   am
   109    65    64    2
   110    89    90    1
   111    89    88    1
   112    91    90    2
   113    59    58    1
   114    68    67    1
   115    68    69    1
   116    64    67   am
   117    64    63    1
   118    63    62    1
   119    63    66    1
   120    52    51    2
   121    56    55   ar
   122    88    84   am
   123    70    69    2
   124    54    55    1
   125    54    53    1
   126    58    51   am
   127    69    71   am
   128    51    50    1
   129    55    57   ar
   130    84    85    2
   131    84    83    1
   132    53    50    1
   133    71    72    1
   134    50    49    1
   135    86    83    1
   136    86    87    1
   137    83    82    1
   138    82    73   am
   139    72    73    1
   140    72    75    1
   141    73    74    2
   142    75    76    1
   143    76    77    1
   144    78    77    1
   145    78    79    2
   146    80    79    1
   147    79    81    1
   148   105   103   am
   149   104   103    2
   150   103   102    1
   151   102    99    1
   152    98    99    1
   153    99   100    1
   154   100   101    2
