@<TRIPOS>MOLECULE
tmp/5x0jA01.pdb
 138 138 0 0 0
SMALL
GASTEIGER

@<TRIPOS>ATOM
      1  N         13.3100  -10.3310  -27.3270 N.3     3  GLU3       -0.1245
      2  CA        11.9040   -9.9060  -27.3200 C.3     3  GLU3        0.1567
      3  C         11.0170  -10.8120  -28.1670 C.2     3  GLU3        0.2260
      4  O         11.4060  -11.2550  -29.2520 O.2     3  GLU3       -0.2867
      5  CB        11.7730   -8.4660  -27.8140 C.3     3  GLU3        0.0388
      6  CG        12.3860   -7.4500  -26.8590 C.3     3  GLU3        0.1160
      7  CD        12.8640   -6.1690  -27.5310 C.2     3  GLU3        0.3649
      8  OE1       13.2680   -6.1980  -28.7110 O.co2   3  GLU3       -0.2457
      9  OE2       12.8950   -5.1510  -26.8320 O.co2   3  GLU3       -0.2457
     10  N         18.5580    5.4920  -21.0540 N.3    28  HIS28      -0.1226
     11  CA        17.6510    5.5420  -19.9200 C.3    28  HIS28       0.1752
     12  C         17.3710    4.2240  -19.2130 C.2    28  HIS28       0.2596
     13  O         16.5880    4.2000  -18.2650 O.2    28  HIS28      -0.2718
     14  CB        16.3400    6.2300  -20.3240 C.3    28  HIS28       0.0759
     15  CG        15.4380    5.4160  -21.2110 C.ar   28  HIS28       0.0818
     16  ND1       15.4540    5.5160  -22.5870 N.ar   28  HIS28      -0.2268
     17  CD2       14.4590    4.5270  -20.9170 C.ar   28  HIS28       0.1154
     18  CE1       14.5240    4.7270  -23.0980 C.ar   28  HIS28       0.1986
     19  NE2       13.9150    4.1080  -22.1070 N.ar   28  HIS28      -0.2212
     20  N         18.0170    3.1430  -19.6280 N.am   29  GLN29      -0.1965
     21  CA        17.8120    1.8500  -18.9610 C.3    29  GLN29       0.1733
     22  C         18.9990    0.9130  -19.1550 C.2    29  GLN29       0.2616
     23  O         19.8730    1.1490  -19.9940 O.2    29  GLN29      -0.2715
     24  CB        16.4480    1.2100  -19.3240 C.3    29  GLN29       0.0408
     25  CG        16.1240    1.0620  -20.7930 C.3    29  GLN29       0.0908
     26  CD        14.6550    0.7910  -21.0830 C.2    29  GLN29       0.2608
     27  OE1       13.7540    1.2170  -20.3410 O.2    29  GLN29      -0.2717
     28  NE2       14.4030    0.1170  -22.1990 N.am   29  GLN29      -0.0878
     29  N         19.0410   -0.1170  -18.3180 N.am   30  GLN30      -0.1977
     30  CA        20.0890   -1.1360  -18.3160 C.3    30  GLN30       0.1601
     31  C         19.9420   -2.1550  -19.4580 C.2    30  GLN30       0.2287
     32  O         18.9490   -2.1570  -20.1960 O.2    30  GLN30      -0.2864
     33  CB        20.0690   -1.8750  -16.9790 C.3    30  GLN30       0.0394
     34  CG        20.4410   -1.0080  -15.7810 C.3    30  GLN30       0.0908
     35  CD        20.1970   -1.6870  -14.4580 C.2    30  GLN30       0.2608
     36  OE1       19.2100   -2.3930  -14.2730 O.2    30  GLN30      -0.2717
     37  NE2       21.0970   -1.4760  -13.5160 N.am   30  GLN30      -0.0878
     38  N         15.5640    6.3680  -27.2700 N.3    67  VAL67      -0.1231
     39  CA        14.1820    5.9220  -27.1160 C.3    67  VAL67       0.1692
     40  C         14.1470    4.3940  -27.2520 C.2    67  VAL67       0.2592
     41  O         13.5550    3.7070  -26.4070 O.2    67  VAL67      -0.2718
     42  CB        13.2760    6.6430  -28.1400 C.3    67  VAL67       0.0266
     43  CG1       11.8620    6.0890  -28.1240 C.3    67  VAL67       0.0020
     44  CG2       13.2730    8.1370  -27.8350 C.3    67  VAL67       0.0020
     45  N         14.7590    3.8780  -28.3170 N.am   68  ASP68      -0.1960
     46  CA        14.9160    2.4610  -28.5420 C.3    68  ASP68       0.1840
     47  C         16.2730    2.2630  -29.1820 C.2    68  ASP68       0.2623
     48  O         16.6200    2.9570  -30.1430 O.2    68  ASP68      -0.2715
     49  CB        13.8040    1.9470  -29.4570 C.3    68  ASP68       0.1450
     50  CG        13.9120    0.4650  -29.7500 C.2    68  ASP68       0.3671
     51  OD1       14.4110   -0.3020  -28.8960 O.co2  68  ASP68      -0.2456
     52  OD2       13.4830    0.0630  -30.8560 O.co2  68  ASP68      -0.2456
     53  N         17.0520    1.3340  -28.6290 N.am   69  GLY69      -0.1940
     54  CA        18.3980    1.0640  -29.1440 C.3    69  GLY69       0.2014
     55  C         19.5240    0.9840  -28.1310 C.2    69  GLY69       0.2639
     56  O         20.6790    1.2230  -28.4790 O.2    69  GLY69      -0.2714
     57  N         19.2320    0.6170  -26.8890 N.am   70  HIS70      -0.1959
     58  CA        20.2870    0.5390  -25.8720 C.3    70  HIS70       0.1787
     59  C         21.3770   -0.4650  -26.1950 C.2    70  HIS70       0.2620
     60  O         22.5570   -0.2010  -25.9470 O.2    70  HIS70      -0.2715
     61  CB        19.6790    0.2350  -24.5150 C.3    70  HIS70       0.0785
     62  CG        18.9190    1.3870  -23.9680 C.ar   70  HIS70       0.0821
     63  ND1       17.6500    1.6990  -24.3920 N.ar   70  HIS70      -0.2267
     64  CD2       19.2890    2.3760  -23.1230 C.ar   70  HIS70       0.1154
     65  CE1       17.2430    2.7960  -23.7860 C.ar   70  HIS70       0.1986
     66  NE2       18.2280    3.2340  -23.0270 N.ar   70  HIS70      -0.2212
     67  N         20.9810   -1.5940  -26.7670 N.am   71  HIS71      -0.1959
     68  CA        21.9230   -2.6770  -27.0490 C.3    71  HIS71       0.1787
     69  C         22.7140   -2.4040  -28.3110 C.2    71  HIS71       0.2620
     70  O         23.9310   -2.6290  -28.3440 O.2    71  HIS71      -0.2715
     71  CB        21.1790   -4.0110  -27.0720 C.3    71  HIS71       0.0785
     72  CG        20.5180   -4.3220  -25.7650 C.ar   71  HIS71       0.0821
     73  ND1       19.3140   -3.7720  -25.3870 N.ar   71  HIS71      -0.2267
     74  CD2       20.9390   -5.0560  -24.7120 C.ar   71  HIS71       0.1154
     75  CE1       18.9960   -4.1950  -24.1810 C.ar   71  HIS71       0.1986
     76  NE2       19.9640   -4.9800  -23.7570 N.ar   71  HIS71      -0.2212
     77  N         22.0430   -1.8780  -29.3290 N.am   72  ARG72      -0.1977
     78  CA        22.7640   -1.4000  -30.5090 C.3    72  ARG72       0.1597
     79  C         23.8140   -0.3500  -30.1030 C.2    72  ARG72       0.2287
     80  O         24.9810   -0.4080  -30.5360 O.2    72  ARG72      -0.2864
     81  CB        21.8180   -0.8220  -31.5510 C.3    72  ARG72       0.0334
     82  CG        21.1620   -1.8710  -32.4340 C.3    72  ARG72       0.0492
     83  CD        19.9510   -1.3320  -33.1620 C.3    72  ARG72       0.2205
     84  NE        18.8080   -1.1670  -32.2580 N.pl3  72  ARG72      -0.0865
     85  CZ        17.6780   -0.5340  -32.5630 C.cat  72  ARG72       0.5346
     86  NH1       17.5000    0.0160  -33.7690 N.pl3  72  ARG72       0.1354
     87  NH2       16.6990   -0.4670  -31.6680 N.pl3  72  ARG72       0.1354
     88  N          7.8380   -3.7780  -21.3710 N.3   101  TRP101     -0.1241
     89  CA         8.1480   -5.1540  -21.7080 C.3   101  TRP101      0.1605
     90  C          8.1180   -5.9390  -20.4090 C.2   101  TRP101      0.2264
     91  O          8.6720   -5.5020  -19.3890 O.2   101  TRP101     -0.2867
     92  CB         9.5440   -5.2930  -22.3250 C.3   101  TRP101      0.0550
     93  CG         9.7220   -4.6090  -23.6330 C.ar  101  TRP101      0.0003
     94  CD1       10.2570   -3.3770  -23.8480 C.ar  101  TRP101      0.0946
     95  CD2        9.4020   -5.1350  -24.9220 C.ar  101  TRP101      0.0152
     96  NE1       10.2880   -3.0990  -25.1900 N.ar  101  TRP101     -0.2442
     97  CE2        9.7520   -4.1590  -25.8720 C.ar  101  TRP101      0.0810
     98  CE3        8.8430   -6.3410  -25.3650 C.ar  101  TRP101      0.0012
     99  CZ2        9.5700   -4.3490  -27.2420 C.ar  101  TRP101      0.0191
    100  CZ3        8.6420   -6.5260  -26.7240 C.ar  101  TRP101      0.0001
    101  CH2        8.9970   -5.5310  -27.6500 C.ar  101  TRP101      0.0015
    102  N         14.5670   -2.9060  -20.3970 N.3   220  LYS220     -0.1245
    103  CA        13.3160   -3.0620  -21.1430 C.3   220  LYS220      0.1561
    104  C         12.1020   -2.4480  -20.4380 C.2   220  LYS220      0.2260
    105  O         10.9650   -2.8460  -20.6630 O.2   220  LYS220     -0.2867
    106  CB        13.0790   -4.5450  -21.4690 C.3   220  LYS220      0.0271
    107  CG        14.2160   -5.2240  -22.2230 C.3   220  LYS220      0.0035
    108  CD        14.4130   -4.6260  -23.6040 C.3   220  LYS220      0.0206
    109  CE        15.3700   -5.4700  -24.4090 C.3   220  LYS220      0.1093
    110  NZ        15.5430   -4.9370  -25.7950 N.3   220  LYS220     -0.1314
    111  N         10.8730    0.6330  -20.8290 N.3   222  THR222     -0.1203
    112  CA        10.0580    1.3270  -21.8150 C.3   222  THR222      0.1994
    113  C          9.8550    0.4870  -23.0760 C.2   222  THR222      0.2618
    114  O         10.7810   -0.1470  -23.5700 O.2   222  THR222     -0.2717
    115  CB        10.7010    2.6460  -22.2470 C.3   222  THR222      0.1784
    116  OG1       11.9890    2.3820  -22.8060 O.3   222  THR222     -0.2211
    117  CG2       10.8560    3.5940  -21.0770 C.3   222  THR222      0.0376
    118  N          8.6200    0.4780  -23.5630 N.am  223  ARG223     -0.1965
    119  CA         8.3000   -0.0730  -24.8650 C.3   223  ARG223      0.1729
    120  C          7.5980    1.0380  -25.6270 C.2   223  ARG223      0.2616
    121  O          6.4050    1.2430  -25.4700 O.2   223  ARG223     -0.2715
    122  CB         7.4140   -1.3230  -24.7570 C.3   223  ARG223      0.0348
    123  CG         7.0410   -1.9190  -26.1050 C.3   223  ARG223      0.0492
    124  CD         6.3640   -3.2780  -25.9820 C.3   223  ARG223      0.2205
    125  NE         5.0210   -3.2300  -25.4120 N.pl3 223  ARG223     -0.0865
    126  CZ         3.9070   -2.9020  -26.0680 C.cat 223  ARG223      0.5346
    127  NH1        3.9290   -2.5540  -27.3400 N.pl3 223  ARG223      0.1354
    128  NH2        2.7370   -2.9100  -25.4290 N.pl3 223  ARG223      0.1354
    129  N          8.3520    1.7770  -26.4350 N.am  224  HIS224     -0.1973
    130  CA         7.8040    2.8930  -27.1940 C.3   224  HIS224      0.1656
    131  C          7.1520    2.4190  -28.4720 C.2   224  HIS224      0.2291
    132  O          7.6870    1.5640  -29.1670 O.2   224  HIS224     -0.2864
    133  CB         8.8940    3.9060  -27.5240 C.3   224  HIS224      0.0771
    134  CG         9.4720    4.5910  -26.3240 C.ar  224  HIS224      0.0820
    135  ND1       10.5640    4.1020  -25.6380 N.ar  224  HIS224     -0.2267
    136  CD2        9.1120    5.7320  -25.6950 C.ar  224  HIS224      0.1154
    137  CE1       10.8550    4.9230  -24.6440 C.ar  224  HIS224      0.1986
    138  NE2        9.9830    5.9130  -24.6480 N.ar  224  HIS224     -0.2212
@<TRIPOS>BOND
     1    86    85    1
     2    83    82    1
     3    83    84    1
     4    85    84    2
     5    85    87    1
     6    82    81    1
     7    81    78    1
     8    52    50   ar
     9    80    79    2
    10    78    79    1
    11    78    77    1
    12    48    47    2
    13    50    49    1
    14    50    51   ar
    15    49    46    1
    16    77    69   am
    17     4     3    2
    18    47    53   am
    19    47    46    1
    20   132   131    2
    21    54    53    1
    22    54    55    1
    23     8     7   ar
    24    46    45    1
    25    56    55    2
    26   131   130    1
    27    70    69    2
    28    45    40   am
    29    69    68    1
    30     3     2    1
    31    42    43    1
    32    42    44    1
    33    42    39    1
    34    55    57   am
    35     5     2    1
    36     5     6    1
    37   101    99   ar
    38   101   100   ar
    39     7     6    1
    40     7     9   ar
    41   133   130    1
    42   133   134    1
    43   127   126    1
    44     1     2    1
    45    38    39    1
    46    40    39    1
    47    40    41    2
    48    99    97   ar
    49   130   129    1
    50    71    68    1
    51    71    72    1
    52    68    67    1
    53    57    58    1
    54    67    59   am
    55   100    98   ar
    56   129   120   am
    57   134   136   ar
    58   134   135   ar
    59    59    60    2
    60    59    58    1
    61   123   124    1
    62   123   122    1
    63   126   128    1
    64   126   125    2
    65   124   125    1
    66    58    61    1
    67    97    96   ar
    68    97    95   ar
    69   110   109    1
    70    72    73   ar
    71    72    74   ar
    72   136   138   ar
    73   135   137   ar
    74   120   121    2
    75   120   119    1
    76    73    75   ar
    77    98    95   ar
    78    96    94   ar
    79    95    93   ar
    80   119   122    1
    81   119   118    1
    82    74    76   ar
    83   138   137   ar
    84    61    62    1
    85   109   108    1
    86    63    62   ar
    87    63    65   ar
    88    75    76   ar
    89    62    64   ar
    90    94    93   ar
    91    65    66   ar
    92    93    92    1
    93   108   107    1
    94   114   113    2
    95   118   113   am
    96    64    66   ar
    97    18    16   ar
    98    18    19   ar
    99   113   112    1
   100   116   115    1
   101    16    15   ar
   102    92    89    1
   103   115   112    1
   104   115   117    1
   105   107   106    1
   106    28    26   am
   107    19    17   ar
   108   112   111    1
   109    89    88    1
   110    89    90    1
   111   106   103    1
   112    15    17   ar
   113    15    14    1
   114   103   104    1
   115   103   102    1
   116    26    25    1
   117    26    27    2
   118    10    11    1
   119    25    24    1
   120   105   104    2
   121    90    91    2
   122    14    11    1
   123    32    31    2
   124    23    22    2
   125    11    12    1
   126    20    12   am
   127    20    21    1
   128    31    30    1
   129    24    21    1
   130    12    13    2
   131    22    21    1
   132    22    29   am
   133    29    30    1
   134    30    33    1
   135    33    34    1
   136    34    35    1
   137    35    36    2
   138    35    37   am
