@<TRIPOS>MOLECULE
tmp/5x0jA00.pdb
 147 145 0 0 0
SMALL
GASTEIGER

@<TRIPOS>ATOM
      1  N         13.3100  -10.3310  -27.3270 N.3     3  GLU3       -0.1245
      2  CA        11.9040   -9.9060  -27.3200 C.3     3  GLU3        0.1567
      3  C         11.0170  -10.8120  -28.1670 C.2     3  GLU3        0.2260
      4  O         11.4060  -11.2550  -29.2520 O.2     3  GLU3       -0.2867
      5  CB        11.7730   -8.4660  -27.8140 C.3     3  GLU3        0.0388
      6  CG        12.3860   -7.4500  -26.8590 C.3     3  GLU3        0.1160
      7  CD        12.8640   -6.1690  -27.5310 C.2     3  GLU3        0.3649
      8  OE1       13.2680   -6.1980  -28.7110 O.co2   3  GLU3       -0.2457
      9  OE2       12.8950   -5.1510  -26.8320 O.co2   3  GLU3       -0.2457
     10  N         20.7970  -10.0450  -25.1740 N.3    35  GLU35      -0.1245
     11  CA        20.3670   -9.0880  -26.2070 C.3    35  GLU35       0.1567
     12  C         21.5880   -8.3730  -26.8020 C.2    35  GLU35       0.2260
     13  O         21.7040   -8.2280  -28.0210 O.2    35  GLU35      -0.2867
     14  CB        19.3790   -8.0920  -25.5960 C.3    35  GLU35       0.0388
     15  CG        18.7280   -7.0800  -26.5400 C.3    35  GLU35       0.1160
     16  CD        17.5480   -7.6050  -27.3280 C.2    35  GLU35       0.3649
     17  OE1       16.5310   -6.8750  -27.4050 O.co2  35  GLU35      -0.2457
     18  OE2       17.6330   -8.7370  -27.8310 O.co2  35  GLU35      -0.2457
     19  N         23.6510  -10.9740  -28.8880 N.3    38  ALA38      -0.1231
     20  CA        22.9860  -11.2980  -30.1580 C.3    38  ALA38       0.1694
     21  C         23.1320  -10.1740  -31.1660 C.2    38  ALA38       0.2592
     22  O         23.3910  -10.4260  -32.3440 O.2    38  ALA38      -0.2718
     23  CB        21.5220  -11.6260  -29.9340 C.3    38  ALA38       0.0304
     24  N         22.9930   -8.9300  -30.7200 N.am   39  PHE39      -0.1976
     25  CA        23.2210   -7.8130  -31.6150 C.3    39  PHE39       0.1639
     26  C         24.6610   -7.8040  -32.1490 C.2    39  PHE39       0.2290
     27  O         24.8790   -7.6430  -33.3430 O.2    39  PHE39      -0.2864
     28  CB        22.9020   -6.4560  -30.9900 C.3    39  PHE39       0.0560
     29  CG        23.4290   -5.3370  -31.8130 C.ar   39  PHE39      -0.0200
     30  CD1       22.8560   -5.0560  -33.0500 C.ar   39  PHE39      -0.0042
     31  CD2       24.5760   -4.6570  -31.4360 C.ar   39  PHE39      -0.0042
     32  CE1       23.3960   -4.0730  -33.8660 C.ar   39  PHE39      -0.0003
     33  CE2       25.1080   -3.6660  -32.2450 C.ar   39  PHE39      -0.0003
     34  CZ        24.5170   -3.3720  -33.4600 C.ar   39  PHE39      -0.0000
     35  N         25.2090  -10.6340  -34.6370 N.3    42  SER42      -0.1202
     36  CA        24.4530  -10.3570  -35.8560 C.3    42  SER42       0.2020
     37  C         25.1150   -9.3000  -36.7270 C.2    42  SER42       0.2618
     38  O         25.3040   -9.5080  -37.9140 O.2    42  SER42      -0.2717
     39  CB        23.0320   -9.9050  -35.5340 C.3    42  SER42       0.2103
     40  OG        22.3550   -9.5140  -36.7210 O.3    42  SER42      -0.2182
     41  N         25.4800   -8.1600  -36.1430 N.am   43  VAL43      -0.1979
     42  CA        25.9990   -7.0530  -36.9470 C.3    43  VAL43       0.1595
     43  C         27.3950   -7.3810  -37.4980 C.2    43  VAL43       0.2287
     44  O         27.6820   -7.0880  -38.6560 O.2    43  VAL43      -0.2864
     45  CB        25.9240   -5.6960  -36.1900 C.3    43  VAL43       0.0276
     46  CG1       27.0220   -5.5490  -35.1480 C.3    43  VAL43       0.0022
     47  CG2       25.9440   -4.5350  -37.1650 C.3    43  VAL43       0.0022
     48  N         26.9150  -10.5490  -40.1040 N.3    46  SER46      -0.1217
     49  CA        26.2060  -10.1800  -41.3320 C.3    46  SER46       0.1889
     50  C         26.8610   -9.0270  -42.0770 C.2    46  SER46       0.2288
     51  O         26.7530   -8.9560  -43.2990 O.2    46  SER46      -0.2866
     52  CB        24.7590   -9.8350  -41.0230 C.3    46  SER46       0.2089
     53  OG        24.6670   -8.5770  -40.4000 O.3    46  SER46      -0.2183
     54  N         25.8470   -5.9690  -41.8490 N.3    48  ILE48      -0.1231
     55  CA        24.7760   -5.0200  -42.1860 C.3    48  ILE48       0.1692
     56  C         24.0730   -4.6020  -40.9090 C.2    48  ILE48       0.2592
     57  O         23.7390   -5.4430  -40.0680 O.2    48  ILE48      -0.2718
     58  CB        23.7410   -5.6340  -43.1650 C.3    48  ILE48       0.0266
     59  CG1       24.3730   -5.8630  -44.5410 C.3    48  ILE48       0.0019
     60  CG2       22.4900   -4.7680  -43.3030 C.3    48  ILE48       0.0020
     61  CD1       24.7600   -4.6130  -45.2960 C.3    48  ILE48       0.0001
     62  N         23.8570   -3.2940  -40.7860 N.am   49  PHE49      -0.1962
     63  CA        23.0830   -2.6850  -39.7070 C.3    49  PHE49       0.1771
     64  C         21.7590   -2.2690  -40.3480 C.2    49  PHE49       0.2620
     65  O         21.7430   -1.3870  -41.1890 O.2    49  PHE49      -0.2715
     66  CB        23.8530   -1.4900  -39.1340 C.3    49  PHE49       0.0574
     67  CG        23.2000   -0.8490  -37.9350 C.ar   49  PHE49      -0.0200
     68  CD1       22.2000    0.1020  -38.1010 C.ar   49  PHE49      -0.0042
     69  CD2       23.6000   -1.1780  -36.6450 C.ar   49  PHE49      -0.0042
     70  CE1       21.6170    0.6960  -37.0000 C.ar   49  PHE49      -0.0003
     71  CE2       23.0050   -0.5710  -35.5350 C.ar   49  PHE49      -0.0003
     72  CZ        22.0210    0.3720  -35.7360 C.ar   49  PHE49      -0.0000
     73  N         20.6650   -2.9410  -39.9760 N.am   50  TRP50      -0.1960
     74  CA        19.3980   -2.8440  -40.7330 C.3    50  TRP50       0.1771
     75  C         18.2250   -2.1650  -40.0220 C.2    50  TRP50       0.2619
     76  O         17.1710   -2.0230  -40.6250 O.2    50  TRP50      -0.2715
     77  CB        18.9710   -4.2320  -41.2800 C.3    50  TRP50       0.0590
     78  CG        18.8630   -5.3140  -40.2270 C.ar   50  TRP50       0.0006
     79  CD1       19.7940   -6.2740  -39.9380 C.ar   50  TRP50       0.0946
     80  CD2       17.7830   -5.5190  -39.3090 C.ar   50  TRP50       0.0152
     81  NE1       19.3440   -7.0740  -38.9210 N.ar   50  TRP50      -0.2442
     82  CE2       18.1210   -6.6320  -38.5040 C.ar   50  TRP50       0.0810
     83  CE3       16.5430   -4.8940  -39.1090 C.ar   50  TRP50       0.0012
     84  CZ2       17.2800   -7.1100  -37.4880 C.ar   50  TRP50       0.0191
     85  CZ3       15.6920   -5.3840  -38.1050 C.ar   50  TRP50       0.0001
     86  CH2       16.0770   -6.4800  -37.3080 C.ar   50  TRP50       0.0015
     87  N         18.4090   -1.7290  -38.7830 N.am   51  LYS51      -0.1977
     88  CA        17.3290   -1.1350  -37.9890 C.3    51  LYS51       0.1596
     89  C         17.8120    0.1700  -37.3610 C.2    51  LYS51       0.2287
     90  O         18.6720    0.1390  -36.5000 O.2    51  LYS51      -0.2864
     91  CB        16.8810   -2.1000  -36.8850 C.3    51  LYS51       0.0298
     92  CG        15.6520   -1.6130  -36.1380 C.3    51  LYS51       0.0038
     93  CD        15.2820   -2.4870  -34.9490 C.3    51  LYS51       0.0206
     94  CE        14.6090   -3.7700  -35.3520 C.3    51  LYS51       0.1093
     95  NZ        13.9220   -4.3760  -34.1800 N.3    51  LYS51      -0.1314
     96  N         14.7590    3.8780  -28.3170 N.3    68  ASP68      -0.1225
     97  CA        14.9160    2.4610  -28.5420 C.3    68  ASP68       0.1805
     98  C         16.2730    2.2630  -29.1820 C.2    68  ASP68       0.2598
     99  O         16.6200    2.9570  -30.1430 O.2    68  ASP68      -0.2718
    100  CB        13.8040    1.9470  -29.4570 C.3    68  ASP68       0.1424
    101  CG        13.9120    0.4650  -29.7500 C.2    68  ASP68       0.3668
    102  OD1       14.4110   -0.3020  -28.8960 O.co2  68  ASP68      -0.2456
    103  OD2       13.4830    0.0630  -30.8560 O.co2  68  ASP68      -0.2456
    104  N         17.0520    1.3340  -28.6290 N.am   69  GLY69      -0.1942
    105  CA        18.3980    1.0640  -29.1440 C.3    69  GLY69       0.2014
    106  C         19.5240    0.9840  -28.1310 C.2    69  GLY69       0.2639
    107  O         20.6790    1.2230  -28.4790 O.2    69  GLY69      -0.2714
    108  N         19.2320    0.6170  -26.8890 N.am   70  HIS70      -0.1959
    109  CA        20.2870    0.5390  -25.8720 C.3    70  HIS70       0.1787
    110  C         21.3770   -0.4650  -26.1950 C.2    70  HIS70       0.2620
    111  O         22.5570   -0.2010  -25.9470 O.2    70  HIS70      -0.2715
    112  CB        19.6790    0.2350  -24.5150 C.3    70  HIS70       0.0785
    113  CG        18.9190    1.3870  -23.9680 C.ar   70  HIS70       0.0821
    114  ND1       17.6500    1.6990  -24.3920 N.ar   70  HIS70      -0.2267
    115  CD2       19.2890    2.3760  -23.1230 C.ar   70  HIS70       0.1154
    116  CE1       17.2430    2.7960  -23.7860 C.ar   70  HIS70       0.1986
    117  NE2       18.2280    3.2340  -23.0270 N.ar   70  HIS70      -0.2212
    118  N         20.9810   -1.5940  -26.7670 N.am   71  HIS71      -0.1959
    119  CA        21.9230   -2.6770  -27.0490 C.3    71  HIS71       0.1787
    120  C         22.7140   -2.4040  -28.3110 C.2    71  HIS71       0.2620
    121  O         23.9310   -2.6290  -28.3440 O.2    71  HIS71      -0.2715
    122  CB        21.1790   -4.0110  -27.0720 C.3    71  HIS71       0.0785
    123  CG        20.5180   -4.3220  -25.7650 C.ar   71  HIS71       0.0821
    124  ND1       19.3140   -3.7720  -25.3870 N.ar   71  HIS71      -0.2267
    125  CD2       20.9390   -5.0560  -24.7120 C.ar   71  HIS71       0.1154
    126  CE1       18.9960   -4.1950  -24.1810 C.ar   71  HIS71       0.1986
    127  NE2       19.9640   -4.9800  -23.7570 N.ar   71  HIS71      -0.2212
    128  N         22.0430   -1.8780  -29.3290 N.am   72  ARG72      -0.1977
    129  CA        22.7640   -1.4000  -30.5090 C.3    72  ARG72       0.1597
    130  C         23.8140   -0.3500  -30.1030 C.2    72  ARG72       0.2287
    131  O         24.9810   -0.4080  -30.5360 O.2    72  ARG72      -0.2864
    132  CB        21.8180   -0.8220  -31.5510 C.3    72  ARG72       0.0334
    133  CG        21.1620   -1.8710  -32.4340 C.3    72  ARG72       0.0492
    134  CD        19.9510   -1.3320  -33.1620 C.3    72  ARG72       0.2205
    135  NE        18.8080   -1.1670  -32.2580 N.pl3  72  ARG72      -0.0865
    136  CZ        17.6780   -0.5340  -32.5630 C.cat  72  ARG72       0.5346
    137  NH1       17.5000    0.0160  -33.7690 N.pl3  72  ARG72       0.1354
    138  NH2       16.6990   -0.4670  -31.6680 N.pl3  72  ARG72       0.1354
    139  N         14.5670   -2.9060  -20.3970 N.3   220  LYS220     -0.1245
    140  CA        13.3160   -3.0620  -21.1430 C.3   220  LYS220      0.1561
    141  C         12.1020   -2.4480  -20.4380 C.2   220  LYS220      0.2260
    142  O         10.9650   -2.8460  -20.6630 O.2   220  LYS220     -0.2867
    143  CB        13.0790   -4.5450  -21.4690 C.3   220  LYS220      0.0271
    144  CG        14.2160   -5.2240  -22.2230 C.3   220  LYS220      0.0035
    145  CD        14.4130   -4.6260  -23.6040 C.3   220  LYS220      0.0206
    146  CE        15.3700   -5.4700  -24.4090 C.3   220  LYS220      0.1093
    147  NZ        15.5430   -4.9370  -25.7950 N.3   220  LYS220     -0.1314
@<TRIPOS>BOND
     1    61    59    1
     2    59    58    1
     3    60    58    1
     4    51    50    2
     5    58    55    1
     6    55    54    1
     7    55    56    1
     8    50    49    1
     9    49    52    1
    10    49    48    1
    11    77    74    1
    12    77    78    1
    13    65    64    2
    14    52    53    1
    15    56    62   am
    16    56    57    2
    17    62    63    1
    18    74    75    1
    19    74    73    1
    20    76    75    2
    21    64    73   am
    22    64    63    1
    23    78    79   ar
    24    78    80   ar
    25    75    87   am
    26    79    81   ar
    27    63    66    1
    28    80    83   ar
    29    80    82   ar
    30    66    67    1
    31    83    85   ar
    32    81    82   ar
    33    87    88    1
    34    44    43    2
    35    82    84   ar
    36    85    86   ar
    37    68    67   ar
    38    68    70   ar
    39    88    89    1
    40    88    91    1
    41    67    69   ar
    42    38    37    2
    43    43    42    1
    44    84    86   ar
    45    89    90    2
    46    47    45    1
    47    70    72   ar
    48    42    45    1
    49    42    41    1
    50    91    92    1
    51    37    41   am
    52    37    36    1
    53    40    39    1
    54    69    71   ar
    55    45    46    1
    56    92    93    1
    57    36    39    1
    58    36    35    1
    59    72    71   ar
    60    94    93    1
    61    94    95    1
    62    32    34   ar
    63    32    30   ar
    64   137   136    1
    65    34    33   ar
    66    27    26    2
    67   134   133    1
    68   134   135    1
    69    30    29   ar
    70   136   135    2
    71   136   138    1
    72   133   132    1
    73    22    21    2
    74    33    31   ar
    75    26    25    1
    76    29    31   ar
    77    29    28    1
    78    25    28    1
    79    25    24    1
    80   132   129    1
    81    21    24   am
    82    21    20    1
    83   103   101   ar
    84   131   130    2
    85   129   130    1
    86   129   128    1
    87    20    23    1
    88    20    19    1
    89    99    98    2
    90   101   100    1
    91   101   102   ar
    92   100    97    1
    93   128   120   am
    94     4     3    2
    95    98   104   am
    96    98    97    1
    97   105   104    1
    98   105   106    1
    99     8     7   ar
   100    97    96    1
   101   107   106    2
   102   121   120    2
   103   120   119    1
   104     3     2    1
   105   106   108   am
   106    13    12    2
   107    18    16   ar
   108     5     2    1
   109     5     6    1
   110     7     6    1
   111     7     9   ar
   112    17    16   ar
   113    16    15    1
   114     1     2    1
   115   122   119    1
   116   122   123    1
   117   119   118    1
   118   108   109    1
   119    12    11    1
   120   118   110   am
   121    15    14    1
   122    11    14    1
   123    11    10    1
   124   110   111    2
   125   110   109    1
   126   109   112    1
   127   147   146    1
   128   123   124   ar
   129   123   125   ar
   130   124   126   ar
   131   125   127   ar
   132   112   113    1
   133   146   145    1
   134   114   113   ar
   135   114   116   ar
   136   126   127   ar
   137   113   115   ar
   138   116   117   ar
   139   145   144    1
   140   115   117   ar
   141   144   143    1
   142   143   140    1
   143   140   141    1
   144   140   139    1
   145   142   141    2
