@<TRIPOS>MOLECULE
tmp/5x0rA00.pdb
 236 225 0 0 0
SMALL
GASTEIGER

@<TRIPOS>ATOM
      1  N         23.9310    5.4400   23.3960 N.3    37  VAL37      -0.1245
      2  CA        22.8490    5.9620   24.2370 C.3    37  VAL37       0.1561
      3  C         21.5230    6.1160   23.4870 C.2    37  VAL37       0.2260
      4  O         21.4830    6.3560   22.2880 O.2    37  VAL37      -0.2867
      5  CB        23.1570    7.3720   24.8280 C.3    37  VAL37       0.0252
      6  CG1       23.9640    7.2830   26.1340 C.3    37  VAL37       0.0019
      7  CG2       23.8330    8.2780   23.7940 C.3    37  VAL37       0.0019
      8  N         25.8250   11.5140   16.4900 N.3    58  LEU58      -0.1245
      9  CA        27.0220   12.2870   16.7030 C.3    58  LEU58       0.1561
     10  C         26.8210   13.7850   16.4010 C.2    58  LEU58       0.2260
     11  O         27.2930   14.6260   17.1710 O.2    58  LEU58      -0.2867
     12  CB        28.1950   11.6740   15.9210 C.3    58  LEU58       0.0270
     13  CG        28.9440   10.5490   16.6630 C.3    58  LEU58       0.0019
     14  CD1       30.0860   10.0540   15.7850 C.3    58  LEU58       0.0001
     15  CD2       29.4510   10.8680   18.0660 C.3    58  LEU58       0.0001
     16  N         25.4480   15.0240   19.4780 N.3    61  MET61      -0.1230
     17  CA        26.3980   15.0440   20.5670 C.3    61  MET61       0.1702
     18  C         27.3660   16.2030   20.3720 C.2    61  MET61       0.2592
     19  O         27.8150   16.8150   21.3320 O.2    61  MET61      -0.2718
     20  CB        27.1670   13.7240   20.6240 C.3    61  MET61       0.0401
     21  CG        26.3540   12.4870   20.9700 C.3    61  MET61       0.0596
     22  SD        25.3520   12.6410   22.4520 S.3    61  MET61      -0.1393
     23  CE        23.9150   11.7390   21.8990 C.3    61  MET61       0.0692
     24  N         27.7080   16.4670   19.1230 N.am   62  ALA62      -0.1980
     25  CA        28.6050   17.5540   18.7960 C.3    62  ALA62       0.1597
     26  C         27.9670   18.8690   19.1990 C.2    62  ALA62       0.2287
     27  O         28.6220   19.7240   19.7740 O.2    62  ALA62      -0.2864
     28  CB        28.8970   17.5630   17.2990 C.3    62  ALA62       0.0319
     29  N         25.6280   19.2110   21.5450 N.3    64  MET64      -0.1230
     30  CA        25.6070   19.2020   23.0040 C.3    64  MET64       0.1702
     31  C         26.9690   19.5860   23.5890 C.2    64  MET64       0.2593
     32  O         27.0450   20.3940   24.5110 O.2    64  MET64      -0.2718
     33  CB        25.1780   17.8120   23.5100 C.3    64  MET64       0.0401
     34  CG        25.2840   17.5740   25.0010 C.3    64  MET64       0.0596
     35  SD        24.4320   18.8650   25.9000 S.3    64  MET64      -0.1393
     36  CE        22.8270   18.1600   26.2070 C.3    64  MET64       0.0692
     37  N         28.0300   19.0150   23.0390 N.am   65  SER65      -0.1952
     38  CA        29.3850   19.2330   23.5580 C.3    65  SER65       0.1924
     39  C         29.8030   20.6500   23.3470 C.2    65  SER65       0.2314
     40  O         30.4360   21.2340   24.2130 O.2    65  SER65      -0.2863
     41  CB        30.4370   18.3520   22.8750 C.3    65  SER65       0.2116
     42  OG        30.4480   17.0790   23.4960 O.3    65  SER65      -0.2180
     43  N         30.8970   23.3500   26.0140 N.3    69  PHE69      -0.1241
     44  CA        32.1770   23.9990   25.9930 C.3    69  PHE69       0.1605
     45  C         32.0700   25.4940   26.0060 C.2    69  PHE69       0.2264
     46  O         32.8820   26.1440   26.6260 O.2    69  PHE69      -0.2867
     47  CB        33.0220   23.5510   24.8110 C.3    69  PHE69       0.0534
     48  CG        34.4480   24.0210   24.9140 C.ar   69  PHE69      -0.0203
     49  CD1       35.2100   23.7360   26.0520 C.ar   69  PHE69      -0.0042
     50  CD2       35.0210   24.7750   23.9130 C.ar   69  PHE69      -0.0042
     51  CE1       36.5150   24.1620   26.1550 C.ar   69  PHE69      -0.0003
     52  CE2       36.3300   25.1870   24.0040 C.ar   69  PHE69      -0.0003
     53  CZ        37.0730   24.8920   25.1270 C.ar   69  PHE69      -0.0000
     54  N         41.9900   24.5240   25.3020 N.3    95  LYS95      -0.1245
     55  CA        42.1350   23.3940   24.3840 C.3    95  LYS95       0.1561
     56  C         42.4790   22.1190   25.1640 C.2    95  LYS95       0.2260
     57  O         42.0120   21.0640   24.8410 O.2    95  LYS95      -0.2867
     58  CB        43.2030   23.7280   23.3400 C.3    95  LYS95       0.0271
     59  CG        43.5320   22.7080   22.2540 C.3    95  LYS95       0.0035
     60  CD        44.6250   23.3010   21.3310 C.3    95  LYS95       0.0206
     61  CE        45.0320   22.3940   20.1870 C.3    95  LYS95       0.1093
     62  NZ        43.9910   22.3880   19.1120 N.3    95  LYS95      -0.1314
     63  N         39.1210   21.1030   27.8290 N.3    98  ALA98      -0.1231
     64  CA        37.7420   21.1780   27.3920 C.3    98  ALA98       0.1694
     65  C         37.0000   19.8890   27.6740 C.2    98  ALA98       0.2592
     66  O         35.9320   19.9150   28.2840 O.2    98  ALA98      -0.2718
     67  CB        37.6770   21.5130   25.9010 C.3    98  ALA98       0.0304
     68  N         37.5640   18.7760   27.2210 N.am   99  PHE99      -0.1976
     69  CA        36.9210   17.4900   27.3550 C.3    99  PHE99       0.1639
     70  C         36.6930   17.1690   28.8320 C.2    99  PHE99       0.2290
     71  O         35.5700   16.8460   29.2510 O.2    99  PHE99      -0.2864
     72  CB        37.7170   16.3960   26.6160 C.3    99  PHE99       0.0560
     73  CG        37.2440   15.0040   26.9010 C.ar   99  PHE99      -0.0200
     74  CD1       36.1730   14.4920   26.2280 C.ar   99  PHE99      -0.0042
     75  CD2       37.8530   14.2310   27.9100 C.ar   99  PHE99      -0.0042
     76  CE1       35.7060   13.2240   26.5070 C.ar   99  PHE99      -0.0003
     77  CE2       37.3830   12.9630   28.2090 C.ar   99  PHE99      -0.0003
     78  CZ        36.3030   12.4540   27.4850 C.ar   99  PHE99      -0.0000
     79  N         33.9800   19.3050   30.5100 N.3   102  CYS102     -0.1221
     80  CA        32.6470   18.9190   30.1160 C.3   102  CYS102      0.1808
     81  C         32.2220   17.6890   30.8880 C.2   102  CYS102      0.2601
     82  O         31.1030   17.6690   31.4440 O.2   102  CYS102     -0.2717
     83  CB        32.5380   18.6370   28.6220 C.3   102  CYS102      0.0970
     84  SG        32.8400   20.1180   27.6810 S.3   102  CYS102     -0.0800
     85  N         33.1070   16.6780   30.9230 N.am  103  GLN103     -0.1979
     86  CA        32.7810   15.4430   31.6090 C.3   103  GLN103      0.1601
     87  C         32.4680   15.6860   33.0770 C.2   103  GLN103      0.2287
     88  O         31.4650   15.1610   33.5800 O.2   103  GLN103     -0.2864
     89  CB        33.8970   14.4330   31.5020 C.3   103  GLN103      0.0394
     90  CG        34.1370   13.8780   30.0950 C.3   103  GLN103      0.0908
     91  CD        32.8940   13.3500   29.4760 C.2   103  GLN103      0.2608
     92  OE1       32.0280   12.7770   30.1510 O.2   103  GLN103     -0.2717
     93  NE2       32.7590   13.5770   28.1920 N.am  103  GLN103     -0.0878
     94  N         29.0750   17.2000   33.2970 N.3   106  PHE106     -0.1241
     95  CA        28.0910   16.1540   32.9970 C.3   106  PHE106      0.1605
     96  C         27.9290   15.1740   34.1140 C.2   106  PHE106      0.2264
     97  O         26.8700   14.5830   34.2470 O.2   106  PHE106     -0.2867
     98  CB        28.4490   15.2980   31.7800 C.3   106  PHE106      0.0534
     99  CG        27.9390   15.8230   30.5010 C.ar  106  PHE106     -0.0203
    100  CD1       26.5860   16.0450   30.3160 C.ar  106  PHE106     -0.0042
    101  CD2       28.8340   16.0770   29.4410 C.ar  106  PHE106     -0.0042
    102  CE1       26.1200   16.5380   29.1240 C.ar  106  PHE106     -0.0003
    103  CE2       28.3790   16.5680   28.2170 C.ar  106  PHE106     -0.0003
    104  CZ        27.0200   16.8080   28.0710 C.ar  106  PHE106     -0.0000
    105  N         22.0880   10.4910   32.1860 N.3   117  TRP117     -0.1241
    106  CA        22.3710   11.9160   32.3140 C.3   117  TRP117      0.1605
    107  C         21.1000   12.7620   32.1300 C.2   117  TRP117      0.2264
    108  O         20.5170   12.7390   31.0860 O.2   117  TRP117     -0.2867
    109  CB        23.4310   12.3210   31.2760 C.3   117  TRP117      0.0550
    110  CG        24.7360   11.6670   31.5310 C.ar  117  TRP117      0.0003
    111  CD1       25.7200   12.1430   32.3090 C.ar  117  TRP117      0.0946
    112  CD2       25.1860   10.4080   31.0390 C.ar  117  TRP117      0.0152
    113  NE1       26.7650   11.2900   32.3230 N.ar  117  TRP117     -0.2442
    114  CE2       26.4610   10.1950   31.5690 C.ar  117  TRP117      0.0810
    115  CE3       24.6250    9.4260   30.2250 C.ar  117  TRP117      0.0012
    116  CZ2       27.2080    9.0440   31.3010 C.ar  117  TRP117      0.0191
    117  CZ3       25.3670    8.2760   29.9490 C.ar  117  TRP117      0.0001
    118  CH2       26.6410    8.1050   30.4820 C.ar  117  TRP117      0.0015
    119  N         19.8810   11.1240   28.3820 N.3   124  TYR124     -0.1241
    120  CA        20.6660   10.1570   27.6300 C.3   124  TYR124      0.1605
    121  C         20.7500    8.9720   28.5150 C.2   124  TYR124      0.2264
    122  O         21.1060    9.1130   29.6480 O.2   124  TYR124     -0.2867
    123  CB        22.0560   10.7150   27.3380 C.3   124  TYR124      0.0534
    124  CG        21.9780   12.0350   26.6250 C.ar  124  TYR124     -0.0201
    125  CD1       22.0050   13.2290   27.3340 C.ar  124  TYR124     -0.0009
    126  CD2       21.8280   12.0950   25.2310 C.ar  124  TYR124     -0.0009
    127  CE1       21.9190   14.4440   26.6720 C.ar  124  TYR124      0.0417
    128  CE2       21.7340   13.2990   24.5670 C.ar  124  TYR124      0.0417
    129  CZ        21.7840   14.4760   25.2940 C.ar  124  TYR124      0.1957
    130  OH        21.7030   15.6860   24.6510 O.3   124  TYR124     -0.2866
    131  N         21.5840    4.4440   28.7900 N.3   126  LEU126     -0.1245
    132  CA        22.3260    3.3650   28.0720 C.3   126  LEU126      0.1561
    133  C         21.9260    1.9530   28.4760 C.2   126  LEU126      0.2260
    134  O         20.7450    1.6270   28.4340 O.2   126  LEU126     -0.2867
    135  CB        23.8490    3.5680   28.1720 C.3   126  LEU126      0.0270
    136  CG        24.3560    4.5060   29.2890 C.3   126  LEU126      0.0019
    137  CD1       24.1010    3.9650   30.6820 C.3   126  LEU126      0.0001
    138  CD2       25.8390    4.7780   29.1060 C.3   126  LEU126      0.0001
    139  N         33.3080    0.0910   29.4390 N.3   129  GLU129     -0.1245
    140  CA        33.7520    1.3020   28.7180 C.3   129  GLU129      0.1567
    141  C         34.2660    2.2890   29.7680 C.2   129  GLU129      0.2260
    142  O         33.5190    2.6760   30.6680 O.2   129  GLU129     -0.2867
    143  CB        32.6340    1.9470   27.8820 C.3   129  GLU129      0.0388
    144  CG        33.0560    3.1680   27.1240 C.3   129  GLU129      0.1160
    145  CD        32.0330    3.7590   26.2030 C.2   129  GLU129      0.3649
    146  OE1       30.9120    3.2980   26.1700 O.co2 129  GLU129     -0.2457
    147  OE2       32.2360    4.8110   25.5780 O.co2 129  GLU129     -0.2457
    148  N         34.6310    5.4460   29.9270 N.3   131  MET131     -0.1245
    149  CA        33.8640    6.6630   30.1160 C.3   131  MET131      0.1570
    150  C         32.6830    6.4380   31.0510 C.2   131  MET131      0.2261
    151  O         32.4010    7.2580   31.9130 O.2   131  MET131     -0.2867
    152  CB        33.3720    7.1790   28.7750 C.3   131  MET131      0.0387
    153  CG        33.0080    8.6530   28.7970 C.3   131  MET131      0.0595
    154  SD        32.9160    9.3720   27.1570 S.3   131  MET131     -0.1393
    155  CE        34.6110    9.2260   26.5950 C.3   131  MET131      0.0692
    156  N         32.1140    7.8050   35.1020 N.3   135  HIS135     -0.1241
    157  CA        30.9500    8.4280   35.6710 C.3   135  HIS135      0.1621
    158  C         30.4610    7.7150   36.9230 C.2   135  HIS135      0.2264
    159  O         30.1040    8.3780   37.8910 O.2   135  HIS135     -0.2867
    160  CB        29.8610    8.6600   34.6230 C.3   135  HIS135      0.0745
    161  CG        30.1700    9.8090   33.7100 C.ar  135  HIS135      0.0817
    162  ND1       29.9460   11.1230   34.0650 N.ar  135  HIS135     -0.2268
    163  CD2       30.8000    9.8510   32.5120 C.ar  135  HIS135      0.1154
    164  CE1       30.3870   11.9200   33.1080 C.ar  135  HIS135      0.1986
    165  NE2       30.9200   11.1740   32.1560 N.ar  135  HIS135     -0.2212
    166  N         40.3530   10.9540   27.6920 N.3   209  ASN209     -0.1240
    167  CA        40.5100   12.0350   26.7390 C.3   209  ASN209      0.1653
    168  C         41.4120   11.6690   25.5580 C.2   209  ASN209      0.2266
    169  O         41.0830   11.9240   24.3990 O.2   209  ASN209     -0.2867
    170  CB        41.1090   13.2290   27.4740 C.3   209  ASN209      0.1155
    171  CG        41.1690   14.4830   26.6330 C.2   209  ASN209      0.2627
    172  OD1       40.6170   14.5510   25.5500 O.2   209  ASN209     -0.2716
    173  ND2       41.8030   15.5110   27.1770 N.am  209  ASN209     -0.0877
    174  N         39.7470    9.0630   23.4780 N.3   212  HIS212     -0.1226
    175  CA        38.4800    9.4340   22.8780 C.3   212  HIS212      0.1752
    176  C         38.7210   10.4190   21.7570 C.2   212  HIS212      0.2596
    177  O         38.0780   10.3650   20.7210 O.2   212  HIS212     -0.2718
    178  CB        37.4810    9.9920   23.9080 C.3   212  HIS212      0.0759
    179  CG        36.0550    9.7980   23.4840 C.ar  212  HIS212      0.0818
    180  ND1       35.5310    8.5480   23.2080 N.ar  212  HIS212     -0.2268
    181  CD2       35.0610   10.6870   23.2300 C.ar  212  HIS212      0.1154
    182  CE1       34.2760    8.6750   22.8120 C.ar  212  HIS212      0.1986
    183  NE2       33.9640    9.9610   22.8240 N.ar  212  HIS212     -0.2212
    184  N         39.6530   11.3230   21.9740 N.am  213  THR213     -0.1953
    185  CA        40.1200   12.1740   20.9020 C.3   213  THR213      0.1897
    186  C         40.6220   11.3510   19.7060 C.2   213  THR213      0.2313
    187  O         40.3210   11.6910   18.5640 O.2   213  THR213     -0.2863
    188  CB        41.2560   13.0620   21.4070 C.3   213  THR213      0.1794
    189  OG1       40.7570   13.8630   22.4850 O.3   213  THR213     -0.2208
    190  CG2       41.8060   13.9320   20.2910 C.3   213  THR213      0.0378
    191  N         37.6530   10.0260   17.8340 N.3   216  LEU216     -0.1245
    192  CA        36.7920   11.0370   17.2410 C.3   216  LEU216      0.1561
    193  C         37.4490   11.6260   15.9900 C.2   216  LEU216      0.2260
    194  O         36.7580   11.9120   14.9990 O.2   216  LEU216     -0.2867
    195  CB        36.3970   12.1100   18.2820 C.3   216  LEU216      0.0270
    196  CG        35.2090   11.7940   19.2540 C.3   216  LEU216      0.0019
    197  CD1       34.6700   13.0630   19.9150 C.3   216  LEU216      0.0001
    198  CD2       34.0230   11.0360   18.6710 C.3   216  LEU216      0.0001
    199  N         31.4620   15.4280   11.2650 N.3   225  PHE225     -0.1241
    200  CA        30.3100   15.7530   12.1120 C.3   225  PHE225      0.1605
    201  C         30.5420   16.9660   13.0580 C.2   225  PHE225      0.2264
    202  O         29.5880   17.4890   13.6580 O.2   225  PHE225     -0.2867
    203  CB        29.9200   14.5280   12.9660 C.3   225  PHE225      0.0534
    204  CG        30.9420   14.1640   14.0140 C.ar  225  PHE225     -0.0203
    205  CD1       30.8240   14.6410   15.2960 C.ar  225  PHE225     -0.0042
    206  CD2       32.0400   13.3790   13.6900 C.ar  225  PHE225     -0.0042
    207  CE1       31.7880   14.3610   16.2330 C.ar  225  PHE225     -0.0003
    208  CE2       32.9930   13.0760   14.6170 C.ar  225  PHE225     -0.0003
    209  CZ        32.8720   13.5690   15.8950 C.ar  225  PHE225     -0.0000
    210  N         34.4530   22.7540   17.6640 N.3   230  MET230     -0.1245
    211  CA        35.1470   21.4790   17.8860 C.3   230  MET230      0.1570
    212  C         36.3490   21.3250   16.9690 C.2   230  MET230      0.2261
    213  O         37.4080   20.9420   17.4180 O.2   230  MET230     -0.2867
    214  CB        34.2470   20.2890   17.6960 C.3   230  MET230      0.0387
    215  CG        33.2490   20.1340   18.7990 C.3   230  MET230      0.0595
    216  SD        32.0090   18.9100   18.4090 S.3   230  MET230     -0.1393
    217  CE        33.0150   17.4390   18.5450 C.3   230  MET230      0.0692
    218  N         39.1760   23.0300   18.4150 N.3   233  LEU233     -0.1231
    219  CA        39.7000   22.2230   19.5230 C.3   233  LEU233      0.1693
    220  C         40.5250   21.0070   19.0810 C.2   233  LEU233      0.2592
    221  O         41.5310   20.7190   19.7040 O.2   233  LEU233     -0.2718
    222  CB        38.6010   21.7470   20.4470 C.3   233  LEU233      0.0284
    223  CG        38.1370   22.6660   21.5470 C.3   233  LEU233      0.0019
    224  CD1       38.6620   24.0710   21.4000 C.3   233  LEU233      0.0001
    225  CD2       36.6280   22.6740   21.5870 C.3   233  LEU233      0.0001
    226  N         40.1290   20.3150   18.0200 N.am  234  PHE234     -0.1976
    227  CA        40.8280   19.0890   17.6180 C.3   234  PHE234      0.1639
    228  C         42.0250   19.3340   16.7150 C.2   234  PHE234      0.2290
    229  O         42.7030   18.3800   16.3260 O.2   234  PHE234     -0.2864
    230  CB        39.8970   18.1490   16.8570 C.3   234  PHE234      0.0560
    231  CG        38.8430   17.4880   17.7070 C.ar  234  PHE234     -0.0200
    232  CD1       37.7280   16.9270   17.1030 C.ar  234  PHE234     -0.0042
    233  CD2       38.9480   17.4310   19.0960 C.ar  234  PHE234     -0.0042
    234  CE1       36.7400   16.3170   17.8520 C.ar  234  PHE234     -0.0003
    235  CE2       37.9550   16.8290   19.8560 C.ar  234  PHE234     -0.0003
    236  CZ        36.8490   16.2730   19.2340 C.ar  234  PHE234     -0.0000
@<TRIPOS>BOND
     1   199   200    1
     2   200   203    1
     3   200   201    1
     4   203   204    1
     5   201   202    2
     6   206   204   ar
     7   206   208   ar
     8   204   205   ar
     9   208   209   ar
    10   194   193    2
    11   205   207   ar
    12    14    13    1
    13   209   207   ar
    14    12    13    1
    15    12     9    1
    16   193   192    1
    17   229   228    2
    18    10     9    1
    19    10    11    2
    20     8     9    1
    21    13    15    1
    22   228   227    1
    23   230   227    1
    24   230   231    1
    25   212   213    2
    26   212   211    1
    27   232   231   ar
    28   232   234   ar
    29   192   191    1
    30   192   195    1
    31    28    25    1
    32   227   226    1
    33   210   211    1
    34   214   211    1
    35   214   215    1
    36   231   233   ar
    37   234   236   ar
    38   226   220   am
    39   195   196    1
    40   216   217    1
    41   216   215    1
    42   218   219    1
    43   187   186    2
    44   198   196    1
    45    25    24    1
    46    25    26    1
    47   220   219    1
    48   220   221    2
    49   233   235   ar
    50    62    61    1
    51    24    18   am
    52    26    27    2
    53   236   235   ar
    54   196   197    1
    55    16    17    1
    56   219   222    1
    57   186   185    1
    58    61    60    1
    59   190   188    1
    60    18    17    1
    61    18    19    2
    62   222   223    1
    63    17    20    1
    64    20    21    1
    65   177   176    2
    66   185   188    1
    67   185   184    1
    68    21    22    1
    69    60    59    1
    70   224   223    1
    71   188   189    1
    72    29    30    1
    73   223   225    1
    74   176   184   am
    75   176   175    1
    76    23    22    1
    77    59    58    1
    78     4     3    2
    79   182   183   ar
    80   182   180   ar
    81   183   181   ar
    82    41    42    1
    83    41    38    1
    84   175   174    1
    85   175   178    1
    86    30    33    1
    87    30    31    1
    88    37    38    1
    89    37    31   am
    90   180   179   ar
    91   181   179   ar
    92    58    55    1
    93    39    38    1
    94    39    40    2
    95     1     2    1
    96   179   178    1
    97     3     2    1
    98    33    34    1
    99    31    32    2
   100     7     5    1
   101    50    52   ar
   102    50    48   ar
   103    52    53   ar
   104     2     5    1
   105    55    56    1
   106    55    54    1
   107   169   168    2
   108   128   126   ar
   109   128   129   ar
   110   130   129    1
   111    47    48    1
   112    47    44    1
   113     5     6    1
   114    57    56    2
   115    48    49   ar
   116    34    35    1
   117    53    51   ar
   118   126   124   ar
   119   129   127   ar
   120   172   171    2
   121   168   167    1
   122   147   145   ar
   123    35    36    1
   124    67    64    1
   125    44    45    1
   126    44    43    1
   127    45    46    2
   128    49    51   ar
   129   146   145   ar
   130   145   144    1
   131    74    76   ar
   132    74    73   ar
   133    76    78   ar
   134   155   154    1
   135    72    73    1
   136    72    69    1
   137   124   125   ar
   138   124   123    1
   139   171   173   am
   140   171   170    1
   141   127   125   ar
   142   167   170    1
   143   167   166    1
   144    73    75   ar
   145   144   143    1
   146   154   153    1
   147    68    69    1
   148    68    65   am
   149   123   120    1
   150    69    70    1
   151    64    65    1
   152    64    63    1
   153    78    77   ar
   154   120   119    1
   155   120   121    1
   156    65    66    2
   157    84    83    1
   158   143   140    1
   159    75    77   ar
   160   104   103   ar
   161   104   102   ar
   162   132   135    1
   163   132   133    1
   164   132   131    1
   165   135   136    1
   166    93    91   am
   167   103   101   ar
   168   134   133    2
   169   121   122    2
   170    83    80    1
   171   140   139    1
   172   140   141    1
   173   152   153    1
   174   152   149    1
   175    70    71    2
   176   138   136    1
   177   102   100   ar
   178   136   137    1
   179   101    99   ar
   180    91    90    1
   181    91    92    2
   182   141   142    2
   183   148   149    1
   184   117   115   ar
   185   117   118   ar
   186    90    89    1
   187   149   150    1
   188    80    79    1
   189    80    81    1
   190   115   112   ar
   191   100    99   ar
   192   118   116   ar
   193    99    98    1
   194    81    85   am
   195    81    82    2
   196    85    86    1
   197   112   110   ar
   198   112   114   ar
   199   150   151    2
   200   108   107    2
   201   109   110    1
   202   109   106    1
   203   116   114   ar
   204    89    86    1
   205   110   111   ar
   206   114   113   ar
   207    86    87    1
   208    98    95    1
   209   107   106    1
   210   165   163   ar
   211   165   164   ar
   212   105   106    1
   213   111   113   ar
   214   163   161   ar
   215    95    94    1
   216    95    96    1
   217    87    88    2
   218   164   162   ar
   219   161   162   ar
   220   161   160    1
   221    96    97    2
   222   160   157    1
   223   156   157    1
   224   157   158    1
   225   158   159    2
