@<TRIPOS>MOLECULE
tmp/5x0rB00.pdb
 253 242 0 0 0
SMALL
GASTEIGER

@<TRIPOS>ATOM
      1  N         -9.3160    6.8390   22.3060 N.3    42  LEU42      -0.1245
      2  CA        -8.5390    6.4310   21.1380 C.3    42  LEU42       0.1561
      3  C         -7.1210    7.0150   21.1410 C.2    42  LEU42       0.2260
      4  O         -6.5830    7.3310   20.0760 O.2    42  LEU42      -0.2867
      5  CB        -9.2410    6.8750   19.8490 C.3    42  LEU42       0.0270
      6  CG       -10.6960    6.4710   19.6100 C.3    42  LEU42       0.0019
      7  CD1      -11.3040    7.3830   18.5550 C.3    42  LEU42       0.0001
      8  CD2      -10.8140    5.0110   19.1900 C.3    42  LEU42       0.0001
      9  N         -3.2740    6.9520   20.9690 N.3    44  VAL44      -0.1245
     10  CA        -2.2170    6.0440   20.5130 C.3    44  VAL44       0.1561
     11  C         -0.8240    6.6250   20.7070 C.2    44  VAL44       0.2260
     12  O         -0.6020    7.8350   20.6050 O.2    44  VAL44      -0.2867
     13  CB        -2.3460    5.6550   19.0030 C.3    44  VAL44       0.0252
     14  CG1       -3.2860    4.4740   18.8140 C.3    44  VAL44       0.0019
     15  CG2       -2.7590    6.8630   18.1610 C.3    44  VAL44       0.0019
     16  N         -3.3770   14.7000   15.6520 N.3    73  LEU73      -0.1245
     17  CA        -4.4500   14.7230   14.6570 C.3    73  LEU73       0.1561
     18  C         -3.9480   15.1820   13.2880 C.2    73  LEU73       0.2260
     19  O         -4.3090   14.5860   12.2770 O.2    73  LEU73      -0.2867
     20  CB        -5.6780   15.5410   15.1500 C.3    73  LEU73       0.0270
     21  CG        -6.9340   14.7390   15.6020 C.3    73  LEU73       0.0019
     22  CD1       -6.6230   13.4780   16.4020 C.3    73  LEU73       0.0001
     23  CD2       -7.9110   15.6210   16.3660 C.3    73  LEU73       0.0001
     24  N         -2.6720   12.1340   11.8720 N.3    76  MET76      -0.1230
     25  CA        -3.7140   11.1890   11.5300 C.3    76  MET76       0.1702
     26  C         -4.4420   11.6640   10.2720 C.2    76  MET76       0.2592
     27  O         -4.8480   10.8650    9.4320 O.2    76  MET76      -0.2718
     28  CB        -4.7100   11.0500   12.6740 C.3    76  MET76       0.0401
     29  CG        -4.1740   10.4330   13.9600 C.3    76  MET76       0.0596
     30  SD        -3.2060    8.9030   13.7730 S.3    76  MET76      -0.1393
     31  CE        -4.1810    7.8830   12.6590 C.3    76  MET76       0.0692
     32  N         -4.5910   12.9730   10.1450 N.am   77  ALA77      -0.1980
     33  CA        -5.1960   13.5450    8.9730 C.3    77  ALA77       0.1597
     34  C         -4.3390   13.2090    7.7310 C.2    77  ALA77       0.2287
     35  O         -4.8780   12.8590    6.6820 O.2    77  ALA77      -0.2864
     36  CB        -5.3330   15.0520    9.1310 C.3    77  ALA77       0.0319
     37  N         -4.7590    9.5540    6.9340 N.3    80  SER80      -0.1202
     38  CA        -6.0810    9.2430    6.4810 C.3    80  SER80       0.2020
     39  C         -6.2250    9.6590    5.0290 C.2    80  SER80       0.2619
     40  O         -6.8410    8.9650    4.2330 O.2    80  SER80      -0.2717
     41  CB        -7.0690   10.0200    7.3410 C.3    80  SER80       0.2103
     42  OG        -7.0080   11.3830    6.9500 O.3    80  SER80      -0.2182
     43  N         -5.6420   10.8070    4.7260 N.am   81  THR81      -0.1952
     44  CA        -5.6150   11.3730    3.3910 C.3    81  THR81       0.1897
     45  C         -4.8600   10.4490    2.4270 C.2    81  THR81       0.2313
     46  O         -5.4070   10.0940    1.4150 O.2    81  THR81      -0.2863
     47  CB        -5.0510   12.8170    3.4350 C.3    81  THR81       0.1794
     48  OG1       -5.9470   13.6360    4.2130 O.3    81  THR81      -0.2208
     49  CG2       -4.9330   13.3970    2.0570 C.3    81  THR81       0.0378
     50  N         -7.1010    7.4960    1.8410 N.3    84  PHE84      -0.1241
     51  CA        -8.2220    7.7680    1.0040 C.3    84  PHE84       0.1605
     52  C         -7.8310    7.9080   -0.4560 C.2    84  PHE84       0.2264
     53  O         -8.5490    7.4590   -1.2970 O.2    84  PHE84      -0.2867
     54  CB        -8.9640    9.0030    1.4280 C.3    84  PHE84       0.0534
     55  CG       -10.2610    9.1630    0.6990 C.ar   84  PHE84      -0.0203
     56  CD1      -11.2180    8.1280    0.7200 C.ar   84  PHE84      -0.0042
     57  CD2      -10.5410   10.3120   -0.0200 C.ar   84  PHE84      -0.0042
     58  CE1      -12.4210    8.2570    0.0550 C.ar   84  PHE84      -0.0003
     59  CE2      -11.7450   10.4450   -0.6790 C.ar   84  PHE84      -0.0003
     60  CZ       -12.6880    9.4220   -0.6320 C.ar   84  PHE84      -0.0000
     61  N        -17.6960    9.9090   -1.0610 N.3   110  LYS110     -0.1245
     62  CA       -17.9620   10.6920    0.1710 C.3   110  LYS110      0.1561
     63  C        -18.5910    9.8300    1.2530 C.2   110  LYS110      0.2260
     64  O        -18.2580    9.9210    2.4140 O.2   110  LYS110     -0.2867
     65  CB       -18.8730   11.9010   -0.0930 C.3   110  LYS110      0.0271
     66  CG       -18.1950   12.9750   -0.9030 C.3   110  LYS110      0.0035
     67  CD       -18.7270   14.3810   -0.7360 C.3   110  LYS110      0.0206
     68  CE       -20.1230   14.5390   -0.1710 C.3   110  LYS110      0.1093
     69  NZ       -20.1080   14.6270    1.3090 N.3   110  LYS110     -0.1314
     70  N        -15.7860    6.6190    2.3580 N.3   113  ALA113     -0.1231
     71  CA       -14.3790    6.8450    2.5690 C.3   113  ALA113      0.1694
     72  C        -13.9560    6.3030    3.9160 C.2   113  ALA113      0.2592
     73  O        -12.9810    5.5590    4.0140 O.2   113  ALA113     -0.2718
     74  CB       -14.0560    8.3400    2.4760 C.3   113  ALA113      0.0304
     75  N        -14.6800    6.7010    4.9520 N.am  114  PHE114     -0.1976
     76  CA       -14.3540    6.2880    6.3010 C.3   114  PHE114      0.1639
     77  C        -14.3810    4.7450    6.4310 C.2   114  PHE114      0.2290
     78  O        -13.4130    4.1270    6.8790 O.2   114  PHE114     -0.2864
     79  CB       -15.2660    6.9830    7.3330 C.3   114  PHE114      0.0560
     80  CG       -15.1280    6.4400    8.7130 C.ar  114  PHE114     -0.0200
     81  CD1      -14.0850    6.8510    9.5350 C.ar  114  PHE114     -0.0042
     82  CD2      -16.0100    5.4660    9.1730 C.ar  114  PHE114     -0.0042
     83  CE1      -13.9360    6.3430   10.8150 C.ar  114  PHE114     -0.0003
     84  CE2      -15.8640    4.9310   10.4500 C.ar  114  PHE114     -0.0003
     85  CZ       -14.8190    5.3750   11.2710 C.ar  114  PHE114     -0.0000
     86  N        -11.5080    3.0290    4.6600 N.3   117  CYS117     -0.1221
     87  CA       -10.2500    3.1670    5.3340 C.3   117  CYS117      0.1808
     88  C        -10.1630    2.1900    6.4820 C.2   117  CYS117      0.2601
     89  O         -9.1460    1.4890    6.6170 O.2   117  CYS117     -0.2717
     90  CB       -10.0020    4.6000    5.8530 C.3   117  CYS117      0.0970
     91  SG        -9.8400    5.8080    4.5280 S.3   117  CYS117     -0.0800
     92  N        -11.2150    2.1560    7.3020 N.am  118  GLN118     -0.1979
     93  CA       -11.2540    1.2850    8.4600 C.3   118  GLN118      0.1601
     94  C        -11.0510   -0.1520    8.0760 C.2   118  GLN118      0.2287
     95  O        -10.2410   -0.8550    8.7160 O.2   118  GLN118     -0.2864
     96  CB       -12.5550    1.4040    9.2350 C.3   118  GLN118      0.0394
     97  CG       -12.7530    2.7510    9.9060 C.3   118  GLN118      0.0908
     98  CD       -11.5500    3.1460   10.7390 C.2   118  GLN118      0.2608
     99  OE1      -10.9310    2.3100   11.4140 O.2   118  GLN118     -0.2717
    100  NE2      -11.2150    4.4200   10.7060 N.am  118  GLN118     -0.0878
    101  N         -7.4740   -0.6430    7.1810 N.3   121  PHE121     -0.1241
    102  CA        -6.7140   -0.5920    8.4650 C.3   121  PHE121      0.1605
    103  C         -6.8920   -1.8190    9.3100 C.2   121  PHE121      0.2264
    104  O         -5.9730   -2.2000   10.0030 O.2   121  PHE121     -0.2867
    105  CB        -7.0850    0.5460    9.3970 C.3   121  PHE121      0.0534
    106  CG        -6.3110    1.7670    9.1850 C.ar  121  PHE121     -0.0203
    107  CD1       -6.9790    3.0040    8.9500 C.ar  121  PHE121     -0.0042
    108  CD2       -4.9410    1.7370    9.1870 C.ar  121  PHE121     -0.0042
    109  CE1       -6.2700    4.1690    8.7100 C.ar  121  PHE121     -0.0003
    110  CE2       -4.2160    2.8990    8.9300 C.ar  121  PHE121     -0.0003
    111  CZ        -4.8780    4.1160    8.6890 C.ar  121  PHE121     -0.0000
    112  N         -1.6960   -1.2490   15.0840 N.3   132  TRP132     -0.1241
    113  CA        -1.7740   -1.1970   13.6200 C.3   132  TRP132      0.1605
    114  C         -0.3630   -1.1130   13.0550 C.2   132  TRP132      0.2264
    115  O          0.3200   -0.1600   13.2830 O.2   132  TRP132     -0.2867
    116  CB        -2.6200    0.0140   13.1730 C.3   132  TRP132      0.0550
    117  CG        -4.0660   -0.1080   13.5720 C.ar  132  TRP132      0.0003
    118  CD1       -5.0540   -0.6510   12.8390 C.ar  132  TRP132      0.0946
    119  CD2       -4.6600    0.3040   14.8030 C.ar  132  TRP132      0.0152
    120  NE1       -6.2520   -0.6130   13.5190 N.ar  132  TRP132     -0.2442
    121  CE2       -6.0380   -0.0410   14.7370 C.ar  132  TRP132      0.0810
    122  CE3       -4.1640    0.8890   15.9760 C.ar  132  TRP132      0.0012
    123  CZ2       -6.9360    0.2140   15.7830 C.ar  132  TRP132      0.0191
    124  CZ3       -5.0740    1.1460   17.0350 C.ar  132  TRP132      0.0001
    125  CH2       -6.4320    0.8080   16.9240 C.ar  132  TRP132      0.0015
    126  N          1.0020    2.2350   15.2270 N.3   139  TYR139     -0.1241
    127  CA         0.1670    2.9570   16.1780 C.3   139  TYR139      0.1605
    128  C         -0.2040    1.9630   17.2420 C.2   139  TYR139      0.2264
    129  O         -0.7240    0.9260   16.9250 O.2   139  TYR139     -0.2867
    130  CB        -1.0700    3.5220   15.4790 C.3   139  TYR139      0.0534
    131  CG        -0.6830    4.3630   14.3070 C.ar  139  TYR139     -0.0201
    132  CD1       -0.5660    3.8110   13.0370 C.ar  139  TYR139     -0.0009
    133  CD2       -0.3240    5.6860   14.4700 C.ar  139  TYR139     -0.0009
    134  CE1       -0.1800    4.5850   11.9390 C.ar  139  TYR139      0.0417
    135  CE2        0.0640    6.4710   13.3870 C.ar  139  TYR139      0.0417
    136  CZ         0.1380    5.9220   12.1180 C.ar  139  TYR139      0.1957
    137  OH         0.5310    6.7080   11.0470 O.3   139  TYR139     -0.2866
    138  N         -2.1420    1.1330   20.9680 N.3   141  LEU141     -0.1245
    139  CA        -3.0420    1.5410   22.0280 C.3   141  LEU141      0.1561
    140  C         -2.3130    1.4770   23.3520 C.2   141  LEU141      0.2260
    141  O         -1.4740    0.6030   23.5850 O.2   141  LEU141     -0.2867
    142  CB        -4.2540    0.6230   22.1490 C.3   141  LEU141      0.0270
    143  CG        -5.5290    0.7920   21.3320 C.3   141  LEU141      0.0019
    144  CD1       -5.6580    2.1640   20.7030 C.3   141  LEU141      0.0001
    145  CD2       -5.5770   -0.3170   20.2930 C.3   141  LEU141      0.0001
    146  N        -15.3530    1.9860   17.9210 N.3   151  MET151     -0.1230
    147  CA       -14.3000    1.8540   16.9160 C.3   151  MET151      0.1702
    148  C        -13.2920    0.7670   17.2710 C.2   151  MET151      0.2592
    149  O        -12.8600    0.0080   16.4250 O.2   151  MET151     -0.2718
    150  CB       -13.5750    3.1790   16.7520 C.3   151  MET151      0.0401
    151  CG       -12.8240    3.3260   15.4390 C.3   151  MET151      0.0596
    152  SD       -12.4590    5.0900   15.1440 S.3   151  MET151     -0.1393
    153  CE       -10.9130    5.0350   14.2410 C.3   151  MET151      0.0692
    154  N        -12.9020    0.7030   18.5300 N.am  152  LEU152     -0.1980
    155  CA       -11.9700   -0.3120   18.9720 C.3   152  LEU152      0.1596
    156  C        -12.6190   -1.6770   18.9590 C.2   152  LEU152      0.2287
    157  O        -12.0100   -2.6340   18.5360 O.2   152  LEU152     -0.2864
    158  CB       -11.4780   -0.0010   20.3750 C.3   152  LEU152      0.0297
    159  CG       -10.0360    0.4280   20.5780 C.3   152  LEU152      0.0022
    160  CD1       -9.4170    1.0770   19.3370 C.3   152  LEU152      0.0001
    161  CD2       -9.9980    1.3630   21.7790 C.3   152  LEU152      0.0001
    162  N        -12.6270   -3.0850   15.5380 N.3   155  HIS155     -0.1241
    163  CA       -11.3920   -3.7080   15.0970 C.3   155  HIS155      0.1621
    164  C        -11.1640   -5.0620   15.7200 C.2   155  HIS155      0.2264
    165  O        -10.7520   -5.9950   15.0300 O.2   155  HIS155     -0.2867
    166  CB       -10.2000   -2.7830   15.2330 C.3   155  HIS155      0.0745
    167  CG       -10.1850   -1.7230   14.1960 C.ar  155  HIS155      0.0817
    168  ND1       -9.6800   -1.9350   12.9390 N.ar  155  HIS155     -0.2268
    169  CD2      -10.6680   -0.4570   14.2030 C.ar  155  HIS155      0.1154
    170  CE1       -9.8030   -0.8300   12.2220 C.ar  155  HIS155      0.1986
    171  NE2      -10.4160    0.0780   12.9620 N.ar  155  HIS155     -0.2212
    172  N        -19.2060    5.5260   11.7390 N.3   232  ASN232     -0.1240
    173  CA       -18.9890    6.6100   10.8090 C.3   232  ASN232      0.1653
    174  C        -19.7900    7.8780   11.1240 C.2   232  ASN232      0.2266
    175  O        -19.2610    9.0090   11.0960 O.2   232  ASN232     -0.2867
    176  CB       -19.3830    6.1300    9.4090 C.3   232  ASN232      0.1155
    177  CG       -19.0280    7.1290    8.3150 C.2   232  ASN232      0.2627
    178  OD1      -18.3880    8.1510    8.5440 O.2   232  ASN232     -0.2716
    179  ND2      -19.4650    6.8340    7.1250 N.am  232  ASN232     -0.0877
    180  N        -18.4450    9.3690   14.2940 N.3   235  HIS235     -0.1226
    181  CA       -17.0620    9.8110   14.2660 C.3   235  HIS235      0.1752
    182  C        -16.9340   11.0660   13.4290 C.2   235  HIS235      0.2596
    183  O        -16.1770   11.9750   13.7550 O.2   235  HIS235     -0.2718
    184  CB       -16.1570    8.6960   13.7330 C.3   235  HIS235      0.0759
    185  CG       -14.7370    8.8220   14.1570 C.ar  235  HIS235      0.0818
    186  ND1      -13.7490    9.2860   13.3150 N.ar  235  HIS235     -0.2268
    187  CD2      -14.1390    8.5670   15.3440 C.ar  235  HIS235      0.1154
    188  CE1      -12.5990    9.3070   13.9660 C.ar  235  HIS235      0.1986
    189  NE2      -12.8080    8.8810   15.2000 N.ar  235  HIS235     -0.2212
    190  N        -17.6780   11.1080   12.3410 N.am  236  THR236     -0.1953
    191  CA       -17.8220   12.3280   11.6100 C.3   236  THR236      0.1897
    192  C        -18.3390   13.4680   12.4900 C.2   236  THR236      0.2313
    193  O        -17.8410   14.5890   12.4180 O.2   236  THR236     -0.2863
    194  CB       -18.7800   12.1100   10.4580 C.3   236  THR236      0.1794
    195  OG1      -18.2180   11.0950    9.6090 O.3   236  THR236     -0.2208
    196  CG2      -19.0060   13.4150    9.6800 C.3   236  THR236      0.0378
    197  N        -17.9440   13.8900   15.7600 N.3   238  ARG238     -0.1231
    198  CA       -16.7990   14.3110   16.5920 C.3   238  ARG238      0.1694
    199  C        -15.7580   15.1300   15.8350 C.2   238  ARG238      0.2591
    200  O        -15.1330   16.0200   16.3880 O.2   238  ARG238     -0.2718
    201  CB       -16.0320   13.1150   17.1730 C.3   238  ARG238      0.0321
    202  CG       -16.8150   12.1800   18.0710 C.3   238  ARG238      0.0489
    203  CD       -15.8870   11.0570   18.5750 C.3   238  ARG238      0.2205
    204  NE       -14.8030   11.5720   19.4320 N.pl3 238  ARG238     -0.0865
    205  CZ       -13.5010   11.5200   19.1470 C.cat 238  ARG238      0.5346
    206  NH1      -13.0610   10.9710   18.0130 N.pl3 238  ARG238      0.1354
    207  NH2      -12.6300   12.0110   20.0170 N.pl3 238  ARG238      0.1354
    208  N        -15.4910   14.7490   14.6020 N.am  239  LEU239     -0.1980
    209  CA       -14.3880   15.3410   13.8800 C.3   239  LEU239      0.1596
    210  C        -14.7700   16.7350   13.4240 C.2   239  LEU239      0.2287
    211  O        -13.9360   17.6330   13.4160 O.2   239  LEU239     -0.2864
    212  CB       -13.9380   14.4630   12.6960 C.3   239  LEU239      0.0297
    213  CG       -12.6520   13.6370   12.8680 C.3   239  LEU239      0.0022
    214  CD1      -12.5140   12.8690   14.1690 C.3   239  LEU239      0.0001
    215  CD2      -12.5370   12.6780   11.6930 C.3   239  LEU239      0.0001
    216  N         -7.6440   21.0250   11.6270 N.3   248  PHE248     -0.1241
    217  CA        -6.5440   20.0700   11.3960 C.3   248  PHE248      0.1605
    218  C         -6.6390   19.3250   10.0600 C.2   248  PHE248      0.2264
    219  O         -5.6620   18.7040    9.6260 O.2   248  PHE248     -0.2867
    220  CB        -6.5020   19.0360   12.5210 C.3   248  PHE248      0.0534
    221  CG        -7.6750   18.0900   12.5080 C.ar  248  PHE248     -0.0203
    222  CD1       -7.5920   16.8560   11.8720 C.ar  248  PHE248     -0.0042
    223  CD2       -8.8710   18.4490   13.0950 C.ar  248  PHE248     -0.0042
    224  CE1       -8.6750   16.0090   11.8370 C.ar  248  PHE248     -0.0003
    225  CE2       -9.9540   17.6020   13.0760 C.ar  248  PHE248     -0.0003
    226  CZ        -9.8620   16.3790   12.4450 C.ar  248  PHE248     -0.0000
    227  N         -9.7640   16.0720    2.9810 N.3   253  MET253     -0.1245
    228  CA       -10.7300   15.7550    4.0510 C.3   253  MET253      0.1570
    229  C        -11.8330   16.7720    4.1260 C.2   253  MET253      0.2261
    230  O        -12.9890   16.3990    4.2360 O.2   253  MET253     -0.2867
    231  CB       -10.0730   15.6700    5.4160 C.3   253  MET253      0.0387
    232  CG        -9.2210   14.4350    5.5890 C.3   253  MET253      0.0595
    233  SD        -8.2140   14.5080    7.0820 S.3   253  MET253     -0.1393
    234  CE        -9.5010   14.3150    8.2940 C.3   253  MET253      0.0692
    235  N        -14.3930   16.0050    1.6800 N.3   256  LEU256     -0.1231
    236  CA       -15.1630   14.8450    2.1540 C.3   256  LEU256      0.1693
    237  C        -16.1690   15.1340    3.2920 C.2   256  LEU256      0.2592
    238  O        -17.1730   14.4490    3.3800 O.2   256  LEU256     -0.2718
    239  CB       -14.2090   13.7160    2.5500 C.3   256  LEU256      0.0284
    240  CG       -13.4520   13.0280    1.3950 C.3   256  LEU256      0.0019
    241  CD1      -12.6230   11.8640    1.8790 C.3   256  LEU256      0.0001
    242  CD2      -14.3650   12.5390    0.2920 C.3   256  LEU256      0.0001
    243  N        -15.9030   16.1350    4.1450 N.am  257  PHE257     -0.1976
    244  CA       -16.8070   16.5030    5.2610 C.3   257  PHE257      0.1639
    245  C        -17.9360   17.5070    4.9130 C.2   257  PHE257      0.2290
    246  O        -17.7410   18.5400    4.2370 O.2   257  PHE257     -0.2864
    247  CB       -15.9660   17.0080    6.4690 C.3   257  PHE257      0.0560
    248  CG       -15.1240   15.9390    7.1540 C.ar  257  PHE257     -0.0200
    249  CD1      -14.0870   16.3120    8.0150 C.ar  257  PHE257     -0.0042
    250  CD2      -15.3630   14.5730    6.9620 C.ar  257  PHE257     -0.0042
    251  CE1      -13.3200   15.3550    8.6660 C.ar  257  PHE257     -0.0003
    252  CE2      -14.5970   13.6240    7.6060 C.ar  257  PHE257     -0.0003
    253  CZ       -13.5780   14.0110    8.4590 C.ar  257  PHE257     -0.0000
@<TRIPOS>BOND
     1    53    52    2
     2    61    62    1
     3    66    67    1
     4    66    65    1
     5    67    68    1
     6    59    60   ar
     7    59    57   ar
     8    60    58   ar
     9    52    51    1
    10    68    69    1
    11    65    62    1
    12    57    55   ar
    13    58    56   ar
    14    62    63    1
    15   242   240    1
    16    55    56   ar
    17    55    54    1
    18    51    54    1
    19    51    50    1
    20    63    64    2
    21   240   241    1
    22   240   239    1
    23    46    45    2
    24   235   236    1
    25    49    47    1
    26   236   239    1
    27   236   237    1
    28    70    71    1
    29    45    44    1
    30    74    71    1
    31    71    72    1
    32   227   228    1
    33   237   238    2
    34   237   243   am
    35    44    47    1
    36    44    43    1
    37    47    48    1
    38    72    73    2
    39    72    75   am
    40   228   229    1
    41   228   231    1
    42   229   230    2
    43   243   244    1
    44    40    39    2
    45   246   245    2
    46    91    90    1
    47    86    87    1
    48    43    39   am
    49   245   244    1
    50    75    76    1
    51    39    38    1
    52   244   247    1
    53    87    90    1
    54    87    88    1
    55   231   232    1
    56   232   233    1
    57    76    77    1
    58    76    79    1
    59    77    78    2
    60   247   248    1
    61    38    37    1
    62    38    41    1
    63    88    89    2
    64    88    92   am
    65    35    34    2
    66    42    41    1
    67   250   248   ar
    68   250   252   ar
    69   233   234    1
    70   179   177   am
    71   248   249   ar
    72   101   102    1
    73    92    93    1
    74    79    80    1
    75   252   253   ar
    76    34    33    1
    77   249   251   ar
    78    94    93    1
    79    94    95    2
    80   177   178    2
    81   177   176    1
    82   253   251   ar
    83    93    96    1
    84   102   103    1
    85   102   105    1
    86   111   109   ar
    87   111   110   ar
    88   109   107   ar
    89    80    82   ar
    90    80    81   ar
    91   110   108   ar
    92   107   106   ar
    93    33    36    1
    94    33    32    1
    95    82    84   ar
    96   106   108   ar
    97   106   105    1
    98    96    97    1
    99   103   104    2
   100   176   173    1
   101    27    26    2
   102    81    83   ar
   103   195   194    1
   104   219   218    2
   105   196   194    1
   106    97    98    1
   107   218   217    1
   108    32    26   am
   109    26    25    1
   110    84    85   ar
   111   194   191    1
   112   100    98   am
   113    98    99    2
   114   173   174    1
   115   173   172    1
   116    83    85   ar
   117   137   136    1
   118   175   174    2
   119   217   216    1
   120   217   220    1
   121    25    24    1
   122    25    28    1
   123   191   190    1
   124   191   192    1
   125   215   213    1
   126   224   222   ar
   127   224   226   ar
   128   222   221   ar
   129   134   136   ar
   130   134   132   ar
   131   136   135   ar
   132   170   168   ar
   133   170   171   ar
   134    19    18    2
   135   190   182   am
   136   193   192    2
   137   226   225   ar
   138   221   220    1
   139   221   223   ar
   140    31    30    1
   141    28    29    1
   142   212   213    1
   143   212   209    1
   144   118   120   ar
   145   118   117   ar
   146   213   214    1
   147   168   167   ar
   148   171   169   ar
   149   132   131   ar
   150   114   115    2
   151   114   113    1
   152   225   223   ar
   153   116   117    1
   154   116   113    1
   155    18    17    1
   156   186   188   ar
   157   186   185   ar
   158   135   133   ar
   159   211   210    2
   160   210   209    1
   161   182   183    2
   162   182   181    1
   163   120   121   ar
   164   117   119   ar
   165   113   112    1
   166   184   185    1
   167   184   181    1
   168    30    29    1
   169   209   208    1
   170   188   189   ar
   171   185   187   ar
   172   167   169   ar
   173   167   166    1
   174   153   152    1
   175   181   180    1
   176   131   133   ar
   177   131   130    1
   178   208   199   am
   179    17    20    1
   180    17    16    1
   181   121   119   ar
   182   121   123   ar
   183   119   122   ar
   184   165   164    2
   185   163   166    1
   186   163   162    1
   187   163   164    1
   188   152   151    1
   189    20    21    1
   190   189   187   ar
   191   126   127    1
   192   151   150    1
   193   130   127    1
   194    21    23    1
   195    21    22    1
   196   197   198    1
   197   123   125   ar
   198   199   200    2
   199   199   198    1
   200   122   124   ar
   201   127   128    1
   202   149   148    2
   203   198   201    1
   204   150   147    1
   205   147   148    1
   206   147   146    1
   207   125   124   ar
   208   129   128    2
   209   201   202    1
   210   148   154   am
   211   206   205    1
   212   202   203    1
   213    15    13    1
   214   154   155    1
   215   157   156    2
   216     7     6    1
   217   203   204    1
   218    14    13    1
   219   156   155    1
   220   155   158    1
   221    13    10    1
   222   205   204    2
   223   205   207    1
   224     8     6    1
   225   160   159    1
   226     6     5    1
   227     5     2    1
   228     4     3    2
   229   145   143    1
   230   158   159    1
   231    10    11    1
   232    10     9    1
   233   159   161    1
   234    12    11    2
   235   144   143    1
   236   138   139    1
   237     2     3    1
   238     2     1    1
   239   143   142    1
   240   139   142    1
   241   139   140    1
   242   140   141    2
