@<TRIPOS>MOLECULE
tmp/5x13A00.pdb
 93 86 0 0 0
SMALL
GASTEIGER

@<TRIPOS>ATOM
      1  N        -10.7300  -14.8940    2.8940 N.3    33  GLU33      -0.1245
      2  CA       -10.3690  -14.1550    4.0860 C.3    33  GLU33       0.1567
      3  C        -10.3820  -15.0120    5.3080 C.2    33  GLU33       0.2260
      4  O         -9.5580  -14.8510    6.1850 O.2    33  GLU33      -0.2867
      5  CB       -11.2290  -12.8630    4.2550 C.3    33  GLU33       0.0388
      6  CG       -12.6940  -13.0490    4.6720 C.3    33  GLU33       0.1160
      7  CD       -13.7610  -12.8800    3.5390 C.2    33  GLU33       0.3649
      8  OE1      -13.4340  -12.8130    2.3290 O.co2  33  GLU33      -0.2457
      9  OE2      -14.9610  -12.7710    3.8890 O.co2  33  GLU33      -0.2457
     10  N         -7.2400  -16.5710    6.3990 N.3    36  GLN36      -0.1231
     11  CA        -6.2150  -15.6900    6.9270 C.3    36  GLN36       0.1698
     12  C         -6.2460  -15.6110    8.4640 C.2    36  GLN36       0.2592
     13  O         -5.2260  -15.4000    9.0800 O.2    36  GLN36      -0.2718
     14  CB        -6.3750  -14.2990    6.3110 C.3    36  GLN36       0.0381
     15  CG        -6.1440  -14.3360    4.8130 C.3    36  GLN36       0.0905
     16  CD        -4.7230  -14.6480    4.4850 C.2    36  GLN36       0.2608
     17  OE1       -3.8070  -13.9210    4.8870 O.2    36  GLN36      -0.2717
     18  NE2       -4.5090  -15.7210    3.7140 N.am   36  GLN36      -0.0878
     19  N         -7.4050  -15.7460    9.0580 N.am   37  PHE37      -0.1976
     20  CA        -7.5240  -15.6780   10.5290 C.3    37  PHE37       0.1639
     21  C         -8.1430  -16.9260   11.1930 C.2    37  PHE37       0.2290
     22  O         -8.1680  -17.0100   12.4300 O.2    37  PHE37      -0.2864
     23  CB        -8.2970  -14.4210   10.8980 C.3    37  PHE37       0.0560
     24  CG        -9.7640  -14.4660   10.4780 C.ar   37  PHE37      -0.0200
     25  CD1      -10.1420  -14.0290    9.2050 C.ar   37  PHE37      -0.0042
     26  CD2      -10.7630  -14.9050   11.3440 C.ar   37  PHE37      -0.0042
     27  CE1      -11.4980  -14.0760    8.8070 C.ar   37  PHE37      -0.0003
     28  CE2      -12.1220  -14.9230   10.9380 C.ar   37  PHE37      -0.0003
     29  CZ       -12.4550  -14.5110    9.6450 C.ar   37  PHE37      -0.0000
     30  N          3.5030   -7.4570    5.8190 N.3   122  LYS122     -0.1245
     31  CA         2.1960   -8.0230    6.1590 C.3   122  LYS122      0.1561
     32  C          1.1270   -6.9290    6.2670 C.2   122  LYS122      0.2260
     33  O         -0.0010   -7.0670    5.7750 O.2   122  LYS122     -0.2867
     34  CB         2.2590   -8.7940    7.4450 C.3   122  LYS122      0.0271
     35  CG         0.9380   -9.4280    7.8420 C.3   122  LYS122      0.0035
     36  CD         1.1000  -10.3180    9.0370 C.3   122  LYS122      0.0206
     37  CE        -0.2310  -10.9770    9.4130 C.3   122  LYS122      0.1093
     38  NZ        -0.5490  -12.0290    8.3850 N.3   122  LYS122     -0.1314
     39  N         -2.4220   -6.4570    4.2480 N.3   126  LEU126     -0.1245
     40  CA        -3.7210   -6.2470    4.9070 C.3   126  LEU126      0.1561
     41  C         -4.3920   -4.9610    4.4390 C.2   126  LEU126      0.2260
     42  O         -5.6130   -4.9100    4.2190 O.2   126  LEU126     -0.2867
     43  CB        -3.5650   -6.2170    6.4120 C.3   126  LEU126      0.0270
     44  CG        -3.1460   -7.5260    7.0550 C.3   126  LEU126      0.0019
     45  CD1       -2.7530   -7.2710    8.5140 C.3   126  LEU126      0.0001
     46  CD2       -4.3000   -8.5590    6.9590 C.3   126  LEU126      0.0001
     47  N         -6.0770   -5.7160    1.2160 N.3   129  SER129     -0.1217
     48  CA        -7.3450   -6.3810    1.4370 C.3   129  SER129      0.1889
     49  C         -8.4160   -5.4230    1.9310 C.2   129  SER129      0.2288
     50  O         -9.5890   -5.5570    1.5590 O.2   129  SER129     -0.2866
     51  CB        -7.1620   -7.4980    2.4550 C.3   129  SER129      0.2089
     52  OG        -6.2430   -8.4480    1.9940 O.3   129  SER129     -0.2183
     53  N        -16.7840   -8.7450    8.0340 N.3   149  HIS149     -0.1241
     54  CA       -15.5230   -8.7650    7.2990 C.3   149  HIS149      0.1621
     55  C        -14.6820   -7.5290    7.7060 C.2   149  HIS149      0.2264
     56  O        -13.4790   -7.6250    7.9370 O.2   149  HIS149     -0.2867
     57  CB       -15.7930   -8.7720    5.8100 C.3   149  HIS149      0.0745
     58  CG       -14.6060   -9.0870    4.9990 C.ar  149  HIS149      0.0817
     59  ND1      -14.6970   -9.3150    3.6400 N.ar  149  HIS149     -0.2268
     60  CD2      -13.2930   -9.1860    5.3240 C.ar  149  HIS149      0.1154
     61  CE1      -13.4910   -9.5930    3.1730 C.ar  149  HIS149      0.1986
     62  NE2      -12.6150   -9.5110    4.1540 N.ar  149  HIS149     -0.2212
     63  N        -13.0100   -8.1190   11.1660 N.3   152  VAL152     -0.1231
     64  CA       -11.8100   -8.9780   11.2160 C.3   152  VAL152      0.1692
     65  C        -10.6210   -8.2620   10.5340 C.2   152  VAL152      0.2591
     66  O         -9.5080   -8.4140   10.9990 O.2   152  VAL152     -0.2718
     67  CB       -12.0520  -10.3950   10.6430 C.3   152  VAL152      0.0266
     68  CG1      -13.0180  -11.1240   11.5140 C.3   152  VAL152      0.0020
     69  CG2      -12.5990  -10.3590    9.2120 C.3   152  VAL152      0.0020
     70  N        -10.8940   -7.5040    9.4840 N.am  153  LEU153     -0.1980
     71  CA        -9.8330   -6.8170    8.7790 C.3   153  LEU153      0.1596
     72  C         -9.2770   -5.6320    9.5600 C.2   153  LEU153      0.2287
     73  O         -8.0600   -5.4820    9.6430 O.2   153  LEU153     -0.2864
     74  CB       -10.2500   -6.3890    7.3930 C.3   153  LEU153      0.0297
     75  CG        -9.1140   -5.8910    6.5120 C.3   153  LEU153      0.0022
     76  CD1       -7.8440   -6.7850    6.5220 C.3   153  LEU153      0.0001
     77  CD2       -9.6690   -5.8480    5.1510 C.3   153  LEU153      0.0001
     78  N         -7.1040   -6.8880   12.3430 N.3   156  ALA156     -0.1245
     79  CA        -5.7960   -7.3320   11.8430 C.3   156  ALA156      0.1562
     80  C         -4.8550   -6.1670   11.5220 C.2   156  ALA156      0.2260
     81  O         -3.6890   -6.1760   11.9220 O.2   156  ALA156     -0.2867
     82  CB        -5.9680   -8.1980   10.6270 C.3   156  ALA156      0.0290
     83  N         -3.7750   -4.6050   14.7930 N.3   159  ARG159     -0.1245
     84  CA        -2.8530   -5.5210   15.4460 C.3   159  ARG159      0.1563
     85  C         -1.4410   -5.3750   14.8580 C.2   159  ARG159      0.2260
     86  O         -0.4370   -5.2540   15.5800 O.2   159  ARG159     -0.2867
     87  CB        -3.3130   -6.9620   15.2520 C.3   159  ARG159      0.0307
     88  CG        -2.4410   -8.0040   15.8770 C.3   159  ARG159      0.0489
     89  CD        -2.9520   -9.4750   15.5060 C.3   159  ARG159      0.2205
     90  NE        -2.5970   -9.6860   14.1130 N.pl3 159  ARG159     -0.0865
     91  CZ        -3.3690  -10.1830   13.1480 C.cat 159  ARG159      0.5346
     92  NH1       -4.5910  -10.6160   13.3740 N.pl3 159  ARG159      0.1354
     93  NH2       -2.8840  -10.2570   11.9200 N.pl3 159  ARG159      0.1354
@<TRIPOS>BOND
     1    47    48    1
     2    48    49    1
     3    48    51    1
     4    50    49    2
     5    52    51    1
     6     8     7   ar
     7     1     2    1
     8    61    59   ar
     9    61    62   ar
    10     7     9   ar
    11     7     6    1
    12    59    58   ar
    13    18    16   am
    14     2     5    1
    15     2     3    1
    16    62    60   ar
    17    42    41    2
    18    39    40    1
    19     5     6    1
    20    41    40    1
    21    16    15    1
    22    16    17    2
    23    15    14    1
    24    40    43    1
    25    58    60   ar
    26    58    57    1
    27    77    75    1
    28     3     4    2
    29    33    32    2
    30    57    54    1
    31    30    31    1
    32    31    32    1
    33    31    34    1
    34    14    11    1
    35    10    11    1
    36    43    44    1
    37    75    76    1
    38    75    74    1
    39    11    12    1
    40    46    44    1
    41    44    45    1
    42    54    55    1
    43    54    53    1
    44    74    71    1
    45    34    35    1
    46    55    56    2
    47    35    36    1
    48    38    37    1
    49    12    19   am
    50    12    13    2
    51    71    70    1
    52    71    72    1
    53    27    25   ar
    54    27    29   ar
    55    36    37    1
    56    19    20    1
    57    25    24   ar
    58    69    67    1
    59    70    65   am
    60    72    73    2
    61    29    28   ar
    62    24    23    1
    63    24    26   ar
    64    20    23    1
    65    20    21    1
    66    65    66    2
    67    65    64    1
    68    82    79    1
    69    67    64    1
    70    67    68    1
    71    28    26   ar
    72    63    64    1
    73    21    22    2
    74    80    79    1
    75    80    81    2
    76    79    78    1
    77    93    91    1
    78    91    92    1
    79    91    90    2
    80    90    89    1
    81    83    84    1
    82    85    84    1
    83    85    86    2
    84    87    84    1
    85    87    88    1
    86    89    88    1
