@<TRIPOS>MOLECULE
tmp/5x14A00.pdb
 101 94 0 0 0
SMALL
GASTEIGER

@<TRIPOS>ATOM
      1  N        -10.4820  -15.4530    2.6020 N.3    33  GLU33      -0.1245
      2  CA       -10.5280  -14.5500    3.7620 C.3    33  GLU33       0.1567
      3  C        -10.5530  -15.2470    5.1220 C.2    33  GLU33       0.2260
      4  O         -9.8330  -14.8600    6.0380 O.2    33  GLU33      -0.2867
      5  CB       -11.6890  -13.5140    3.6200 C.3    33  GLU33       0.0388
      6  CG       -13.0710  -14.1150    3.6110 C.3    33  GLU33       0.1160
      7  CD       -14.2100  -13.2190    3.0770 C.2    33  GLU33       0.3649
      8  OE1      -14.2820  -12.9110    1.8700 O.co2  33  GLU33      -0.2457
      9  OE2      -15.1040  -12.8950    3.8640 O.co2  33  GLU33      -0.2457
     10  N         -7.3010  -16.7500    6.6240 N.3    36  GLN36      -0.1231
     11  CA        -6.2740  -15.8310    7.0820 C.3    36  GLN36       0.1698
     12  C         -6.2860  -15.6960    8.6090 C.2    36  GLN36       0.2592
     13  O         -5.2520  -15.4830    9.1940 O.2    36  GLN36      -0.2718
     14  CB        -6.4280  -14.4650    6.4010 C.3    36  GLN36       0.0381
     15  CG        -6.0350  -14.4880    4.9380 C.3    36  GLN36       0.0905
     16  CD        -4.5500  -14.6290    4.7510 C.2    36  GLN36       0.2608
     17  OE1       -3.7700  -13.7110    5.0690 O.2    36  GLN36      -0.2717
     18  NE2       -4.1380  -15.7610    4.2170 N.am   36  GLN36      -0.0878
     19  N         -7.4450  -15.8370    9.2430 N.am   37  PHE37      -0.1976
     20  CA        -7.5380  -15.7690   10.7270 C.3    37  PHE37       0.1639
     21  C         -8.1350  -17.0370   11.3770 C.2    37  PHE37       0.2290
     22  O         -8.1860  -17.1660   12.6110 O.2    37  PHE37      -0.2864
     23  CB        -8.2980  -14.5190   11.1220 C.3    37  PHE37       0.0560
     24  CG        -9.7670  -14.5810   10.7720 C.ar   37  PHE37      -0.0200
     25  CD1      -10.2080  -14.2730    9.4880 C.ar   37  PHE37      -0.0042
     26  CD2      -10.7010  -14.9680   11.7180 C.ar   37  PHE37      -0.0042
     27  CE1      -11.5720  -14.3780    9.1650 C.ar   37  PHE37      -0.0003
     28  CE2      -12.0710  -15.0640   11.3890 C.ar   37  PHE37      -0.0003
     29  CZ       -12.4840  -14.7780   10.1100 C.ar   37  PHE37      -0.0000
     30  N          3.4630   -7.3200    5.6910 N.3   122  LYS122     -0.1245
     31  CA         2.1650   -7.9360    6.0150 C.3   122  LYS122      0.1561
     32  C          1.0980   -6.8630    6.1270 C.2   122  LYS122      0.2260
     33  O         -0.0180   -7.0240    5.6620 O.2   122  LYS122     -0.2867
     34  CB         2.2380   -8.7170    7.3200 C.3   122  LYS122      0.0271
     35  CG         0.9670   -9.3980    7.7060 C.3   122  LYS122      0.0035
     36  CD         1.1420  -10.2590    8.9340 C.3   122  LYS122      0.0206
     37  CE        -0.1690  -11.0150    9.2320 C.3   122  LYS122      0.1093
     38  NZ        -0.3580  -12.0650    8.1770 N.3   122  LYS122     -0.1314
     39  N         -0.1110   -5.7970    2.7900 N.3   125  ASP125     -0.1225
     40  CA        -1.0380   -6.7930    2.2760 C.3   125  ASP125      0.1805
     41  C         -2.4410   -6.6270    2.8820 C.2   125  ASP125      0.2597
     42  O         -3.4420   -6.6780    2.1580 O.2   125  ASP125     -0.2718
     43  CB        -0.5450   -8.2170    2.5790 C.3   125  ASP125      0.1424
     44  CG         0.7530   -8.5750    1.8810 C.2   125  ASP125      0.3668
     45  OD1        1.1740   -7.8640    0.9350 O.co2 125  ASP125     -0.2456
     46  OD2        1.4170   -9.5660    2.3230 O.co2 125  ASP125     -0.2456
     47  N         -2.5040   -6.4300    4.2020 N.am  126  LEU126     -0.1979
     48  CA        -3.8070   -6.2140    4.8670 C.3   126  LEU126      0.1596
     49  C         -4.4640   -4.9430    4.3750 C.2   126  LEU126      0.2287
     50  O         -5.6830   -4.9160    4.1950 O.2   126  LEU126     -0.2864
     51  CB        -3.6350   -6.1530    6.3770 C.3   126  LEU126      0.0297
     52  CG        -3.2170   -7.4750    6.9780 C.3   126  LEU126      0.0022
     53  CD1       -2.7910   -7.2820    8.4460 C.3   126  LEU126      0.0001
     54  CD2       -4.3740   -8.4730    6.8770 C.3   126  LEU126      0.0001
     55  N         -6.2020   -5.5950    1.1310 N.3   129  SER129     -0.1217
     56  CA        -7.4400   -6.3460    1.3140 C.3   129  SER129      0.1889
     57  C         -8.5400   -5.4240    1.8330 C.2   129  SER129      0.2288
     58  O         -9.7010   -5.5420    1.4480 O.2   129  SER129     -0.2866
     59  CB        -7.2120   -7.4920    2.2970 C.3   129  SER129      0.2089
     60  OG        -6.3410   -8.4740    1.7310 O.3   129  SER129     -0.2183
     61  N        -16.8860   -8.8080    7.9190 N.3   149  HIS149     -0.1241
     62  CA       -15.6180   -8.8060    7.2070 C.3   149  HIS149      0.1621
     63  C        -14.7790   -7.5740    7.5780 C.2   149  HIS149      0.2264
     64  O        -13.5810   -7.6600    7.8230 O.2   149  HIS149     -0.2867
     65  CB       -15.8850   -8.8420    5.6990 C.3   149  HIS149      0.0745
     66  CG       -14.7090   -9.2230    4.8750 C.ar  149  HIS149      0.0817
     67  ND1      -14.8260   -9.4930    3.5290 N.ar  149  HIS149     -0.2268
     68  CD2      -13.4060   -9.4170    5.1980 C.ar  149  HIS149      0.1154
     69  CE1      -13.6270   -9.8190    3.0590 C.ar  149  HIS149      0.1986
     70  NE2      -12.7560   -9.8000    4.0480 N.ar  149  HIS149     -0.2212
     71  N        -13.1390   -8.1230   11.0380 N.3   152  VAL152     -0.1231
     72  CA       -11.9020   -8.9390   11.0570 C.3   152  VAL152      0.1692
     73  C        -10.7110   -8.2110   10.3950 C.2   152  VAL152      0.2591
     74  O         -9.5990   -8.3290   10.8800 O.2   152  VAL152     -0.2718
     75  CB       -12.0600  -10.3910   10.4970 C.3   152  VAL152      0.0266
     76  CG1      -12.8800  -11.2130   11.4420 C.3   152  VAL152      0.0020
     77  CG2      -12.6120  -10.4300    9.0610 C.3   152  VAL152      0.0020
     78  N        -10.9700   -7.4640    9.3330 N.am  153  LEU153     -0.1980
     79  CA        -9.9050   -6.8050    8.6140 C.3   153  LEU153      0.1596
     80  C         -9.3840   -5.6460    9.4040 C.2   153  LEU153      0.2287
     81  O         -8.1630   -5.4730    9.5110 O.2   153  LEU153     -0.2864
     82  CB       -10.3500   -6.3800    7.2390 C.3   153  LEU153      0.0297
     83  CG        -9.9680   -7.3270    6.1340 C.3   153  LEU153      0.0022
     84  CD1      -10.6890   -6.9240    4.8570 C.3   153  LEU153      0.0001
     85  CD2       -8.4290   -7.2140    6.0270 C.3   153  LEU153      0.0001
     86  N         -7.2110   -6.8700   12.2500 N.3   156  ALA156     -0.1245
     87  CA        -5.8930   -7.3610   11.7940 C.3   156  ALA156      0.1562
     88  C         -4.9780   -6.1740   11.4800 C.2   156  ALA156      0.2260
     89  O         -3.7970   -6.1980   11.7850 O.2   156  ALA156     -0.2867
     90  CB        -6.0540   -8.2580   10.5650 C.3   156  ALA156      0.0290
     91  N         -3.8930   -4.5680   14.6660 N.3   159  ARG159     -0.1245
     92  CA        -2.9280   -5.5300   15.3080 C.3   159  ARG159      0.1563
     93  C         -1.5090   -5.3700   14.7470 C.2   159  ARG159      0.2260
     94  O         -0.4860   -5.2200   15.4910 O.2   159  ARG159     -0.2867
     95  CB        -3.4110   -6.9730   15.1300 C.3   159  ARG159      0.0307
     96  CG        -2.5740   -8.0350   15.8490 C.3   159  ARG159      0.0489
     97  CD        -3.0950   -9.4540   15.5200 C.3   159  ARG159      0.2205
     98  NE        -2.7210   -9.7100   14.1420 N.pl3 159  ARG159     -0.0865
     99  CZ        -3.4570  -10.2730   13.2090 C.cat 159  ARG159      0.5346
    100  NH1       -4.6560  -10.7430   13.4740 N.pl3 159  ARG159      0.1354
    101  NH2       -2.9580  -10.3470   11.9800 N.pl3 159  ARG159      0.1354
@<TRIPOS>BOND
     1    45    44   ar
     2    55    56    1
     3    56    57    1
     4    56    59    1
     5    58    57    2
     6    60    59    1
     7     8     7   ar
     8    44    46   ar
     9    44    43    1
    10    42    41    2
    11    40    43    1
    12    40    39    1
    13    40    41    1
    14     1     2    1
    15    41    47   am
    16    69    67   ar
    17    69    70   ar
    18     7     6    1
    19     7     9   ar
    20    67    66   ar
    21     6     5    1
    22     5     2    1
    23     2     3    1
    24    70    68   ar
    25    50    49    2
    26    47    48    1
    27    18    16   am
    28    49    48    1
    29    16    15    1
    30    16    17    2
    31    84    83    1
    32    48    51    1
    33    66    68   ar
    34    66    65    1
    35    15    14    1
    36     3     4    2
    37    33    32    2
    38    30    31    1
    39    65    62    1
    40    31    32    1
    41    31    34    1
    42    85    83    1
    43    83    82    1
    44    51    52    1
    45    14    11    1
    46    10    11    1
    47    54    52    1
    48    52    53    1
    49    11    12    1
    50    62    63    1
    51    62    61    1
    52    82    79    1
    53    34    35    1
    54    63    64    2
    55    35    36    1
    56    38    37    1
    57    12    13    2
    58    12    19   am
    59    79    78    1
    60    79    80    1
    61    36    37    1
    62    77    75    1
    63    27    25   ar
    64    27    29   ar
    65    19    20    1
    66    78    73   am
    67    80    81    2
    68    25    24   ar
    69    29    28   ar
    70    73    74    2
    71    73    72    1
    72    75    72    1
    73    75    76    1
    74    90    87    1
    75    20    23    1
    76    20    21    1
    77    24    23    1
    78    24    26   ar
    79    71    72    1
    80    21    22    2
    81    28    26   ar
    82    88    89    2
    83    88    87    1
    84    87    86    1
    85   101    99    1
    86    99   100    1
    87    99    98    2
    88    98    97    1
    89    91    92    1
    90    93    92    1
    91    93    94    2
    92    95    92    1
    93    95    96    1
    94    97    96    1
