@<TRIPOS>MOLECULE
tmp/5x17B00.pdb
 177 165 0 0 0
SMALL
GASTEIGER

@<TRIPOS>ATOM
      1  N          1.8850    2.5450    3.1940 N.3    12  ILE12      -0.1231
      2  CA         2.8630    3.5680    3.5950 C.3    12  ILE12       0.1692
      3  C          2.7370    4.0240    5.0450 C.2    12  ILE12       0.2593
      4  O          3.6390    4.7090    5.5510 O.2    12  ILE12      -0.2718
      5  CB         2.9220    4.7770    2.6560 C.3    12  ILE12       0.0266
      6  CG1        1.5550    5.4060    2.4800 C.3    12  ILE12       0.0019
      7  CG2        3.4550    4.3820    1.2840 C.3    12  ILE12       0.0020
      8  CD1        1.5510    6.6860    1.6890 C.3    12  ILE12       0.0001
      9  N          1.6780    3.6190    5.7420 N.am   13  GLY13      -0.1942
     10  CA         1.5770    3.9690    7.1540 C.3    13  GLY13       0.2014
     11  C          0.4260    3.3140    7.8320 C.2    13  GLY13       0.2640
     12  O         -0.4250    2.7220    7.1850 O.2    13  GLY13      -0.2714
     13  N          0.4240    3.4470    9.1530 N.am   14  SER14      -0.1935
     14  CA        -0.6090    2.9520   10.0130 C.3    14  SER14       0.2055
     15  C         -0.6880    3.8860   11.2020 C.2    14  SER14       0.2644
     16  O          0.2770    3.9490   11.9530 O.2    14  SER14      -0.2714
     17  CB        -0.2400    1.5640   10.5320 C.3    14  SER14       0.2130
     18  OG        -0.4550    0.6020    9.5520 O.3    14  SER14      -0.2179
     19  N         -1.8030    4.6070   11.3610 N.am   15  GLY15      -0.1939
     20  CA        -1.9890    5.5160   12.5010 C.3    15  GLY15       0.2014
     21  C         -2.6890    4.8030   13.6370 C.2    15  GLY15       0.2639
     22  O         -2.5400    3.6060   13.7970 O.2    15  GLY15      -0.2714
     23  N         -3.5110    5.5190   14.3850 N.am   16  SER16      -0.1949
     24  CA        -4.2490    4.9090   15.4890 C.3    16  SER16       0.1924
     25  C         -5.4510    4.0620   15.0340 C.2    16  SER16       0.2314
     26  O         -5.9930    3.3010   15.8190 O.2    16  SER16      -0.2863
     27  CB        -4.6740    5.9860   16.4870 C.3    16  SER16       0.2116
     28  OG        -5.4590    6.9680   15.8590 O.3    16  SER16      -0.2180
     29  N         -2.8200    3.2940    5.6940 N.3    20  ILE20      -0.1245
     30  CA        -2.6220    4.2210    4.6320 C.3    20  ILE20       0.1561
     31  C         -1.8470    3.5570    3.5370 C.2    20  ILE20       0.2260
     32  O         -0.7280    3.0230    3.8130 O.2    20  ILE20      -0.2867
     33  CB        -1.7710    5.4190    5.1120 C.3    20  ILE20       0.0252
     34  CG1       -2.3940    6.0600    6.3440 C.3    20  ILE20       0.0019
     35  CG2       -1.5830    6.4200    3.9740 C.3    20  ILE20       0.0019
     36  CD1       -3.7470    6.7470    6.0900 C.3    20  ILE20       0.0001
     37  N         -3.0310    9.1800   -1.5450 N.3    33  ALA33      -0.1245
     38  CA        -2.9720    8.4030   -0.2870 C.3    33  ALA33       0.1562
     39  C         -4.3570    7.9100    0.0120 C.2    33  ALA33       0.2260
     40  O         -5.3090    8.7180    0.0190 O.2    33  ALA33      -0.2867
     41  CB        -2.4970    9.2490    0.8500 C.3    33  ALA33       0.0290
     42  N         -6.6660    5.9100    2.6390 N.3    35  LYS35      -0.1245
     43  CA        -6.8020    5.3940    3.9820 C.3    35  LYS35       0.1561
     44  C         -7.9430    4.3650    3.9090 C.2    35  LYS35       0.2260
     45  O         -9.0060    4.6780    3.3850 O.2    35  LYS35      -0.2867
     46  CB        -7.0880    6.4760    4.9810 C.3    35  LYS35       0.0271
     47  CG        -7.1530    5.9380    6.3820 C.3    35  LYS35       0.0035
     48  CD        -7.1610    6.9690    7.4550 C.3    35  LYS35       0.0206
     49  CE        -7.0900    6.3360    8.8280 C.3    35  LYS35       0.1093
     50  NZ        -6.6590    7.3840    9.8150 N.3    35  LYS35      -0.1314
     51  N        -13.6870   11.3050   10.6640 N.3    49  GLU49      -0.1245
     52  CA       -12.4530   11.9500   10.2660 C.3    49  GLU49       0.1567
     53  C        -12.6070   12.6070    8.9150 C.2    49  GLU49       0.2260
     54  O        -12.1650   13.7470    8.7530 O.2    49  GLU49      -0.2867
     55  CB       -11.2500   10.9450   10.2130 C.3    49  GLU49       0.0388
     56  CG        -9.9090   11.6910   10.0480 C.3    49  GLU49       0.1160
     57  CD        -8.6810   10.8330    9.8620 C.2    49  GLU49       0.3649
     58  OE1       -8.8330    9.6020    9.7470 O.co2  49  GLU49      -0.2457
     59  OE2       -7.5500   11.4200    9.8220 O.co2  49  GLU49      -0.2457
     60  N        -11.9580   16.4540    8.0000 N.3    53  TYR53      -0.1241
     61  CA       -11.1310   16.8820    6.8540 C.3    53  TYR53       0.1605
     62  C        -11.8940   17.8130    5.9080 C.2    53  TYR53       0.2264
     63  O        -11.3300   18.8340    5.4730 O.2    53  TYR53      -0.2867
     64  CB       -10.5850   15.7160    6.0500 C.3    53  TYR53       0.0534
     65  CG        -9.1630   15.3250    6.3810 C.ar   53  TYR53      -0.0201
     66  CD1       -8.1220   16.2270    6.2520 C.ar   53  TYR53      -0.0009
     67  CD2       -8.8540   14.0320    6.7560 C.ar   53  TYR53      -0.0009
     68  CE1       -6.8050   15.8590    6.5340 C.ar   53  TYR53       0.0417
     69  CE2       -7.5560   13.6480    7.0240 C.ar   53  TYR53       0.0417
     70  CZ        -6.5280   14.5660    6.9110 C.ar   53  TYR53       0.1957
     71  OH        -5.2410   14.1500    7.1580 O.3    53  TYR53      -0.2866
     72  N         -4.2060   18.9020    3.7720 N.3    63  PRO63      -0.2116
     73  CA        -4.3240   18.1470    2.5220 C.3    63  PRO63       0.1372
     74  C         -5.7650   18.0960    1.9640 C.2    63  PRO63       0.2244
     75  O         -6.7250   18.0940    2.7200 O.2    63  PRO63      -0.2868
     76  CB        -3.9340   16.7350    2.9210 C.3    63  PRO63       0.0268
     77  CG        -4.1980   16.6570    4.3600 C.3    63  PRO63       0.0207
     78  CD        -3.9270   18.0270    4.9220 C.3    63  PRO63       0.0892
     79  N        -11.1480    6.6330    2.4180 N.3    77  MET77      -0.1245
     80  CA       -10.9280    8.0790    2.3590 C.3    77  MET77       0.1570
     81  C         -9.6650    8.3100    1.5500 C.2    77  MET77       0.2261
     82  O         -8.5910    7.9010    1.9610 O.2    77  MET77      -0.2867
     83  CB       -10.7710    8.6560    3.7590 C.3    77  MET77       0.0387
     84  CG       -10.6560   10.2000    3.8490 C.3    77  MET77       0.0595
     85  SD       -10.3860   10.6870    5.5660 S.3    77  MET77      -0.1393
     86  CE        -8.6270   10.3350    5.7210 C.3    77  MET77       0.0692
     87  N         -7.0130   10.9200   -0.1400 N.3    79  MET79      -0.1230
     88  CA        -6.4390   12.2270    0.1660 C.3    79  MET79       0.1702
     89  C         -5.3550   12.5120   -0.8260 C.2    79  MET79       0.2592
     90  O         -4.7270   11.5840   -1.3940 O.2    79  MET79      -0.2718
     91  CB        -5.7700   12.2340    1.5370 C.3    79  MET79       0.0401
     92  CG        -6.6820   11.9830    2.7360 C.3    79  MET79       0.0596
     93  SD        -8.1420   13.0890    2.8510 S.3    79  MET79      -0.1393
     94  CE        -7.2910   14.6450    3.2210 C.3    79  MET79       0.0692
     95  N         -5.0640   13.8080   -0.9460 N.am   80  GLU80      -0.1966
     96  CA        -3.8330   14.2670   -1.5270 C.3    80  GLU80       0.1733
     97  C         -2.6550   13.5010   -0.9370 C.2    80  GLU80       0.2616
     98  O         -2.5500   13.3350    0.3200 O.2    80  GLU80      -0.2715
     99  CB        -3.6780   15.7780   -1.2090 C.3    80  GLU80       0.0429
    100  CG        -2.6490   16.5100   -2.0430 C.3    80  GLU80       0.1163
    101  CD        -2.5320   17.9720   -1.6500 C.2    80  GLU80       0.3649
    102  OE1       -1.6980   18.6370   -2.2710 O.co2  80  GLU80      -0.2457
    103  OE2       -3.2840   18.4650   -0.7620 O.co2  80  GLU80      -0.2457
    104  N         -1.7580   13.0670   -1.8170 N.am   81  LEU81      -0.1963
    105  CA        -0.4790   12.4800   -1.3940 C.3    81  LEU81       0.1728
    106  C          0.5300   13.5690   -0.9860 C.2    81  LEU81       0.2616
    107  O          0.7780   14.5420   -1.6950 O.2    81  LEU81      -0.2715
    108  CB         0.1180   11.6370   -2.5180 C.3    81  LEU81       0.0311
    109  CG         1.4270   10.8980   -2.2330 C.3    81  LEU81       0.0022
    110  CD1        1.2780   10.0590   -0.9730 C.3    81  LEU81       0.0001
    111  CD2        1.8460   10.0450   -3.4400 C.3    81  LEU81       0.0001
    112  N          1.0890   13.3890    0.1880 N.am   82  LEU82      -0.1963
    113  CA         2.1070   14.2680    0.7640 C.3    82  LEU82       0.1728
    114  C          3.4410   13.5360    0.9080 C.2    82  LEU82       0.2616
    115  O          3.5320   12.3360    0.7030 O.2    82  LEU82      -0.2715
    116  CB         1.6260   14.7230    2.1450 C.3    82  LEU82       0.0311
    117  CG         0.2780   15.4550    2.1040 C.3    82  LEU82       0.0022
    118  CD1       -0.1000   15.8110    3.5450 C.3    82  LEU82       0.0001
    119  CD2        0.3100   16.7040    1.2190 C.3    82  LEU82       0.0001
    120  N          4.4540   14.2750    1.3260 N.am   83  GLY83      -0.1955
    121  CA         5.8130   13.7880    1.4540 C.3    83  GLY83       0.1869
    122  C          6.0760   13.1770    2.8190 C.2    83  GLY83       0.2309
    123  O          5.1480   12.8060    3.5050 O.2    83  GLY83      -0.2863
    124  N          6.9500   12.6420    6.8250 N.3    85  SER85      -0.1217
    125  CA         6.7490   13.3250    8.0630 C.3    85  SER85       0.1889
    126  C          8.0180   13.9480    8.6390 C.2    85  SER85       0.2288
    127  O          9.1540   13.5410    8.3640 O.2    85  SER85      -0.2866
    128  CB         6.1490   12.3670    9.0880 C.3    85  SER85       0.2089
    129  OG         7.1490   11.4860    9.5070 O.3    85  SER85      -0.2183
    130  N         10.0430   11.0800   10.3360 N.3    88  ASP88      -0.1239
    131  CA        10.8440   10.3930    9.3280 C.3    88  ASP88       0.1674
    132  C         12.0100   11.2490    8.9160 C.2    88  ASP88       0.2266
    133  O         13.1310   10.7520    8.8180 O.2    88  ASP88      -0.2867
    134  CB        10.0110    9.9570    8.1100 C.3    88  ASP88       0.1410
    135  CG         9.0740    8.7650    8.4150 C.2    88  ASP88       0.3668
    136  OD1        9.2050    8.1250    9.4850 O.co2  88  ASP88      -0.2456
    137  OD2        8.2240    8.4350    7.5490 O.co2  88  ASP88      -0.2456
    138  N          5.1300   12.9510   13.7620 N.3   129  ASP129     -0.1225
    139  CA         4.5180   12.0250   12.8120 C.3   129  ASP129      0.1805
    140  C          3.3070   12.5910   12.0570 C.2   129  ASP129      0.2597
    141  O          2.8840   12.0230   11.0340 O.2   129  ASP129     -0.2718
    142  CB         4.0390   10.7660   13.5530 C.3   129  ASP129      0.1424
    143  CG         5.0610   10.2480   14.6460 C.2   129  ASP129      0.3668
    144  OD1        5.3170   10.9730   15.6850 O.co2 129  ASP129     -0.2456
    145  OD2        5.5710    9.1200   14.4380 O.co2 129  ASP129     -0.2456
    146  N          2.6950   13.6350   12.5920 N.am  130  ASN130     -0.1974
    147  CA         1.5180   14.1990   11.9850 C.3   130  ASN130      0.1688
    148  C          1.8060   15.4990   11.2480 C.2   130  ASN130      0.2292
    149  O          0.8770   16.1750   10.8660 O.2   130  ASN130     -0.2864
    150  CB         0.4040   14.3850   13.0120 C.3   130  ASN130      0.1181
    151  CG        -0.1980   13.0700   13.4590 C.2   130  ASN130      0.2629
    152  OD1       -0.2150   12.0960   12.7070 O.2   130  ASN130     -0.2716
    153  ND2       -0.6950   13.0330   14.6820 N.am  130  ASN130     -0.0877
    154  N          3.6400   16.5700    7.8080 N.3   132  LEU132     -0.1245
    155  CA         4.2910   16.0980    6.6040 C.3   132  LEU132      0.1561
    156  C          4.5900   17.2410    5.6540 C.2   132  LEU132      0.2260
    157  O          3.8240   18.2180    5.5550 O.2   132  LEU132     -0.2867
    158  CB         3.4770   15.0280    5.8730 C.3   132  LEU132      0.0270
    159  CG         2.5630   14.0940    6.6320 C.3   132  LEU132      0.0019
    160  CD1        1.8980   13.1670    5.6220 C.3   132  LEU132      0.0001
    161  CD2        3.1950   13.2980    7.7430 C.3   132  LEU132      0.0001
    162  N         -1.6520   16.5190    9.4080 N.3   145  ILE145     -0.1231
    163  CA        -2.5460   15.3960    9.1920 C.3   145  ILE145      0.1692
    164  C         -3.1210   14.8470   10.5020 C.2   145  ILE145      0.2592
    165  O         -2.8750   15.3810   11.6070 O.2   145  ILE145     -0.2718
    166  CB        -1.8100   14.3040    8.4090 C.3   145  ILE145      0.0266
    167  CG1       -0.6050   13.8010    9.1880 C.3   145  ILE145      0.0019
    168  CG2       -1.3470   14.8400    7.0590 C.3   145  ILE145      0.0020
    169  CD1       -0.2830   12.3650    8.9490 C.3   145  ILE145      0.0001
    170  N         -3.9520   13.8070   10.3460 N.am  146  ASP146     -0.1974
    171  CA        -4.5180   12.9910   11.4180 C.3   146  ASP146      0.1709
    172  C         -5.5290   13.7170   12.2700 C.2   146  ASP146      0.2293
    173  O         -5.2300   14.1580   13.4010 O.2   146  ASP146     -0.2864
    174  CB        -3.4400   12.3850   12.3200 C.3   146  ASP146      0.1436
    175  CG        -4.0160   11.4650   13.4200 C.2   146  ASP146      0.3671
    176  OD1       -5.2240   11.1220   13.3840 O.co2 146  ASP146     -0.2456
    177  OD2       -3.2230   11.1170   14.3330 O.co2 146  ASP146     -0.2456
@<TRIPOS>BOND
     1   111   109    1
     2   108   109    1
     3   108   105    1
     4   102   101   ar
     5   109   110    1
     6   100   101    1
     7   100    99    1
     8   104   105    1
     9   104    97   am
    10   107   106    2
    11   101   103   ar
    12    37    38    1
    13    96    99    1
    14    96    95    1
    15    96    97    1
    16    90    89    2
    17   105   106    1
    18   106   112   am
    19    95    89   am
    20    97    98    2
    21    89    88    1
    22    38    39    1
    23    38    41    1
    24    87    88    1
    25    39    40    2
    26    88    91    1
    27   112   113    1
    28   115   114    2
    29   113   114    1
    30   113   116    1
    31   114   120   am
    32   119   117    1
    33     7     5    1
    34   120   121    1
    35   121   122    1
    36    91    92    1
    37    81    82    2
    38    81    80    1
    39     8     6    1
    40    74    73    1
    41    74    75    2
    42   117   116    1
    43   117   118    1
    44    80    79    1
    45    80    83    1
    46     6     5    1
    47    73    76    1
    48    73    72    1
    49    42    43    1
    50     5     2    1
    51    92    93    1
    52   122   123    2
    53    93    94    1
    54    76    77    1
    55     1     2    1
    56    45    44    2
    57    31    32    2
    58    31    30    1
    59     2     3    1
    60    83    84    1
    61    72    78    1
    62    84    85    1
    63    44    43    1
    64    35    33    1
    65    43    46    1
    66    77    78    1
    67    30    33    1
    68    30    29    1
    69    46    47    1
    70     3     4    2
    71     3     9   am
    72    33    34    1
    73    63    62    2
    74   157   156    2
    75    85    86    1
    76   160   159    1
    77   156   155    1
    78     9    10    1
    79   158   155    1
    80   158   159    1
    81    62    61    1
    82    64    65    1
    83    64    61    1
    84    36    34    1
    85    66    65   ar
    86    66    68   ar
    87    65    67   ar
    88    47    48    1
    89    68    70   ar
    90   155   154    1
    91   159   161    1
    92    67    69   ar
    93   124   125    1
    94    61    60    1
    95    70    69   ar
    96    70    71    1
    97   168   166    1
    98    10    11    1
    99    12    11    2
   100    48    49    1
   101   137   135   ar
   102    11    13   am
   103   125   126    1
   104   125   128    1
   105   134   135    1
   106   134   131    1
   107   127   126    2
   108   166   167    1
   109   166   163    1
   110   135   136   ar
   111    54    53    2
   112   133   132    2
   113    49    50    1
   114    53    52    1
   115   132   131    1
   116   169   167    1
   117   128   129    1
   118    13    14    1
   119   163   162    1
   120   163   164    1
   121   131   130    1
   122    18    17    1
   123    58    57   ar
   124    59    57   ar
   125    57    56    1
   126    14    17    1
   127    14    15    1
   128    56    55    1
   129    55    52    1
   130    52    51    1
   131   170   164   am
   132   170   171    1
   133   164   165    2
   134   149   148    2
   135   141   140    2
   136    15    19   am
   137    15    16    2
   138   148   147    1
   139    19    20    1
   140   171   172    1
   141   171   174    1
   142   147   146    1
   143   147   150    1
   144   140   146   am
   145   140   139    1
   146   172   173    2
   147   174   175    1
   148    20    21    1
   149   152   151    2
   150   139   142    1
   151   139   138    1
   152   150   151    1
   153   176   175   ar
   154   175   177   ar
   155   151   153   am
   156   142   143    1
   157    21    22    2
   158    21    23   am
   159    23    24    1
   160   145   143   ar
   161   143   144   ar
   162    25    24    1
   163    25    26    2
   164    24    27    1
   165    28    27    1
