@<TRIPOS>MOLECULE
tmp/5x1fN01.pdb
 225 227 0 0 0
SMALL
GASTEIGER

@<TRIPOS>ATOM
      1  N        140.1990  295.3890  216.5710 N.3     1  PHE1       -0.1241
      2  CA       140.4400  296.1860  215.3670 C.3     1  PHE1        0.1605
      3  C        139.2760  296.1150  214.3900 C.2     1  PHE1        0.2264
      4  O        138.7890  297.1450  213.8820 O.2     1  PHE1       -0.2867
      5  CB       141.7160  295.7670  214.6320 C.3     1  PHE1        0.0534
      6  CG       142.0320  296.6520  213.4570 C.ar    1  PHE1       -0.0203
      7  CD1      142.8030  297.8040  213.6270 C.ar    1  PHE1       -0.0042
      8  CD2      141.5170  296.3650  212.1790 C.ar    1  PHE1       -0.0042
      9  CE1      143.0750  298.6450  212.5440 C.ar    1  PHE1       -0.0003
     10  CE2      141.7730  297.2090  211.1000 C.ar    1  PHE1       -0.0003
     11  CZ       142.5620  298.3460  211.2790 C.ar    1  PHE1       -0.0000
     12  N        136.5790  299.2080  213.3760 N.3     5  TRP5       -0.1227
     13  CA       136.7170  299.8400  212.0860 C.3     5  TRP5        0.1737
     14  C        135.9500  299.2770  210.9390 C.2     5  TRP5        0.2595
     15  O        135.8470  299.9390  209.8860 O.2     5  TRP5       -0.2718
     16  CB       138.1930  299.9640  211.7040 C.3     5  TRP5        0.0564
     17  CG       138.9360  300.7740  212.6890 C.ar    5  TRP5        0.0003
     18  CD1      139.8620  300.3220  213.6360 C.ar    5  TRP5        0.0946
     19  CD2      138.8300  302.2020  212.8920 C.ar    5  TRP5        0.0152
     20  NE1      140.3230  301.3620  214.3870 N.ar    5  TRP5       -0.2442
     21  CE2      139.7510  302.5230  213.9990 C.ar    5  TRP5        0.0810
     22  CE3      138.1110  303.2190  212.2940 C.ar    5  TRP5        0.0012
     23  CZ2      139.8950  303.8030  214.4770 C.ar    5  TRP5        0.0191
     24  CZ3      138.2830  304.5160  212.7880 C.ar    5  TRP5        0.0001
     25  CH2      139.1440  304.7950  213.8450 C.ar    5  TRP5        0.0015
     26  N        135.4800  298.0440  211.0790 N.am    6  LEU6       -0.1980
     27  CA       134.6160  297.4410  210.0550 C.3     6  LEU6        0.1596
     28  C        133.1260  297.3640  210.5050 C.2     6  LEU6        0.2287
     29  O        132.2250  297.3920  209.6720 O.2     6  LEU6       -0.2864
     30  CB       135.1490  296.0550  209.6940 C.3     6  LEU6        0.0297
     31  CG       136.2570  295.8890  208.6400 C.3     6  LEU6        0.0022
     32  CD1      137.4750  296.7330  208.9820 C.3     6  LEU6        0.0001
     33  CD2      136.6390  294.3990  208.5180 C.3     6  LEU6        0.0001
     34  N        135.8500  309.6850  210.3030 N.3    16  THR16      -0.1203
     35  CA       137.2520  309.3890  210.0030 C.3    16  THR16       0.1994
     36  C        137.4700  308.4770  208.7730 C.2    16  THR16       0.2617
     37  O        138.3210  308.7740  207.8860 O.2    16  THR16      -0.2717
     38  CB       137.9510  308.8270  211.2650 C.3    16  THR16       0.1784
     39  OG1      138.0800  309.9060  212.2170 O.3    16  THR16      -0.2211
     40  CG2      139.3830  308.2500  210.9230 C.3    16  THR16       0.0376
     41  N        136.6830  307.3890  208.6980 N.am   17  LEU17      -0.1979
     42  CA       136.7370  306.5280  207.5470 C.3    17  LEU17       0.1596
     43  C        136.4100  307.3430  206.2820 C.2    17  LEU17       0.2287
     44  O        137.1090  307.1690  205.2750 O.2    17  LEU17      -0.2864
     45  CB       135.7700  305.3280  207.7130 C.3    17  LEU17       0.0297
     46  CG       136.1080  304.2530  208.7710 C.3    17  LEU17       0.0022
     47  CD1      134.9750  303.2400  208.9000 C.3    17  LEU17       0.0001
     48  CD2      137.4480  303.5920  208.4150 C.3    17  LEU17       0.0001
     49  N        136.9900  310.4450  205.6840 N.3    19  LEU19      -0.1231
     50  CA       138.0700  311.3730  205.3210 C.3    19  LEU19       0.1693
     51  C        139.2050  310.5960  204.6720 C.2    19  LEU19       0.2592
     52  O        139.7730  311.0150  203.6470 O.2    19  LEU19      -0.2718
     53  CB       138.5720  312.1650  206.5540 C.3    19  LEU19       0.0284
     54  CG       137.5170  313.0830  207.1600 C.3    19  LEU19       0.0019
     55  CD1      138.0390  313.5660  208.4920 C.3    19  LEU19       0.0001
     56  CD2      137.2590  314.2790  206.2490 C.3    19  LEU19       0.0001
     57  N        139.5010  309.4410  205.2450 N.am   20  LEU20      -0.1966
     58  CA       140.4800  308.5650  204.6390 C.3    20  LEU20       0.1728
     59  C        140.1270  308.1260  203.2180 C.2    20  LEU20       0.2616
     60  O        141.0250  308.0400  202.3570 O.2    20  LEU20      -0.2715
     61  CB       140.7350  307.3380  205.5130 C.3    20  LEU20       0.0311
     62  CG       141.1770  307.6570  206.9560 C.3    20  LEU20       0.0022
     63  CD1      141.4050  306.3830  207.7540 C.3    20  LEU20       0.0001
     64  CD2      142.4160  308.5100  207.0130 C.3    20  LEU20       0.0001
     65  N        138.8420  307.8870  202.9560 N.am   21  PHE21      -0.1974
     66  CA       138.4490  307.3440  201.6530 C.3    21  PHE21       0.1639
     67  C        138.5290  308.5140  200.6310 C.2    21  PHE21       0.2290
     68  O        139.0440  308.3390  199.5030 O.2    21  PHE21      -0.2864
     69  CB       137.0430  306.7080  201.7550 C.3    21  PHE21       0.0560
     70  CG       136.4480  306.3190  200.4210 C.ar   21  PHE21      -0.0200
     71  CD1      136.6630  305.0520  199.8890 C.ar   21  PHE21      -0.0042
     72  CD2      135.6740  307.2490  199.6780 C.ar   21  PHE21      -0.0042
     73  CE1      136.1230  304.6930  198.6500 C.ar   21  PHE21      -0.0003
     74  CE2      135.1490  306.8880  198.4380 C.ar   21  PHE21      -0.0003
     75  CZ       135.3720  305.6110  197.9150 C.ar   21  PHE21      -0.0000
     76  N        140.3380  311.2860  200.7300 N.3    23  ALA23      -0.1231
     77  CA       141.7250  311.5880  200.4800 C.3    23  ALA23       0.1694
     78  C        142.3940  310.6720  199.4430 C.2    23  ALA23       0.2592
     79  O        143.1130  311.1300  198.5520 O.2    23  ALA23      -0.2718
     80  CB       142.4900  311.5950  201.7980 C.3    23  ALA23       0.0304
     81  N        142.1660  309.3870  199.5510 N.am   24  TRP24      -0.1976
     82  CA       142.7560  308.4000  198.6330 C.3    24  TRP24       0.1640
     83  C        142.1290  308.6220  197.2600 C.2    24  TRP24       0.2290
     84  O        142.7970  308.7430  196.2240 O.2    24  TRP24      -0.2864
     85  CB       142.4490  307.0280  199.1960 C.3    24  TRP24       0.0576
     86  CG       143.2200  305.9350  198.4750 C.ar   24  TRP24       0.0006
     87  CD1      144.4910  305.4310  198.7700 C.ar   24  TRP24       0.0946
     88  CD2      142.7820  305.2200  197.3040 C.ar   24  TRP24       0.0152
     89  NE1      144.8610  304.4580  197.8620 N.ar   24  TRP24      -0.2442
     90  CE2      143.8680  304.2790  196.9600 C.ar   24  TRP24       0.0810
     91  CE3      141.6260  305.2470  196.5210 C.ar   24  TRP24       0.0012
     92  CZ2      143.7800  303.4320  195.8740 C.ar   24  TRP24       0.0191
     93  CZ3      141.5320  304.3590  195.4170 C.ar   24  TRP24       0.0001
     94  CH2      142.5900  303.4730  195.1080 C.ar   24  TRP24       0.0015
     95  N        131.4670  314.0030  211.6290 N.3    80  TRP80      -0.1241
     96  CA       132.2870  314.3760  212.7440 C.3    80  TRP80       0.1605
     97  C        131.5680  315.4410  213.4600 C.2    80  TRP80       0.2264
     98  O        131.3880  315.3470  214.6710 O.2    80  TRP80      -0.2867
     99  CB       133.6850  314.8380  212.3020 C.3    80  TRP80       0.0550
    100  CG       134.7870  313.8420  212.5450 C.ar   80  TRP80       0.0003
    101  CD1      135.4150  312.9980  211.6050 C.ar   80  TRP80       0.0946
    102  CD2      135.4480  313.5620  213.8040 C.ar   80  TRP80       0.0152
    103  NE1      136.4000  312.2520  212.1980 N.ar   80  TRP80      -0.2442
    104  CE2      136.4830  312.5480  213.5130 C.ar   80  TRP80       0.0810
    105  CE3      135.3410  314.0670  215.0960 C.ar   80  TRP80       0.0012
    106  CZ2      137.3530  312.0590  214.5150 C.ar   80  TRP80       0.0191
    107  CZ3      136.2190  313.5660  216.0920 C.ar   80  TRP80       0.0001
    108  CH2      137.1700  312.5730  215.8090 C.ar   80  TRP80       0.0015
    109  N        128.8030  304.4190  204.4080 N.3   101  PHE101     -0.1227
    110  CA       130.2490  304.4950  204.1270 C.3   101  PHE101      0.1736
    111  C        130.6910  303.2630  203.3250 C.2   101  PHE101      0.2595
    112  O        131.2740  303.4120  202.2250 O.2   101  PHE101     -0.2718
    113  CB       131.1070  304.5850  205.3690 C.3   101  PHE101      0.0547
    114  CG       132.5440  304.4020  205.0380 C.ar  101  PHE101     -0.0202
    115  CD1      133.2340  305.3870  204.3420 C.ar  101  PHE101     -0.0042
    116  CD2      133.1870  303.1780  205.2830 C.ar  101  PHE101     -0.0042
    117  CE1      134.5430  305.1650  203.9290 C.ar  101  PHE101     -0.0003
    118  CE2      134.5090  302.9890  204.8760 C.ar  101  PHE101     -0.0003
    119  CZ       135.1840  303.9900  204.2110 C.ar  101  PHE101     -0.0000
    120  N        130.4190  302.0610  203.8740 N.am  102  TRP102     -0.1976
    121  CA       130.8520  300.7700  203.2240 C.3   102  TRP102      0.1640
    122  C        130.3300  300.5400  201.8390 C.2   102  TRP102      0.2290
    123  O        130.9270  299.7610  201.1090 O.2   102  TRP102     -0.2864
    124  CB       130.6210  299.5280  204.0960 C.3   102  TRP102      0.0576
    125  CG       131.6590  299.5050  205.1760 C.ar  102  TRP102      0.0006
    126  CD1      131.4730  299.7360  206.5320 C.ar  102  TRP102      0.0946
    127  CD2      133.1260  299.2900  205.0170 C.ar  102  TRP102      0.0152
    128  NE1      132.6830  299.6710  207.1940 N.ar  102  TRP102     -0.2442
    129  CE2      133.7030  299.4230  206.3430 C.ar  102  TRP102      0.0810
    130  CE3      133.9840  299.0650  203.9310 C.ar  102  TRP102      0.0012
    131  CZ2      135.0880  299.3290  206.5610 C.ar  102  TRP102      0.0191
    132  CZ3      135.3660  298.9400  204.1650 C.ar  102  TRP102      0.0001
    133  CH2      135.9060  299.0980  205.4440 C.ar  102  TRP102      0.0015
    134  N        133.3630  301.9510  199.0240 N.3   105  PRO105     -0.2116
    135  CA       134.4860  301.2040  198.3630 C.3   105  PRO105      0.1372
    136  C        134.0360  300.2340  197.2310 C.2   105  PRO105      0.2244
    137  O        134.7030  300.2110  196.1820 O.2   105  PRO105     -0.2868
    138  CB       135.2230  300.5180  199.5310 C.3   105  PRO105      0.0268
    139  CG       134.7930  301.2900  200.7550 C.3   105  PRO105      0.0207
    140  CD       133.3770  301.8370  200.4890 C.3   105  PRO105      0.0892
    141  N        133.3260  302.5350  194.1860 N.3   108  PHE108     -0.1227
    142  CA       134.5780  302.9130  193.5670 C.3   108  PHE108      0.1736
    143  C        135.2170  301.7590  192.7600 C.2   108  PHE108      0.2595
    144  O        135.7620  301.9540  191.6610 O.2   108  PHE108     -0.2718
    145  CB       135.5510  303.3530  194.6510 C.3   108  PHE108      0.0547
    146  CG       136.5870  304.3380  194.1720 C.ar  108  PHE108     -0.0202
    147  CD1      136.7220  304.6440  192.8150 C.ar  108  PHE108     -0.0042
    148  CD2      137.4540  304.9460  195.0770 C.ar  108  PHE108     -0.0042
    149  CE1      137.7110  305.5360  192.3800 C.ar  108  PHE108     -0.0003
    150  CE2      138.4290  305.8570  194.6520 C.ar  108  PHE108     -0.0003
    151  CZ       138.5630  306.1460  193.3020 C.ar  108  PHE108     -0.0000
    152  N        135.1740  300.5660  193.3450 N.am  109  LEU109     -0.1980
    153  CA       135.6350  299.3410  192.6670 C.3   109  LEU109      0.1596
    154  C        134.8740  299.1450  191.3420 C.2   109  LEU109      0.2287
    155  O        135.4950  298.8130  190.3410 O.2   109  LEU109     -0.2864
    156  CB       135.4760  298.1120  193.5990 C.3   109  LEU109      0.0297
    157  CG       135.8210  296.7910  192.9260 C.3   109  LEU109      0.0022
    158  CD1      137.3040  296.8110  192.5450 C.3   109  LEU109      0.0001
    159  CD2      135.5330  295.6310  193.8700 C.3   109  LEU109      0.0001
    160  N        136.2780  301.6350  188.7310 N.3   112  LEU112     -0.1245
    161  CA       137.5900  301.2750  188.2960 C.3   112  LEU112      0.1561
    162  C        137.4600  300.0870  187.3360 C.2   112  LEU112      0.2260
    163  O        137.9920  300.1160  186.2400 O.2   112  LEU112     -0.2867
    164  CB       138.5000  300.9520  189.5020 C.3   112  LEU112      0.0270
    165  CG       138.8390  302.0280  190.5820 C.3   112  LEU112      0.0019
    166  CD1      139.8250  301.5230  191.6430 C.3   112  LEU112      0.0001
    167  CD2      139.3310  303.3340  189.9780 C.3   112  LEU112      0.0001
    168  N        139.6730  321.5320  206.6220 N.3   392  PHE392     -0.1241
    169  CA       140.5840  320.4600  207.0450 C.3   392  PHE392      0.1605
    170  C        141.5700  321.0530  208.0440 C.2   392  PHE392      0.2264
    171  O        141.7360  320.5260  209.1710 O.2   392  PHE392     -0.2867
    172  CB       141.2940  319.7650  205.8940 C.3   392  PHE392      0.0534
    173  CG       142.1500  318.6270  206.3510 C.ar  392  PHE392     -0.0203
    174  CD1      141.5740  317.4420  206.7960 C.ar  392  PHE392     -0.0042
    175  CD2      143.5370  318.7660  206.4200 C.ar  392  PHE392     -0.0042
    176  CE1      142.3580  316.3920  207.2420 C.ar  392  PHE392     -0.0003
    177  CE2      144.3310  317.7420  206.8870 C.ar  392  PHE392     -0.0003
    178  CZ       143.7350  316.5350  207.2760 C.ar  392  PHE392     -0.0000
    179  N        141.3710  319.9010  211.9290 N.3   396  PHE396     -0.1241
    180  CA       142.4120  318.8290  212.1200 C.3   396  PHE396      0.1605
    181  C        142.8530  318.5900  213.5640 C.2   396  PHE396      0.2264
    182  O        142.9060  317.4300  213.9830 O.2   396  PHE396     -0.2867
    183  CB       143.6750  319.0720  211.2740 C.3   396  PHE396      0.0534
    184  CG       144.6940  317.9670  211.3810 C.ar  396  PHE396     -0.0203
    185  CD1      144.5190  316.7550  210.6800 C.ar  396  PHE396     -0.0042
    186  CD2      145.8120  318.1040  212.2170 C.ar  396  PHE396     -0.0042
    187  CE1      145.4890  315.7490  210.7690 C.ar  396  PHE396     -0.0003
    188  CE2      146.7760  317.1030  212.3250 C.ar  396  PHE396     -0.0003
    189  CZ       146.6150  315.9150  211.5960 C.ar  396  PHE396     -0.0000
    190  N        140.0930  316.5840  215.3100 N.3   399  PHE399     -0.1227
    191  CA       139.9380  315.1850  214.9100 C.3   399  PHE399      0.1736
    192  C        141.1380  314.4020  215.3940 C.2   399  PHE399      0.2596
    193  O        140.9660  313.2710  215.8800 O.2   399  PHE399     -0.2718
    194  CB       139.9040  315.0460  213.3940 C.3   399  PHE399      0.0547
    195  CG       138.8070  315.8530  212.7120 C.ar  399  PHE399     -0.0202
    196  CD1      137.5960  316.0700  213.3380 C.ar  399  PHE399     -0.0042
    197  CD2      139.0000  316.3450  211.3990 C.ar  399  PHE399     -0.0042
    198  CE1      136.6030  316.8150  212.7130 C.ar  399  PHE399     -0.0003
    199  CE2      138.0050  317.0460  210.7580 C.ar  399  PHE399     -0.0003
    200  CZ       136.8050  317.2810  211.4220 C.ar  399  PHE399     -0.0000
    201  N        142.3300  315.0140  215.2550 N.am  400  SER400     -0.1952
    202  CA       143.6110  314.3710  215.5660 C.3   400  SER400      0.1924
    203  C        144.1640  314.5480  216.9740 C.2   400  SER400      0.2314
    204  O        144.8420  313.6230  217.4790 O.2   400  SER400     -0.2863
    205  CB       144.6860  314.7200  214.5320 C.3   400  SER400      0.2116
    206  OG       145.3250  315.9520  214.8570 O.3   400  SER400     -0.2180
    207  N        150.9380  316.5890  206.6560 N.3   471  ILE471     -0.1245
    208  CA       150.1050  315.7730  207.5510 C.3   471  ILE471      0.1561
    209  C        151.0290  314.8150  208.2980 C.2   471  ILE471      0.2260
    210  O        150.9050  314.6680  209.5270 O.2   471  ILE471     -0.2867
    211  CB       148.9030  315.0530  206.8310 C.3   471  ILE471      0.0252
    212  CG1      147.8840  316.1230  206.3970 C.3   471  ILE471      0.0019
    213  CG2      148.1840  314.0210  207.7400 C.3   471  ILE471      0.0019
    214  CD1      147.2180  315.8090  205.0750 C.3   471  ILE471      0.0001
    215  N        151.7240  314.3290  212.4500 N.3   475  PHE475     -0.1241
    216  CA       151.6660  313.0390  213.1100 C.3   475  PHE475      0.1605
    217  C        153.0390  312.6720  213.6250 C.2   475  PHE475      0.2264
    218  O        153.1500  312.1500  214.7040 O.2   475  PHE475     -0.2867
    219  CB       151.0370  311.9960  212.2010 C.3   475  PHE475      0.0534
    220  CG       149.5180  312.0550  212.2070 C.ar  475  PHE475     -0.0203
    221  CD1      148.8060  311.9350  213.3950 C.ar  475  PHE475     -0.0042
    222  CD2      148.7970  312.2160  211.0390 C.ar  475  PHE475     -0.0042
    223  CE1      147.3940  311.9460  213.4020 C.ar  475  PHE475     -0.0003
    224  CE2      147.3860  312.2690  211.0430 C.ar  475  PHE475     -0.0003
    225  CZ       146.6840  312.1280  212.2290 C.ar  475  PHE475     -0.0000
@<TRIPOS>BOND
     1   163   162    2
     2   162   161    1
     3   161   160    1
     4   161   164    1
     5   164   165    1
     6   167   165    1
     7   155   154    2
     8   165   166    1
     9   154   153    1
    10   144   143    2
    11   149   147   ar
    12   149   151   ar
    13   158   157    1
    14   153   152    1
    15   153   156    1
    16   143   152   am
    17   143   142    1
    18   147   146   ar
    19   157   156    1
    20   157   159    1
    21   151   150   ar
    22   142   141    1
    23   142   145    1
    24   146   145    1
    25   146   148   ar
    26   150   148   ar
    27    94    93   ar
    28    94    92   ar
    29    93    91   ar
    30    92    90   ar
    31   137   136    2
    32    84    83    2
    33    91    88   ar
    34    90    88   ar
    35    90    89   ar
    36   136   135    1
    37    83    82    1
    38    88    86   ar
    39    89    87   ar
    40    75    74   ar
    41    75    73   ar
    42   135   134    1
    43   135   138    1
    44    74    72   ar
    45    86    87   ar
    46    86    85    1
    47    79    78    2
    48    82    85    1
    49    82    81    1
    50    73    71   ar
    51   134   140    1
    52    78    81   am
    53    78    77    1
    54    68    67    2
    55   138   139    1
    56    72    70   ar
    57    71    70   ar
    58    70    69    1
    59    77    76    1
    60    77    80    1
    61   140   139    1
    62    67    66    1
    63   123   122    2
    64    66    69    1
    65    66    65    1
    66   122   121    1
    67   112   111    2
    68    60    59    2
    69    65    59   am
    70    59    58    1
    71   121   120    1
    72   121   124    1
    73   111   120   am
    74   111   110    1
    75    52    51    2
    76   117   119   ar
    77   117   115   ar
    78   130   132   ar
    79   130   127   ar
    80   124   125    1
    81   110   109    1
    82   110   113    1
    83   132   133   ar
    84   119   118   ar
    85   115   114   ar
    86    58    57    1
    87    58    61    1
    88    51    57   am
    89    51    50    1
    90   118   116   ar
    91   127   125   ar
    92   127   129   ar
    93   114   116   ar
    94   114   113    1
    95   214   212    1
    96   125   126   ar
    97    44    43    2
    98    50    49    1
    99    50    53    1
   100   133   131   ar
   101    61    62    1
   102   172   173    1
   103   172   169    1
   104    56    54    1
   105    43    42    1
   106   129   131   ar
   107   129   128   ar
   108   173   175   ar
   109   173   174   ar
   110   212   211    1
   111   175   177   ar
   112   126   128   ar
   113    53    54    1
   114   168   169    1
   115   207   208    1
   116   174   176   ar
   117   211   208    1
   118   211   213    1
   119   177   178   ar
   120    62    64    1
   121    62    63    1
   122   169   170    1
   123    54    55    1
   124   176   178   ar
   125    42    45    1
   126    42    41    1
   127   208   209    1
   128    45    46    1
   129    37    36    2
   130   170   171    2
   131   209   210    2
   132    48    46    1
   133    33    31    1
   134    31    32    1
   135    31    30    1
   136    41    36   am
   137    46    47    1
   138    36    35    1
   139    29    28    2
   140    30    27    1
   141    15    14    2
   142    35    34    1
   143    35    38    1
   144    27    28    1
   145    27    26    1
   146   185   187   ar
   147   185   184   ar
   148   199   197   ar
   149   199   200   ar
   150   187   189   ar
   151    40    38    1
   152    14    26   am
   153    14    13    1
   154   222   224   ar
   155   222   220   ar
   156   224   225   ar
   157    10    11   ar
   158    10     8   ar
   159    38    39    1
   160   183   184    1
   161   183   180    1
   162    11     9   ar
   163   184   186   ar
   164   197   195   ar
   165   200   198   ar
   166   189   188   ar
   167   101   103   ar
   168   101   100   ar
   169    95    96    1
   170    16    13    1
   171    16    17    1
   172   179   180    1
   173    13    12    1
   174   180   181    1
   175     8     6   ar
   176   103   104   ar
   177   219   220    1
   178   219   216    1
   179   220   221   ar
   180   186   188   ar
   181   225   223   ar
   182    22    24   ar
   183    22    19   ar
   184    99   100    1
   185    99    96    1
   186   215   216    1
   187     9     7   ar
   188   100   102   ar
   189    17    19   ar
   190    17    18   ar
   191   195   196   ar
   192   195   194    1
   193   198   196   ar
   194    96    97    1
   195    24    25   ar
   196    19    21   ar
   197   216   217    1
   198   194   191    1
   199   221   223   ar
   200     6     7   ar
   201     6     5    1
   202    97    98    2
   203   104   102   ar
   204   104   106   ar
   205   181   182    2
   206   217   218    2
   207    18    20   ar
   208   102   105   ar
   209    25    23   ar
   210     4     3    2
   211    21    20   ar
   212    21    23   ar
   213     3     2    1
   214   106   108   ar
   215   205   206    1
   216   205   202    1
   217     5     2    1
   218   191   190    1
   219   191   192    1
   220   105   107   ar
   221   201   192   am
   222   201   202    1
   223     2     1    1
   224   192   193    2
   225   202   203    1
   226   108   107   ar
   227   203   204    2
