@<TRIPOS>MOLECULE
tmp/5x1fN08.pdb
 145 144 0 0 0
SMALL
GASTEIGER

@<TRIPOS>ATOM
      1  N        136.6530  335.1110  197.2410 N.3   345  PHE345     -0.1227
      2  CA       136.8640  335.8620  195.9980 C.3   345  PHE345      0.1736
      3  C        136.8310  334.9180  194.7940 C.2   345  PHE345      0.2595
      4  O        136.1880  335.1850  193.7900 O.2   345  PHE345     -0.2718
      5  CB       138.1390  336.7000  196.0440 C.3   345  PHE345      0.0547
      6  CG       138.4530  337.3860  194.7370 C.ar  345  PHE345     -0.0202
      7  CD1      137.6940  338.4870  194.3030 C.ar  345  PHE345     -0.0042
      8  CD2      139.5010  336.9260  193.9260 C.ar  345  PHE345     -0.0042
      9  CE1      137.9700  339.1200  193.0950 C.ar  345  PHE345     -0.0003
     10  CE2      139.7770  337.5710  192.7110 C.ar  345  PHE345     -0.0003
     11  CZ       139.0070  338.6550  192.2890 C.ar  345  PHE345     -0.0000
     12  N        137.5140  333.8110  194.8750 N.am  346  LEU346     -0.1980
     13  CA       137.5090  332.8670  193.6920 C.3   346  LEU346      0.1596
     14  C        136.1150  332.3200  193.4130 C.2   346  LEU346      0.2287
     15  O        135.7390  332.1940  192.2760 O.2   346  LEU346     -0.2864
     16  CB       138.5650  331.7450  193.8300 C.3   346  LEU346      0.0297
     17  CG       139.9730  332.4260  193.8730 C.3   346  LEU346      0.0022
     18  CD1      141.0500  331.5080  194.3550 C.3   346  LEU346      0.0001
     19  CD2      140.4480  333.1030  192.5650 C.3   346  LEU346      0.0001
     20  N        134.1380  335.0600  191.4280 N.3   349  VAL349     -0.1245
     21  CA       134.5590  334.9150  190.0480 C.3   349  VAL349      0.1561
     22  C        133.8430  333.7600  189.3020 C.2   349  VAL349      0.2260
     23  O        133.2080  333.9890  188.2520 O.2   349  VAL349     -0.2867
     24  CB       136.1140  334.8640  189.9390 C.3   349  VAL349      0.0252
     25  CG1      136.5550  334.5990  188.4900 C.3   349  VAL349      0.0019
     26  CG2      136.7180  336.1940  190.4790 C.3   349  VAL349      0.0019
     27  N        130.2130  334.5790  188.9790 N.3   352  LEU352     -0.1231
     28  CA       129.9620  335.5600  187.9410 C.3   352  LEU352      0.1693
     29  C        130.0960  334.9480  186.5350 C.2   352  LEU352      0.2592
     30  O        129.3420  335.3170  185.6040 O.2   352  LEU352     -0.2718
     31  CB       130.8620  336.7700  188.1060 C.3   352  LEU352      0.0284
     32  CG       130.5740  337.6280  189.3530 C.3   352  LEU352      0.0019
     33  CD1      131.7020  338.6140  189.6960 C.3   352  LEU352      0.0001
     34  CD2      129.2530  338.3410  189.1560 C.3   352  LEU352      0.0001
     35  N        130.9870  333.9880  186.3170 N.am  353  THR353     -0.1953
     36  CA       130.9950  333.4720  184.9290 C.3   353  THR353      0.1897
     37  C        129.7610  332.5930  184.7430 C.2   353  THR353      0.2313
     38  O        129.2880  332.3290  183.6140 O.2   353  THR353     -0.2863
     39  CB       132.2930  332.7130  184.5380 C.3   353  THR353      0.1794
     40  OG1      132.5870  331.7270  185.5470 O.3   353  THR353     -0.2208
     41  CG2      133.4150  333.6610  184.3970 C.3   353  THR353      0.0378
     42  N        135.0890  327.7220  178.2180 N.3   371  TYR371     -0.1241
     43  CA       134.5630  328.7890  179.1240 C.3   371  TYR371      0.1605
     44  C        133.7490  328.0820  180.2080 C.2   371  TYR371      0.2264
     45  O        133.8070  328.4990  181.3550 O.2   371  TYR371     -0.2867
     46  CB       133.6410  329.7690  178.3990 C.3   371  TYR371      0.0534
     47  CG       133.3900  331.0660  179.1490 C.ar  371  TYR371     -0.0201
     48  CD1      134.2570  332.1490  179.0180 C.ar  371  TYR371     -0.0009
     49  CD2      132.2670  331.2260  179.9360 C.ar  371  TYR371     -0.0009
     50  CE1      134.0120  333.3730  179.6820 C.ar  371  TYR371      0.0417
     51  CE2      131.9970  332.4340  180.6080 C.ar  371  TYR371      0.0417
     52  CZ       132.8830  333.5070  180.4830 C.ar  371  TYR371      0.1957
     53  OH       132.6230  334.6990  181.1040 O.3   371  TYR371     -0.2866
     54  N        136.5250  327.1120  188.6190 N.3   378  TYR378     -0.1241
     55  CA       136.5820  328.2250  189.6210 C.3   378  TYR378      0.1605
     56  C        135.7580  327.8940  190.8540 C.2   378  TYR378      0.2264
     57  O        136.2550  328.0250  191.9840 O.2   378  TYR378     -0.2867
     58  CB       136.2250  329.6730  189.0470 C.3   378  TYR378      0.0534
     59  CG       137.4950  330.3300  188.6180 C.ar  378  TYR378     -0.0201
     60  CD1      138.1470  329.9040  187.4430 C.ar  378  TYR378     -0.0009
     61  CD2      138.1430  331.2780  189.4520 C.ar  378  TYR378     -0.0009
     62  CE1      139.3950  330.4350  187.0660 C.ar  378  TYR378      0.0417
     63  CE2      139.3900  331.8250  189.1140 C.ar  378  TYR378      0.0417
     64  CZ       140.0210  331.3950  187.9210 C.ar  378  TYR378      0.1957
     65  OH       141.2440  331.9120  187.5610 O.3   378  TYR378     -0.2866
     66  N        147.3630  328.3650  195.4560 N.3   417  PHE417     -0.1241
     67  CA       146.7120  329.5490  194.9190 C.3   417  PHE417      0.1605
     68  C        147.2400  329.8890  193.5170 C.2   417  PHE417      0.2264
     69  O        146.5000  330.1370  192.5850 O.2   417  PHE417     -0.2867
     70  CB       146.8660  330.7090  195.9090 C.3   417  PHE417      0.0534
     71  CG       146.1440  331.9460  195.4840 C.ar  417  PHE417     -0.0203
     72  CD1      144.8220  332.1520  195.8790 C.ar  417  PHE417     -0.0042
     73  CD2      146.7580  332.8710  194.6620 C.ar  417  PHE417     -0.0042
     74  CE1      144.0950  333.2620  195.4740 C.ar  417  PHE417     -0.0003
     75  CE2      146.0530  333.9880  194.2370 C.ar  417  PHE417     -0.0003
     76  CZ       144.7240  334.1890  194.6460 C.ar  417  PHE417     -0.0000
     77  N        145.0790  329.0890  189.7740 N.3   421  ASN421     -0.1240
     78  CA       144.7920  330.2100  188.8550 C.3   421  ASN421      0.1653
     79  C        145.4870  330.0830  187.4990 C.2   421  ASN421      0.2266
     80  O        144.8580  330.3040  186.4680 O.2   421  ASN421     -0.2867
     81  CB       145.0230  331.5920  189.4950 C.3   421  ASN421      0.1155
     82  CG       143.9400  331.9030  190.4700 C.2   421  ASN421      0.2627
     83  OD1      142.7850  332.1150  190.0840 O.2   421  ASN421     -0.2716
     84  ND2      144.2610  331.8310  191.7420 N.am  421  ASN421     -0.0877
     85  N        142.6270  330.0940  184.8680 N.3   425  PHE425     -0.1228
     86  CA       142.3560  331.4320  184.2980 C.3   425  PHE425      0.1721
     87  C        142.3980  331.5160  182.7460 C.2   425  PHE425      0.2437
     88  O        141.4610  331.9950  182.0940 O.2   425  PHE425     -0.2733
     89  CB       143.1820  332.5240  184.9200 C.3   425  PHE425      0.0547
     90  CG       142.7230  333.8770  184.4740 C.ar  425  PHE425     -0.0202
     91  CD1      141.5450  334.4200  184.9900 C.ar  425  PHE425     -0.0042
     92  CD2      143.3860  334.5430  183.4710 C.ar  425  PHE425     -0.0042
     93  CE1      141.0810  335.6460  184.5600 C.ar  425  PHE425     -0.0003
     94  CE2      142.9180  335.7740  183.0110 C.ar  425  PHE425     -0.0003
     95  CZ       141.7660  336.3120  183.5560 C.ar  425  PHE425     -0.0000
     96  N        143.4540  330.9970  182.1330 N.am  426  PRO426     -0.2729
     97  CA       143.4940  331.1720  180.6960 C.3   426  PRO426      0.1401
     98  C        142.4830  330.3400  179.9440 C.2   426  PRO426      0.2269
     99  O        142.3390  330.4970  178.7110 O.2   426  PRO426     -0.2865
    100  CB       144.9160  330.7280  180.3300 C.3   426  PRO426      0.0296
    101  CG       145.6790  330.6840  181.6260 C.3   426  PRO426      0.0237
    102  CD       144.6440  330.2760  182.6250 C.3   426  PRO426      0.0939
    103  N        139.3910  330.7230  180.1800 N.3   428  HIS428     -0.1226
    104  CA       138.3900  331.6820  179.6680 C.3   428  HIS428      0.1752
    105  C        138.6870  332.0540  178.2370 C.2   428  HIS428      0.2596
    106  O        137.7730  332.1010  177.4150 O.2   428  HIS428     -0.2718
    107  CB       138.3520  332.9260  180.5400 C.3   428  HIS428      0.0759
    108  CG       138.0360  332.6480  182.0070 C.ar  428  HIS428      0.0818
    109  ND1      138.9960  332.3660  182.9290 N.ar  428  HIS428     -0.2268
    110  CD2      136.7990  332.6350  182.7000 C.ar  428  HIS428      0.1154
    111  CE1      138.4120  332.2250  184.1590 C.ar  428  HIS428      0.1986
    112  NE2      137.0690  332.4030  184.0100 N.ar  428  HIS428     -0.2212
    113  N        139.9770  332.2590  177.9030 N.am  429  PHE429     -0.1976
    114  CA       140.3260  332.7160  176.5670 C.3   429  PHE429      0.1639
    115  C        140.0940  331.6660  175.5490 C.2   429  PHE429      0.2290
    116  O        139.6310  331.9760  174.4410 O.2   429  PHE429     -0.2864
    117  CB       141.7810  333.1510  176.4930 C.3   429  PHE429      0.0560
    118  CG       142.1590  334.1270  177.5650 C.ar  429  PHE429     -0.0200
    119  CD1      141.3480  335.1910  177.8440 C.ar  429  PHE429     -0.0042
    120  CD2      143.3060  333.9460  178.3130 C.ar  429  PHE429     -0.0042
    121  CE1      141.6850  336.0860  178.8500 C.ar  429  PHE429     -0.0003
    122  CE2      143.6760  334.8660  179.3020 C.ar  429  PHE429     -0.0003
    123  CZ       142.8520  335.9340  179.5770 C.ar  429  PHE429     -0.0000
    124  N        136.2040  331.4890  174.9570 N.3   432  LEU432     -0.1245
    125  CA       135.8350  332.6540  174.1200 C.3   432  LEU432      0.1561
    126  C        136.2900  332.5380  172.6480 C.2   432  LEU432      0.2260
    127  O        135.5160  332.7790  171.7520 O.2   432  LEU432     -0.2867
    128  CB       136.3970  333.9400  174.7390 C.3   432  LEU432      0.0270
    129  CG       135.8240  334.2840  176.1200 C.3   432  LEU432      0.0019
    130  CD1      136.5320  335.4850  176.7670 C.3   432  LEU432      0.0001
    131  CD2      134.3310  334.5390  176.0020 C.3   432  LEU432      0.0001
    132  N        147.7020  328.9780  175.3230 N.3   449  TRP449     -0.1241
    133  CA       146.9190  328.9170  176.5450 C.3   449  TRP449      0.1605
    134  C        146.9080  327.5570  177.0980 C.2   449  TRP449      0.2264
    135  O        146.9760  327.4000  178.3090 O.2   449  TRP449     -0.2867
    136  CB       145.5040  329.4680  176.3990 C.3   449  TRP449      0.0550
    137  CG       145.4560  330.9210  175.8980 C.ar  449  TRP449      0.0003
    138  CD1      144.6980  331.4290  174.8590 C.ar  449  TRP449      0.0946
    139  CD2      146.2300  332.0740  176.3850 C.ar  449  TRP449      0.0152
    140  NE1      144.9480  332.7710  174.6710 N.ar  449  TRP449     -0.2442
    141  CE2      145.8170  333.2230  175.5630 C.ar  449  TRP449      0.0810
    142  CE3      147.1580  332.2760  177.4140 C.ar  449  TRP449      0.0012
    143  CZ2      146.3560  334.5160  175.7440 C.ar  449  TRP449      0.0191
    144  CZ3      147.7110  333.5820  177.5820 C.ar  449  TRP449      0.0001
    145  CH2      147.3020  334.6770  176.7710 C.ar  449  TRP449      0.0015
@<TRIPOS>BOND
     1   127   126    2
     2   126   125    1
     3   125   128    1
     4   125   124    1
     5   116   115    2
     6   140   138   ar
     7   140   141   ar
     8   128   129    1
     9   138   137   ar
    10   132   133    1
    11   115   114    1
    12   141   143   ar
    13   141   139   ar
    14   143   145   ar
    15   137   139   ar
    16   137   136    1
    17   131   129    1
    18   129   130    1
    19   139   142   ar
    20   136   133    1
    21   117   114    1
    22   117   118    1
    23   133   134    1
    24   114   113    1
    25   145   144   ar
    26   134   135    2
    27   142   144   ar
    28   106   105    2
    29   118   119   ar
    30   118   120   ar
    31   119   121   ar
    32   113   105   am
    33    42    43    1
    34   105   104    1
    35   120   122   ar
    36    46    43    1
    37    46    47    1
    38    99    98    2
    39   121   123   ar
    40    48    47   ar
    41    48    50   ar
    42    43    44    1
    43    47    49   ar
    44   122   123   ar
    45   104   103    1
    46   104   107    1
    47    50    52   ar
    48    49    51   ar
    49    98    97    1
    50    44    45    2
    51   100    97    1
    52   100   101    1
    53    52    51   ar
    54    52    53    1
    55   107   108    1
    56    97    96    1
    57   101   102    1
    58   108   110   ar
    59   108   109   ar
    60    88    87    2
    61    96   102    1
    62    96    87   am
    63   110   112   ar
    64    87    86    1
    65   109   111   ar
    66    94    92   ar
    67    94    95   ar
    68    92    90   ar
    69    95    93   ar
    70    38    37    2
    71   112   111   ar
    72    86    85    1
    73    86    89    1
    74    41    39    1
    75    90    89    1
    76    90    91   ar
    77    39    36    1
    78    39    40    1
    79    93    91   ar
    80    37    36    1
    81    36    35    1
    82    30    29    2
    83    35    29   am
    84    80    79    2
    85    29    28    1
    86    62    60   ar
    87    62    64   ar
    88    60    59   ar
    89    79    78    1
    90    65    64    1
    91    64    63   ar
    92    28    31    1
    93    28    27    1
    94    31    32    1
    95    23    22    2
    96    25    24    1
    97    59    58    1
    98    59    61   ar
    99    54    55    1
   100    78    81    1
   101    78    77    1
   102    58    55    1
   103    63    61   ar
   104    34    32    1
   105    22    21    1
   106    32    33    1
   107    81    82    1
   108    55    56    1
   109    24    21    1
   110    24    26    1
   111    21    20    1
   112    83    82    2
   113    82    84   am
   114    56    57    2
   115    15    14    2
   116    11    10   ar
   117    11     9   ar
   118    19    17    1
   119    69    68    2
   120    10     8   ar
   121     9     7   ar
   122    14    13    1
   123    68    67    1
   124    13    16    1
   125    13    12    1
   126     4     3    2
   127    16    17    1
   128    17    18    1
   129     8     6   ar
   130    75    76   ar
   131    75    73   ar
   132     7     6   ar
   133    76    74   ar
   134    73    71   ar
   135     6     5    1
   136     3    12   am
   137     3     2    1
   138    67    66    1
   139    67    70    1
   140    74    72   ar
   141    71    72   ar
   142    71    70    1
   143     2     5    1
   144     2     1    1
