@<TRIPOS>MOLECULE
tmp/5x1fN10.pdb
 88 86 0 0 0
SMALL
GASTEIGER

@<TRIPOS>ATOM
      1  N        145.3760  335.6530  211.1120 N.3   333  TRP333     -0.1241
      2  CA       145.7640  335.1750  209.7810 C.3   333  TRP333      0.1605
      3  C        146.2030  333.7470  209.7560 C.2   333  TRP333      0.2264
      4  O        147.2200  333.4210  209.2010 O.2   333  TRP333     -0.2867
      5  CB       146.8650  336.0270  209.2160 C.3   333  TRP333      0.0550
      6  CG       146.3970  337.3670  208.8240 C.ar  333  TRP333      0.0003
      7  CD1      146.2990  338.4790  209.6200 C.ar  333  TRP333      0.0946
      8  CD2      145.8680  337.7510  207.5400 C.ar  333  TRP333      0.0152
      9  NE1      145.7830  339.5310  208.9110 N.ar  333  TRP333     -0.2442
     10  CE2      145.5020  339.1600  207.6570 C.ar  333  TRP333      0.0810
     11  CE3      145.6380  337.0850  206.3410 C.ar  333  TRP333      0.0012
     12  CZ2      144.9540  339.8690  206.6010 C.ar  333  TRP333      0.0191
     13  CZ3      145.0990  337.8050  205.2700 C.ar  333  TRP333      0.0001
     14  CH2      144.7650  339.1630  205.3960 C.ar  333  TRP333      0.0015
     15  N        143.0990  332.0860  205.4570 N.3   338  MET338     -0.1245
     16  CA       143.5450  332.3450  204.1030 C.3   338  MET338      0.1570
     17  C        142.7520  331.5290  203.1250 C.2   338  MET338      0.2261
     18  O        142.3160  332.0690  202.1110 O.2   338  MET338     -0.2867
     19  CB       145.0170  332.0020  203.9420 C.3   338  MET338      0.0387
     20  CG       145.8870  333.0790  204.5880 C.3   338  MET338      0.0595
     21  SD       147.6030  332.5190  204.5540 S.3   338  MET338     -0.1393
     22  CE       148.2750  333.5990  205.8110 C.3   338  MET338      0.0692
     23  N        139.4260  333.2160  202.5000 N.3   341  LEU341     -0.1231
     24  CA       139.4480  334.5140  201.8030 C.3   341  LEU341      0.1693
     25  C        139.6190  334.2460  200.3210 C.2   341  LEU341      0.2592
     26  O        139.0010  334.8670  199.4520 O.2   341  LEU341     -0.2718
     27  CB       140.6290  335.3820  202.3260 C.3   341  LEU341      0.0284
     28  CG       140.4100  335.8810  203.7640 C.3   341  LEU341      0.0019
     29  CD1      141.5860  336.6800  204.2890 C.3   341  LEU341      0.0001
     30  CD2      139.0970  336.6380  203.9740 C.3   341  LEU341      0.0001
     31  N        140.4820  333.3020  200.0290 N.am  342  GLY342     -0.1957
     32  CA       140.6360  332.8290  198.6680 C.3   342  GLY342      0.1869
     33  C        139.3000  332.2550  198.2180 C.2   342  GLY342      0.2309
     34  O        138.8310  332.5450  197.1170 O.2   342  GLY342     -0.2863
     35  N        136.6530  335.1110  197.2410 N.3   345  PHE345     -0.1241
     36  CA       136.8640  335.8620  195.9980 C.3   345  PHE345      0.1605
     37  C        136.8310  334.9180  194.7940 C.2   345  PHE345      0.2264
     38  O        136.1880  335.1850  193.7900 O.2   345  PHE345     -0.2867
     39  CB       138.1390  336.7000  196.0440 C.3   345  PHE345      0.0534
     40  CG       138.4530  337.3860  194.7370 C.ar  345  PHE345     -0.0203
     41  CD1      137.6940  338.4870  194.3030 C.ar  345  PHE345     -0.0042
     42  CD2      139.5010  336.9260  193.9260 C.ar  345  PHE345     -0.0042
     43  CE1      137.9700  339.1200  193.0950 C.ar  345  PHE345     -0.0003
     44  CE2      139.7770  337.5710  192.7110 C.ar  345  PHE345     -0.0003
     45  CZ       139.0070  338.6550  192.2890 C.ar  345  PHE345     -0.0000
     46  N        150.7700  327.6210  205.3380 N.3   410  LYS410     -0.1245
     47  CA       150.7630  328.8650  204.5340 C.3   410  LYS410      0.1561
     48  C        151.5080  328.7040  203.2010 C.2   410  LYS410      0.2260
     49  O        151.0220  329.1300  202.1390 O.2   410  LYS410     -0.2867
     50  CB       151.2840  330.0570  205.3720 C.3   410  LYS410      0.0271
     51  CG       150.4150  330.3090  206.6100 C.3   410  LYS410      0.0035
     52  CD       150.9220  331.5230  207.4070 C.3   410  LYS410      0.0206
     53  CE       150.3320  331.5450  208.8070 C.3   410  LYS410      0.1093
     54  NZ       150.7350  332.7130  209.6220 N.3   410  LYS410     -0.1314
     55  N        149.1840  326.8130  200.9740 N.3   413  PHE413     -0.1227
     56  CA       148.2090  327.7160  200.3700 C.3   413  PHE413      0.1736
     57  C        148.7610  328.5680  199.2070 C.2   413  PHE413      0.2595
     58  O        148.1220  328.6630  198.1650 O.2   413  PHE413     -0.2718
     59  CB       147.7090  328.6980  201.4110 C.3   413  PHE413      0.0547
     60  CG       146.7470  329.7070  200.8570 C.ar  413  PHE413     -0.0202
     61  CD1      145.4430  329.3410  200.5620 C.ar  413  PHE413     -0.0042
     62  CD2      147.1390  331.0520  200.6550 C.ar  413  PHE413     -0.0042
     63  CE1      144.5240  330.2900  200.0770 C.ar  413  PHE413     -0.0003
     64  CE2      146.2430  331.9680  200.1200 C.ar  413  PHE413     -0.0003
     65  CZ       144.9250  331.5830  199.8260 C.ar  413  PHE413     -0.0000
     66  N        149.9080  329.2350  199.4280 N.am  414  ALA414     -0.1980
     67  CA       150.5240  330.1320  198.4360 C.3   414  ALA414      0.1597
     68  C        150.7560  329.3280  197.1490 C.2   414  ALA414      0.2287
     69  O        150.4710  329.8360  196.0410 O.2   414  ALA414     -0.2864
     70  CB       151.8570  330.7080  198.9490 C.3   414  ALA414      0.0319
     71  N        147.3630  328.3650  195.4560 N.3   417  PHE417     -0.1227
     72  CA       146.7120  329.5490  194.9190 C.3   417  PHE417      0.1736
     73  C        147.2400  329.8890  193.5170 C.2   417  PHE417      0.2595
     74  O        146.5000  330.1370  192.5850 O.2   417  PHE417     -0.2718
     75  CB       146.8660  330.7090  195.9090 C.3   417  PHE417      0.0547
     76  CG       146.1440  331.9460  195.4840 C.ar  417  PHE417     -0.0202
     77  CD1      144.8220  332.1520  195.8790 C.ar  417  PHE417     -0.0042
     78  CD2      146.7580  332.8710  194.6620 C.ar  417  PHE417     -0.0042
     79  CE1      144.0950  333.2620  195.4740 C.ar  417  PHE417     -0.0003
     80  CE2      146.0530  333.9880  194.2370 C.ar  417  PHE417     -0.0003
     81  CZ       144.7240  334.1890  194.6460 C.ar  417  PHE417     -0.0000
     82  N        148.5440  329.8810  193.3360 N.am  418  VAL418     -0.1980
     83  CA       149.1550  330.1900  192.0250 C.3   418  VAL418      0.1595
     84  C        148.8500  329.0200  191.0520 C.2   418  VAL418      0.2287
     85  O        148.4510  329.2430  189.9130 O.2   418  VAL418     -0.2864
     86  CB       150.7210  330.3810  192.1800 C.3   418  VAL418      0.0276
     87  CG1      151.4320  330.4530  190.8220 C.3   418  VAL418      0.0022
     88  CG2      151.0650  331.5630  193.1080 C.3   418  VAL418      0.0022
@<TRIPOS>BOND
     1    85    84    2
     2    87    86    1
     3    84    83    1
     4    83    86    1
     5    83    82    1
     6    86    88    1
     7    45    44   ar
     8    45    43   ar
     9    74    73    2
    10    44    42   ar
    11    43    41   ar
    12    82    73   am
    13    73    72    1
    14    38    37    2
    15    42    40   ar
    16    80    81   ar
    17    80    78   ar
    18    41    40   ar
    19    81    79   ar
    20    78    76   ar
    21    40    39    1
    22    37    36    1
    23    72    71    1
    24    72    75    1
    25    79    77   ar
    26    76    77   ar
    27    76    75    1
    28    36    39    1
    29    36    35    1
    30    69    68    2
    31    34    33    2
    32    68    67    1
    33    58    57    2
    34    33    32    1
    35    67    70    1
    36    67    66    1
    37    32    31    1
    38    57    66   am
    39    57    56    1
    40    26    25    2
    41    65    63   ar
    42    65    64   ar
    43    31    25   am
    44    63    61   ar
    45    64    62   ar
    46    25    24    1
    47    56    55    1
    48    56    59    1
    49    61    60   ar
    50    62    60   ar
    51    60    59    1
    52    24    27    1
    53    24    23    1
    54    18    17    2
    55    49    48    2
    56    27    28    1
    57    17    16    1
    58    48    47    1
    59    28    30    1
    60    28    29    1
    61    19    16    1
    62    19    20    1
    63    16    15    1
    64    47    46    1
    65    47    50    1
    66    21    20    1
    67    21    22    1
    68    13    14   ar
    69    13    11   ar
    70    50    51    1
    71    14    12   ar
    72    11     8   ar
    73    12    10   ar
    74    51    52    1
    75    52    53    1
    76     8    10   ar
    77     8     6   ar
    78    10     9   ar
    79    53    54    1
    80     6     5    1
    81     6     7   ar
    82     9     7   ar
    83     4     3    2
    84     5     2    1
    85     3     2    1
    86     2     1    1
