@<TRIPOS>MOLECULE
tmp/5x1kA00.pdb
 128 127 0 0 0
SMALL
GASTEIGER

@<TRIPOS>ATOM
      1  N         -8.5890    8.6800  -11.4940 N.3    27  TYR27      -0.1241
      2  CA        -9.5120    8.0110  -10.5900 C.3    27  TYR27       0.1605
      3  C         -8.9390    6.6280  -10.3400 C.2    27  TYR27       0.2264
      4  O         -8.7870    5.8470  -11.2810 O.2    27  TYR27      -0.2867
      5  CB       -10.9220    7.9250  -11.1830 C.3    27  TYR27       0.0534
      6  CG       -11.9550    7.3640  -10.2110 C.ar   27  TYR27      -0.0201
      7  CD1      -12.2730    8.0470   -9.0410 C.ar   27  TYR27      -0.0009
      8  CD2      -12.5920    6.1380  -10.4470 C.ar   27  TYR27      -0.0009
      9  CE1      -13.1990    7.5320   -8.1420 C.ar   27  TYR27       0.0417
     10  CE2      -13.5300    5.6340   -9.5620 C.ar   27  TYR27       0.0417
     11  CZ       -13.8260    6.3360   -8.4140 C.ar   27  TYR27       0.1957
     12  OH       -14.7390    5.8420   -7.5200 O.3    27  TYR27      -0.2866
     13  N         -8.2610    2.8690   -8.4250 N.3    29  TYR29      -0.1241
     14  CA        -8.8090    1.7120   -7.7330 C.3    29  TYR29       0.1605
     15  C         -7.7200    1.2280   -6.7880 C.2    29  TYR29       0.2264
     16  O         -6.7480    0.6070   -7.2350 O.2    29  TYR29      -0.2867
     17  CB        -9.2180    0.6170   -8.7260 C.3    29  TYR29       0.0534
     18  CG       -10.1850    1.1540   -9.7580 C.ar   29  TYR29      -0.0201
     19  CD1      -11.5620    1.1530   -9.5240 C.ar   29  TYR29      -0.0009
     20  CD2       -9.7230    1.7190  -10.9330 C.ar   29  TYR29      -0.0009
     21  CE1      -12.4520    1.6960  -10.4500 C.ar   29  TYR29       0.0417
     22  CE2      -10.5950    2.2480  -11.8640 C.ar   29  TYR29       0.0417
     23  CZ       -11.9620    2.2260  -11.6190 C.ar   29  TYR29       0.1957
     24  OH       -12.8090    2.7440  -12.5570 O.3    29  TYR29      -0.2866
     25  N        -12.9950   -6.5810   -3.8370 N.3    55  GLN55      -0.1245
     26  CA       -13.7370   -5.3230   -3.8900 C.3    55  GLN55       0.1566
     27  C        -13.6320   -4.5290   -2.5930 C.2    55  GLN55       0.2260
     28  O        -14.4410   -3.6340   -2.3470 O.2    55  GLN55      -0.2867
     29  CB       -15.2060   -5.6010   -4.2250 C.3    55  GLN55       0.0367
     30  CG       -15.4220   -6.3070   -5.5600 C.3    55  GLN55       0.0905
     31  CD       -16.9050   -6.5490   -5.8350 C.2    55  GLN55       0.2608
     32  OE1      -17.5780   -7.2340   -5.0620 O.2    55  GLN55      -0.2717
     33  NE2      -17.4240   -5.9700   -6.9170 N.am   55  GLN55      -0.0878
     34  N        -12.3560   -0.0240   -3.2340 N.3    58  HIS58      -0.1226
     35  CA       -12.6530    1.0530   -4.1730 C.3    58  HIS58       0.1752
     36  C        -14.0680    1.6510   -4.0360 C.2    58  HIS58       0.2595
     37  O        -14.4360    2.5200   -4.8350 O.2    58  HIS58      -0.2718
     38  CB       -12.4220    0.5650   -5.6040 C.3    58  HIS58       0.0759
     39  CG       -13.3900   -0.4780   -6.0420 C.ar   58  HIS58       0.0818
     40  ND1      -13.4720   -1.7170   -5.4320 N.ar   58  HIS58      -0.2268
     41  CD2      -14.3420   -0.4680   -7.0060 C.ar   58  HIS58       0.1154
     42  CE1      -14.4230   -2.4270   -6.0110 C.ar   58  HIS58       0.1986
     43  NE2      -14.9650   -1.6950   -6.9710 N.ar   58  HIS58      -0.2212
     44  N        -14.8350    1.2680   -3.0260 N.am   59  MET59      -0.1979
     45  CA       -16.2220    1.6930   -2.8800 C.3    59  MET59       0.1605
     46  C        -16.4390    2.2870   -1.4940 C.2    59  MET59       0.2287
     47  O        -15.9030    1.7870   -0.5010 O.2    59  MET59      -0.2864
     48  CB       -17.2180    0.5050   -3.0990 C.3    59  MET59       0.0413
     49  CG       -17.4210    0.0780   -4.5870 C.3    59  MET59       0.0598
     50  SD       -17.5530    1.5210   -5.6900 S.3    59  MET59      -0.1393
     51  CE       -18.3660    0.8460   -7.1310 C.3    59  MET59       0.0692
     52  N        -19.9660    4.1120   -5.3040 N.3   120  ARG120     -0.1245
     53  CA       -19.1940    5.3370   -5.4200 C.3   120  ARG120      0.1563
     54  C        -19.7200    6.4160   -4.4730 C.2   120  ARG120      0.2260
     55  O        -20.7720    6.2890   -3.8420 O.2   120  ARG120     -0.2867
     56  CB       -19.1740    5.8100   -6.8750 C.3   120  ARG120      0.0307
     57  CG       -18.0040    5.1440   -7.6060 C.3   120  ARG120      0.0489
     58  CD       -18.0490    5.1090   -9.1270 C.3   120  ARG120      0.2205
     59  NE       -17.5510    6.3300   -9.6910 N.pl3 120  ARG120     -0.0865
     60  CZ       -16.8060    6.4550  -10.7870 C.cat 120  ARG120      0.5346
     61  NH1      -16.4800    7.6840  -11.1770 N.pl3 120  ARG120      0.1354
     62  NH2      -16.4080    5.4030  -11.4900 N.pl3 120  ARG120      0.1354
     63  N         -9.2160   -5.3560  -13.0240 N.3   245  TYR245     -0.1228
     64  CA       -10.5480   -5.4060  -12.4250 C.3   245  TYR245      0.1721
     65  C        -11.5720   -4.4130  -12.9980 C.2   245  TYR245      0.2437
     66  O        -12.6440   -4.8390  -13.4560 O.2   245  TYR245     -0.2733
     67  CB       -10.4740   -5.2000  -10.9130 C.3   245  TYR245      0.0547
     68  CG       -11.8650   -5.0710  -10.3220 C.ar  245  TYR245     -0.0200
     69  CD1      -12.6750   -6.1900  -10.1830 C.ar  245  TYR245     -0.0009
     70  CD2      -12.3890   -3.8330   -9.9700 C.ar  245  TYR245     -0.0009
     71  CE1      -13.9570   -6.0950   -9.6600 C.ar  245  TYR245      0.0417
     72  CE2      -13.6710   -3.7200   -9.4420 C.ar  245  TYR245      0.0417
     73  CZ       -14.4520   -4.8550   -9.2940 C.ar  245  TYR245      0.1957
     74  OH       -15.7240   -4.7640   -8.7690 O.3   245  TYR245     -0.2866
     75  N        -11.3280   -3.1000  -12.9770 N.am  246  PRO246     -0.2729
     76  CA       -12.3910   -2.1710  -13.4070 C.3   246  PRO246      0.1401
     77  C        -12.7330   -2.2870  -14.8770 C.2   246  PRO246      0.2269
     78  O        -13.7490   -1.7370  -15.3000 O.2   246  PRO246     -0.2865
     79  CB       -11.8110   -0.7900  -13.0760 C.3   246  PRO246      0.0296
     80  CG       -10.3270   -0.9870  -13.2510 C.3   246  PRO246      0.0237
     81  CD       -10.0810   -2.3730  -12.6730 C.3   246  PRO246      0.0939
     82  N        -13.7520   -5.0050  -16.1570 N.3   248  ASN248     -0.1225
     83  CA       -14.7660   -6.0430  -16.3060 C.3   248  ASN248      0.1785
     84  C        -16.0700   -5.4500  -16.8290 C.2   248  ASN248      0.2597
     85  O        -16.7130   -6.0390  -17.7030 O.2   248  ASN248     -0.2718
     86  CB       -14.9810   -6.7650  -14.9780 C.3   248  ASN248      0.1169
     87  CG       -15.9330   -6.0230  -14.0630 C.2   248  ASN248      0.2627
     88  OD1      -17.1410   -6.2030  -14.1600 O.2   248  ASN248     -0.2716
     89  ND2      -15.3950   -5.1400  -13.1990 N.am  248  ASN248     -0.0877
     90  N        -16.4250   -4.2350  -16.3840 N.am  249  THR249     -0.1953
     91  CA       -17.7550   -3.7350  -16.7060 C.3   249  THR249      0.1897
     92  C        -17.9020   -3.3480  -18.1650 C.2   249  THR249      0.2313
     93  O        -19.0240   -3.0780  -18.5890 O.2   249  THR249     -0.2863
     94  CB       -18.1360   -2.5420  -15.8170 C.3   249  THR249      0.1794
     95  OG1      -19.5640   -2.3780  -15.8230 O.3   249  THR249     -0.2208
     96  CG2      -17.4440   -1.2500  -16.2940 C.3   249  THR249      0.0378
     97  N        -22.4320   -2.2090  -17.1150 N.3   254  TRP254     -0.1241
     98  CA       -22.7950   -1.1960  -16.1310 C.3   254  TRP254      0.1605
     99  C        -21.8940    0.0270  -16.3000 C.2   254  TRP254      0.2264
    100  O        -20.6660   -0.0990  -16.3760 O.2   254  TRP254     -0.2867
    101  CB       -22.6940   -1.7690  -14.7130 C.3   254  TRP254      0.0550
    102  CG       -22.8170   -0.7320  -13.6030 C.ar  254  TRP254      0.0003
    103  CD1      -23.9170    0.0260  -13.2910 C.ar  254  TRP254      0.0946
    104  CD2      -21.7970   -0.3580  -12.6630 C.ar  254  TRP254      0.0152
    105  NE1      -23.6410    0.8410  -12.2170 N.ar  254  TRP254     -0.2442
    106  CE2      -22.3450    0.6280  -11.8170 C.ar  254  TRP254      0.0810
    107  CE3      -20.4780   -0.7760  -12.4480 C.ar  254  TRP254      0.0012
    108  CZ2      -21.6170    1.2030  -10.7700 C.ar  254  TRP254      0.0191
    109  CZ3      -19.7470   -0.1910  -11.4230 C.ar  254  TRP254      0.0001
    110  CH2      -20.3190    0.7810  -10.5940 C.ar  254  TRP254      0.0015
    111  N        -20.3030    3.0530  -14.6050 N.3   256  PRO256     -0.2116
    112  CA       -20.0900    3.4330  -13.2030 C.3   256  PRO256      0.1372
    113  C        -20.0180    4.9330  -12.9690 C.2   256  PRO256      0.2244
    114  O        -20.0560    5.3650  -11.8090 O.2   256  PRO256     -0.2868
    115  CB       -18.7340    2.7700  -12.8590 C.3   256  PRO256      0.0268
    116  CG       -18.3680    1.8930  -14.0550 C.3   256  PRO256      0.0207
    117  CD       -19.0710    2.5400  -15.2300 C.3   256  PRO256      0.0892
    118  N        -17.2900    5.1310  -20.7240 N.3   391  PHE391     -0.1241
    119  CA       -16.3680    4.2280  -20.0230 C.3   391  PHE391      0.1605
    120  C        -15.6110    3.4510  -21.0800 C.2   391  PHE391      0.2264
    121  O        -16.2340    2.7830  -21.9050 O.2   391  PHE391     -0.2867
    122  CB       -17.1130    3.2740  -19.0950 C.3   391  PHE391      0.0534
    123  CG       -16.3630    2.9420  -17.8520 C.ar  391  PHE391     -0.0203
    124  CD1      -16.2350    3.8820  -16.8370 C.ar  391  PHE391     -0.0042
    125  CD2      -15.7810    1.6870  -17.6880 C.ar  391  PHE391     -0.0042
    126  CE1      -15.5490    3.5780  -15.6760 C.ar  391  PHE391     -0.0003
    127  CE2      -15.0740    1.3660  -16.5310 C.ar  391  PHE391     -0.0003
    128  CZ       -14.9580    2.3120  -15.5190 C.ar  391  PHE391     -0.0000
@<TRIPOS>BOND
     1   121   120    2
     2   120   119    1
     3   118   119    1
     4   119   122    1
     5   122   123    1
     6    93    92    2
     7    92    91    1
     8   123   125   ar
     9   123   124   ar
    10    85    84    2
    11   125   127   ar
    12    97    98    1
    13   124   126   ar
    14    84    90   am
    15    84    83    1
    16    91    90    1
    17    91    94    1
    18   127   128   ar
    19   100    99    2
    20    83    82    1
    21    83    86    1
    22    99    98    1
    23    96    94    1
    24    98   101    1
    25    95    94    1
    26   126   128   ar
    27    78    77    2
    28   117   111    1
    29   117   116    1
    30    86    87    1
    31    77    76    1
    32   101   102    1
    33   111   112    1
    34    88    87    2
    35    87    89   am
    36   116   115    1
    37   102   103   ar
    38   102   104   ar
    39    66    65    2
    40    76    79    1
    41    76    75    1
    42   103   105   ar
    43    80    79    1
    44    80    81    1
    45   112   113    1
    46   112   115    1
    47    63    64    1
    48    65    75   am
    49    65    64    1
    50    75    81    1
    51   113   114    2
    52   104   107   ar
    53   104   106   ar
    54    24    23    1
    55   107   109   ar
    56    64    67    1
    57   105   106   ar
    58    22    23   ar
    59    22    20   ar
    60   106   108   ar
    61    23    21   ar
    62     1     2    1
    63    62    60    1
    64   109   110   ar
    65     4     3    2
    66     5     2    1
    67     5     6    1
    68    61    60    1
    69    20    18   ar
    70    67    68    1
    71    60    59    2
    72   108   110   ar
    73     2     3    1
    74    21    19   ar
    75     8     6   ar
    76     8    10   ar
    77    68    69   ar
    78    68    70   ar
    79     6     7   ar
    80    69    71   ar
    81    70    72   ar
    82    18    19   ar
    83    18    17    1
    84    59    58    1
    85    71    73   ar
    86    10    11   ar
    87    72    73   ar
    88    73    74    1
    89    58    57    1
    90     7     9   ar
    91    17    14    1
    92    13    14    1
    93    11     9   ar
    94    11    12    1
    95    14    15    1
    96    57    56    1
    97    16    15    2
    98    51    50    1
    99    41    43   ar
   100    41    39   ar
   101    43    42   ar
   102    33    31   am
   103    56    53    1
   104    39    38    1
   105    39    40   ar
   106    42    40   ar
   107    31    30    1
   108    31    32    2
   109    50    49    1
   110    38    35    1
   111    30    29    1
   112    53    52    1
   113    53    54    1
   114    37    36    2
   115    49    48    1
   116    54    55    2
   117    29    26    1
   118    35    36    1
   119    35    34    1
   120    36    44   am
   121    26    25    1
   122    26    27    1
   123    48    45    1
   124    44    45    1
   125    45    46    1
   126    27    28    2
   127    46    47    2
