@<TRIPOS>MOLECULE
tmp/5x1mA03.pdb
 134 128 0 0 0
SMALL
GASTEIGER

@<TRIPOS>ATOM
      1  N        -12.9010   -6.6170   -3.7970 N.3    56  GLN56      -0.1245
      2  CA       -13.6960   -5.3910   -3.8650 C.3    56  GLN56       0.1566
      3  C        -13.6780   -4.6090   -2.5550 C.2    56  GLN56       0.2260
      4  O        -14.5730   -3.7930   -2.3010 O.2    56  GLN56      -0.2867
      5  CB       -15.1340   -5.7330   -4.2590 C.3    56  GLN56       0.0367
      6  CG       -15.2520   -6.4490   -5.5930 C.3    56  GLN56       0.0905
      7  CD       -16.6850   -6.8300   -5.8980 C.2    56  GLN56       0.2608
      8  OE1      -17.4350   -7.2170   -5.0030 O.2    56  GLN56      -0.2717
      9  NE2      -17.0800   -6.6940   -7.1570 N.am   56  GLN56      -0.0878
     10  N        -12.3230   -0.0920   -3.1360 N.3    59  HIS59      -0.1226
     11  CA       -12.6160    0.9610   -4.0980 C.3    59  HIS59       0.1752
     12  C        -14.0190    1.5650   -3.9710 C.2    59  HIS59       0.2595
     13  O        -14.3800    2.4190   -4.7950 O.2    59  HIS59      -0.2718
     14  CB       -12.4210    0.4230   -5.5120 C.3    59  HIS59       0.0759
     15  CG       -13.4580   -0.5830   -5.9070 C.ar   59  HIS59       0.0818
     16  ND1      -13.5370   -1.8330   -5.3300 N.ar   59  HIS59      -0.2268
     17  CD2      -14.4560   -0.5250   -6.8180 C.ar   59  HIS59       0.1154
     18  CE1      -14.5450   -2.5010   -5.8630 C.ar   59  HIS59       0.1986
     19  NE2      -15.1190   -1.7360   -6.7730 N.ar   59  HIS59      -0.2212
     20  N        -14.8180    1.1570   -2.9820 N.am   60  MET60      -0.1979
     21  CA       -16.1790    1.6680   -2.8270 C.3    60  MET60       0.1605
     22  C        -16.3960    2.2500   -1.4350 C.2    60  MET60       0.2287
     23  O        -15.7910    1.8100   -0.4490 O.2    60  MET60      -0.2864
     24  CB       -17.2620    0.5600   -3.0880 C.3    60  MET60       0.0413
     25  CG       -17.3640    0.0670   -4.5460 C.3    60  MET60       0.0598
     26  SD       -17.6290    1.3900   -5.7590 S.3    60  MET60      -0.1393
     27  CE       -18.5250    0.5390   -7.0620 C.3    60  MET60       0.0692
     28  N        -25.7880    2.4950   -6.3950 N.3   106  GLY106     -0.1210
     29  CA       -24.9900    1.5380   -5.6580 C.3   106  GLY106      0.1956
     30  C        -25.8520    0.3460   -5.3110 C.2   106  GLY106      0.2611
     31  O        -27.0550    0.3060   -5.6070 O.2   106  GLY106     -0.2717
     32  N        -25.2330   -0.6310   -4.6610 N.am  107  ILE107     -0.1979
     33  CA       -25.9820   -1.7950   -4.1940 C.3   107  ILE107      0.1595
     34  C        -26.3930   -1.5390   -2.7560 C.2   107  ILE107      0.2287
     35  O        -25.5730   -1.1230   -1.9370 O.2   107  ILE107     -0.2864
     36  CB       -25.1580   -3.0900   -4.3020 C.3   107  ILE107      0.0276
     37  CG1      -24.6510   -3.3130   -5.7270 C.3   107  ILE107      0.0022
     38  CG2      -26.0200   -4.2850   -3.8400 C.3   107  ILE107      0.0022
     39  CD1      -25.6430   -2.9770   -6.8230 C.3   107  ILE107      0.0001
     40  N        -27.9370   -3.5160    0.5050 N.3   109  PHE109     -0.1241
     41  CA       -28.2090   -4.8270    1.0830 C.3   109  PHE109      0.1605
     42  C        -29.1830   -4.6360    2.2360 C.2   109  PHE109      0.2264
     43  O        -28.8880   -3.8850    3.1730 O.2   109  PHE109     -0.2867
     44  CB       -26.9410   -5.4900    1.6270 C.3   109  PHE109      0.0534
     45  CG       -25.8490   -5.7250    0.6160 C.ar  109  PHE109     -0.0203
     46  CD1      -25.0720   -4.6700    0.1330 C.ar  109  PHE109     -0.0042
     47  CD2      -25.5280   -7.0220    0.2290 C.ar  109  PHE109     -0.0042
     48  CE1      -24.0360   -4.9100   -0.7640 C.ar  109  PHE109     -0.0003
     49  CE2      -24.4940   -7.2760   -0.6590 C.ar  109  PHE109     -0.0003
     50  CZ       -23.7440   -6.2190   -1.1650 C.ar  109  PHE109     -0.0000
     51  N        -23.2590    0.1900   -0.8330 N.3   119  VAL119     -0.1231
     52  CA       -21.8920   -0.0200   -1.3150 C.3   119  VAL119      0.1692
     53  C        -21.8290    0.5280   -2.7280 C.2   119  VAL119      0.2592
     54  O        -22.6080    0.1120   -3.5870 O.2   119  VAL119     -0.2718
     55  CB       -21.4640   -1.5070   -1.3050 C.3   119  VAL119      0.0266
     56  CG1      -20.0020   -1.6300   -1.7980 C.3   119  VAL119      0.0020
     57  CG2      -21.6060   -2.1070    0.0910 C.3   119  VAL119      0.0020
     58  N        -20.9440    1.4920   -2.9660 N.am  120  GLY120     -0.1957
     59  CA       -20.8380    2.0590   -4.2930 C.3   120  GLY120      0.1869
     60  C        -19.9900    3.3160   -4.2640 C.2   120  GLY120      0.2309
     61  O        -19.3520    3.6200   -3.2600 O.2   120  GLY120     -0.2863
     62  N        -14.8380   -7.4470    1.1370 N.3   162  ARG162     -0.1245
     63  CA       -15.8480   -7.7960    0.1450 C.3   162  ARG162      0.1563
     64  C        -15.1360   -8.4350   -1.0340 C.2   162  ARG162      0.2260
     65  O        -14.2450   -7.8210   -1.6250 O.2   162  ARG162     -0.2867
     66  CB       -16.6700   -6.5540   -0.2970 C.3   162  ARG162      0.0307
     67  CG       -17.3900   -5.8620    0.8500 C.3   162  ARG162      0.0489
     68  CD       -18.3740   -4.7400    0.4080 C.3   162  ARG162      0.2205
     69  NE       -18.7690   -3.9560    1.5840 N.pl3 162  ARG162     -0.0865
     70  CZ       -19.7020   -4.3400    2.4520 C.cat 162  ARG162      0.5346
     71  NH1      -20.3560   -5.4840    2.2610 N.pl3 162  ARG162      0.1354
     72  NH2      -19.9820   -3.5920    3.5130 N.pl3 162  ARG162      0.1354
     73  N        -15.7760  -11.0820   -4.6520 N.3   164  GLN164     -0.1245
     74  CA       -16.6260  -11.8920   -5.5200 C.3   164  GLN164      0.1566
     75  C        -15.8320  -13.0930   -6.0310 C.2   164  GLN164      0.2260
     76  O        -14.6130  -13.0120   -6.2140 O.2   164  GLN164     -0.2867
     77  CB       -17.1750  -11.1060   -6.7120 C.3   164  GLN164      0.0367
     78  CG       -18.2470  -10.0930   -6.3620 C.3   164  GLN164      0.0905
     79  CD       -18.8020   -9.4160   -7.5830 C.2   164  GLN164      0.2608
     80  OE1      -18.3620   -9.6910   -8.6960 O.2   164  GLN164     -0.2717
     81  NE2      -19.7860   -8.5270   -7.3920 N.am  164  GLN164     -0.0878
     82  N        -24.3150  -13.0730   -1.5460 N.3   203  LEU203     -0.1245
     83  CA       -25.2260  -12.4090   -2.4610 C.3   203  LEU203      0.1561
     84  C        -25.0930  -13.1310   -3.7880 C.2   203  LEU203      0.2260
     85  O        -23.9890  -13.2410   -4.3170 O.2   203  LEU203     -0.2867
     86  CB       -24.8790  -10.9200   -2.6080 C.3   203  LEU203      0.0270
     87  CG       -25.6060  -10.1110   -3.6710 C.3   203  LEU203      0.0019
     88  CD1      -27.0170   -9.8660   -3.2000 C.3   203  LEU203      0.0001
     89  CD2      -24.8830   -8.7790   -3.9300 C.3   203  LEU203      0.0001
     90  N        -24.9290  -13.7760   -7.5450 N.3   205  HIS205     -0.1241
     91  CA       -24.4010  -12.9020   -8.5850 C.3   205  HIS205      0.1621
     92  C        -24.1200  -13.7600   -9.8090 C.2   205  HIS205      0.2264
     93  O        -24.5070  -14.9320   -9.8680 O.2   205  HIS205     -0.2867
     94  CB       -23.1430  -12.1750   -8.0780 C.3   205  HIS205      0.0745
     95  CG       -23.0710  -10.7490   -8.4990 C.ar  205  HIS205      0.0817
     96  ND1      -22.8680  -10.3740   -9.8090 N.ar  205  HIS205     -0.2268
     97  CD2      -23.2110   -9.6020   -7.7920 C.ar  205  HIS205      0.1154
     98  CE1      -22.8770   -9.0560   -9.8900 C.ar  205  HIS205      0.1986
     99  NE2      -23.0850   -8.5640   -8.6800 N.ar  205  HIS205     -0.2212
    100  N        -21.1270  -12.8330   -4.4560 N.3   214  GLU214     -0.1245
    101  CA       -20.4140  -11.8250   -3.6940 C.3   214  GLU214      0.1567
    102  C        -20.4930  -12.2550   -2.2360 C.2   214  GLU214      0.2260
    103  O        -21.5270  -12.7670   -1.7890 O.2   214  GLU214     -0.2867
    104  CB       -21.0160  -10.4190   -3.8990 C.3   214  GLU214      0.0388
    105  CG       -20.4040   -9.3710   -2.9560 C.3   214  GLU214      0.1160
    106  CD       -20.6050   -7.9180   -3.3910 C.2   214  GLU214      0.3649
    107  OE1      -20.8080   -7.6510   -4.6010 O.co2 214  GLU214     -0.2457
    108  OE2      -20.5320   -7.0370   -2.5010 O.co2 214  GLU214     -0.2457
    109  N         -9.2090   -5.3980  -12.8830 N.3   246  TYR246     -0.1241
    110  CA       -10.5320   -5.4630  -12.2630 C.3   246  TYR246      0.1605
    111  C        -11.5890   -4.5430  -12.8890 C.2   246  TYR246      0.2264
    112  O        -12.6430   -5.0300  -13.3330 O.2   246  TYR246     -0.2867
    113  CB       -10.4320   -5.1600  -10.7610 C.3   246  TYR246      0.0534
    114  CG       -11.8040   -4.9790  -10.1720 C.ar  246  TYR246     -0.0201
    115  CD1      -12.6000   -6.0830   -9.9100 C.ar  246  TYR246     -0.0009
    116  CD2      -12.3390   -3.7030   -9.9360 C.ar  246  TYR246     -0.0009
    117  CE1      -13.8750   -5.9480   -9.3980 C.ar  246  TYR246      0.0417
    118  CE2      -13.6290   -3.5610   -9.4210 C.ar  246  TYR246      0.0417
    119  CZ       -14.3880   -4.6960   -9.1550 C.ar  246  TYR246      0.1957
    120  OH       -15.6670   -4.6020   -8.6430 O.3   246  TYR246     -0.2866
    121  N        -22.2980   -2.3400  -16.9960 N.3   255  TRP255     -0.1241
    122  CA       -22.7160   -1.3550  -16.0130 C.3   255  TRP255      0.1605
    123  C        -21.8340   -0.1190  -16.1480 C.2   255  TRP255      0.2264
    124  O        -20.6070   -0.2340  -16.1980 O.2   255  TRP255     -0.2867
    125  CB       -22.6350   -1.9420  -14.6010 C.3   255  TRP255      0.0550
    126  CG       -22.7590   -0.9160  -13.5070 C.ar  255  TRP255      0.0003
    127  CD1      -23.8610   -0.1540  -13.1990 C.ar  255  TRP255      0.0946
    128  CD2      -21.7430   -0.5470  -12.5690 C.ar  255  TRP255      0.0152
    129  NE1      -23.5770    0.6790  -12.1360 N.ar  255  TRP255     -0.2442
    130  CE2      -22.2870    0.4500  -11.7290 C.ar  255  TRP255      0.0810
    131  CE3      -20.4210   -0.9650  -12.3570 C.ar  255  TRP255      0.0012
    132  CZ2      -21.5540    1.0350  -10.6960 C.ar  255  TRP255      0.0191
    133  CZ3      -19.6980   -0.3790  -11.3330 C.ar  255  TRP255      0.0001
    134  CH2      -20.2680    0.6070  -10.5150 C.ar  255  TRP255      0.0015
@<TRIPOS>BOND
     1   121   122    1
     2   124   123    2
     3   123   122    1
     4   122   125    1
     5   125   126    1
     6   126   127   ar
     7   126   128   ar
     8   112   111    2
     9   127   129   ar
    10   111   110    1
    11   109   110    1
    12   128   131   ar
    13   128   130   ar
    14   131   133   ar
    15   110   113    1
    16   129   130   ar
    17   130   132   ar
    18   133   134   ar
    19   113   114    1
    20   132   134   ar
    21   114   116   ar
    22   114   115   ar
    23   116   118   ar
    24   115   117   ar
    25    98    96   ar
    26    98    99   ar
    27    93    92    2
    28    92    91    1
    29    96    95   ar
    30   118   119   ar
    31   117   119   ar
    32   119   120    1
    33    80    79    2
    34    99    97   ar
    35    91    94    1
    36    91    90    1
    37    95    94    1
    38    95    97   ar
    39    79    81   am
    40    79    78    1
    41     9     7   am
    42    27    26    1
    43    39    37    1
    44    17    19   ar
    45    17    15   ar
    46    19    18   ar
    47    77    78    1
    48    77    74    1
    49    28    29    1
    50    76    75    2
    51    75    74    1
    52    15    14    1
    53    15    16   ar
    54     7     6    1
    55     7     8    2
    56    18    16   ar
    57    26    25    1
    58    37    36    1
    59    29    30    1
    60    31    30    2
    61     6     5    1
    62    74    73    1
    63    14    11    1
    64    30    32   am
    65    13    12    2
    66    32    33    1
    67   107   106   ar
    68    25    24    1
    69   100   101    1
    70    85    84    2
    71    36    33    1
    72    36    38    1
    73    59    60    1
    74    59    58    1
    75    60    61    2
    76     5     2    1
    77    33    34    1
    78    11    12    1
    79    11    10    1
    80    12    20   am
    81    89    87    1
    82   104   101    1
    83   104   105    1
    84     2     1    1
    85     2     3    1
    86    84    83    1
    87   101   102    1
    88    87    88    1
    89    87    86    1
    90    54    53    2
    91   106   105    1
    92   106   108   ar
    93    24    21    1
    94    20    21    1
    95    58    53   am
    96    21    22    1
    97    34    35    2
    98    53    52    1
    99    86    83    1
   100     3     4    2
   101    83    82    1
   102   102   103    2
   103    56    55    1
   104    65    64    2
   105    22    23    2
   106    52    55    1
   107    52    51    1
   108    55    57    1
   109    50    48   ar
   110    50    49   ar
   111    64    63    1
   112    48    46   ar
   113    49    47   ar
   114    66    63    1
   115    66    67    1
   116    46    45   ar
   117    63    62    1
   118    47    45   ar
   119    68    67    1
   120    68    69    1
   121    40    41    1
   122    45    44    1
   123    41    44    1
   124    41    42    1
   125    69    70    2
   126    42    43    2
   127    71    70    1
   128    70    72    1
