@<TRIPOS>MOLECULE
tmp/5x1nA01.pdb
 128 127 0 0 0
SMALL
GASTEIGER

@<TRIPOS>ATOM
      1  N        -65.2720   59.5080   22.0980 N.3    28  TYR28      -0.1241
      2  CA       -65.3420   58.6560   20.9130 C.3    28  TYR28       0.1605
      3  C        -65.6780   57.2490   21.3920 C.2    28  TYR28       0.2264
      4  O        -64.8750   56.6070   22.0730 O.2    28  TYR28      -0.2867
      5  CB       -64.0410   58.6830   20.1110 C.3    28  TYR28       0.0534
      6  CG       -64.1950   58.0330   18.7370 C.ar   28  TYR28      -0.0201
      7  CD1      -65.0220   58.6020   17.7730 C.ar   28  TYR28      -0.0009
      8  CD2      -63.5300   56.8550   18.4130 C.ar   28  TYR28      -0.0009
      9  CE1      -65.1810   58.0250   16.5230 C.ar   28  TYR28       0.0417
     10  CE2      -63.6810   56.2590   17.1440 C.ar   28  TYR28       0.0417
     11  CZ       -64.5140   56.8490   16.2130 C.ar   28  TYR28       0.1957
     12  OH       -64.6880   56.2870   14.9610 O.3    28  TYR28      -0.2866
     13  N        -66.9650   53.2320   21.2350 N.3    30  TYR30      -0.1241
     14  CA       -66.9990   51.9780   20.5030 C.3    30  TYR30       0.1605
     15  C        -68.3150   51.3180   20.8760 C.2    30  TYR30       0.2264
     16  O        -68.4180   50.7090   21.9510 O.2    30  TYR30      -0.2867
     17  CB       -65.7930   51.1040   20.8710 C.3    30  TYR30       0.0534
     18  CG       -64.5190   51.8510   20.5290 C.ar   30  TYR30      -0.0201
     19  CD1      -64.0020   51.8110   19.2360 C.ar   30  TYR30      -0.0009
     20  CD2      -63.8800   52.6690   21.4700 C.ar   30  TYR30      -0.0009
     21  CE1      -62.8710   52.5240   18.8930 C.ar   30  TYR30       0.0417
     22  CE2      -62.7400   53.3870   21.1380 C.ar   30  TYR30       0.0417
     23  CZ       -62.2380   53.3050   19.8360 C.ar   30  TYR30       0.1957
     24  OH       -61.1100   54.0000   19.4530 O.3    30  TYR30      -0.2866
     25  N        -66.2660   43.2670   15.6900 N.3    56  GLN56      -0.1245
     26  CA       -66.0260   44.5120   14.9700 C.3    56  GLN56       0.1566
     27  C        -67.2620   45.0180   14.2410 C.2    56  GLN56       0.2260
     28  O        -67.1470   45.8680   13.3560 O.2    56  GLN56      -0.2867
     29  CB       -64.8800   44.3350   13.9690 C.3    56  GLN56       0.0367
     30  CG       -63.4980   44.0340   14.5770 C.3    56  GLN56       0.0905
     31  CD       -62.4210   43.9800   13.4920 C.2    56  GLN56       0.2608
     32  OE1      -62.5000   43.1640   12.5780 O.2    56  GLN56      -0.2717
     33  NE2      -61.4490   44.8840   13.5620 N.am   56  GLN56      -0.0878
     34  N        -68.3670   49.4910   15.1140 N.3    59  HIS59      -0.1226
     35  CA       -67.6250   50.7350   15.3260 C.3    59  HIS59       0.1752
     36  C        -67.0180   51.3380   14.0630 C.2    59  HIS59       0.2595
     37  O        -66.3920   52.4000   14.1560 O.2    59  HIS59      -0.2718
     38  CB       -66.5180   50.5350   16.3720 C.3    59  HIS59       0.0759
     39  CG       -65.4130   49.6290   15.9210 C.ar   59  HIS59       0.0818
     40  ND1      -65.5650   48.2610   15.8350 N.ar   59  HIS59      -0.2268
     41  CD2      -64.1380   49.8920   15.5420 C.ar   59  HIS59       0.1154
     42  CE1      -64.4350   47.7200   15.4120 C.ar   59  HIS59       0.1986
     43  NE2      -63.5530   48.6870   15.2270 N.ar   59  HIS59      -0.2212
     44  N        -67.2050   50.7230   12.8960 N.am   60  MET60      -0.1979
     45  CA       -66.6470   51.2380   11.6480 C.3    60  MET60       0.1605
     46  C        -67.7350   51.4590   10.6080 C.2    60  MET60       0.2287
     47  O        -68.7600   50.7730   10.6010 O.2    60  MET60      -0.2864
     48  CB       -65.5730   50.2870   11.0730 C.3    60  MET60       0.0413
     49  CG       -64.2760   50.3540   11.8870 C.3    60  MET60       0.0598
     50  SD       -62.9050   49.3010   11.3700 S.3    60  MET60      -0.1393
     51  CE       -63.5830   47.6600   11.6200 C.3    60  MET60       0.0692
     52  N        -62.9630   54.3440    9.6480 N.3   121  ARG121     -0.1245
     53  CA       -63.6030   55.5520   10.1550 C.3   121  ARG121      0.1563
     54  C        -64.2680   56.3390    9.0180 C.2   121  ARG121      0.2260
     55  O        -64.0190   56.1110    7.8300 O.2   121  ARG121     -0.2867
     56  CB       -62.5870   56.4370   10.8830 C.3   121  ARG121      0.0307
     57  CG       -62.1150   55.8930   12.2400 C.3   121  ARG121      0.0489
     58  CD       -61.5610   57.0290   13.1300 C.3   121  ARG121      0.2205
     59  NE       -61.1460   56.5430   14.4490 N.pl3 121  ARG121     -0.0865
     60  CZ       -60.7870   57.3280   15.4690 C.cat 121  ARG121      0.5346
     61  NH1      -60.8010   58.6500   15.3360 N.pl3 121  ARG121      0.1354
     62  NH2      -60.4180   56.7870   16.6270 N.pl3 121  ARG121      0.1354
     63  N        -61.2780   46.1020   23.6530 N.3   241  TYR241     -0.1228
     64  CA       -61.0750   45.9730   22.2030 C.3   241  TYR241      0.1721
     65  C        -60.1330   47.0230   21.6090 C.2   241  TYR241      0.2437
     66  O        -59.1150   46.6530   21.0040 O.2   241  TYR241     -0.2733
     67  CB       -62.4030   46.0100   21.4320 C.3   241  TYR241      0.0547
     68  CG       -62.1420   46.1420   19.9420 C.ar  241  TYR241     -0.0200
     69  CD1      -61.7460   45.0410   19.1940 C.ar  241  TYR241     -0.0009
     70  CD2      -62.2040   47.3790   19.3070 C.ar  241  TYR241     -0.0009
     71  CE1      -61.4670   45.1540   17.8440 C.ar  241  TYR241      0.0417
     72  CE2      -61.9140   47.5030   17.9410 C.ar  241  TYR241      0.0417
     73  CZ       -61.5510   46.3830   17.2270 C.ar  241  TYR241      0.1957
     74  OH       -61.2770   46.4900   15.8850 O.3   241  TYR241     -0.2866
     75  N        -60.4150   48.3260   21.7260 N.am  242  PRO242     -0.2729
     76  CA       -59.6100   49.3040   20.9710 C.3   242  PRO242      0.1401
     77  C        -58.1810   49.4660   21.4740 C.2   242  PRO242      0.2269
     78  O        -57.3720   50.0840   20.7690 O.2   242  PRO242     -0.2865
     79  CB       -60.4000   50.6090   21.1340 C.3   242  PRO242      0.0296
     80  CG       -61.0590   50.4610   22.4640 C.3   242  PRO242      0.0237
     81  CD       -61.4230   49.0000   22.5650 C.3   242  PRO242      0.0939
     82  N        -56.1130   47.0650   21.7170 N.3   244  ASN244     -0.1225
     83  CA       -55.2920   46.1290   20.9570 C.3   244  ASN244      0.1785
     84  C        -54.3320   46.8590   20.0190 C.2   244  ASN244      0.2597
     85  O        -53.1900   46.4140   19.8250 O.2   244  ASN244     -0.2718
     86  CB       -56.1920   45.1730   20.1640 C.3   244  ASN244      0.1169
     87  CG       -56.5850   45.7370   18.7810 C.2   244  ASN244      0.2627
     88  OD1      -55.9010   45.4730   17.7840 O.2   244  ASN244     -0.2716
     89  ND2      -57.6760   46.5270   18.7240 N.am  244  ASN244     -0.0877
     90  N        -54.7580   48.0000   19.4590 N.am  245  THR245     -0.1953
     91  CA       -53.9330   48.6870   18.4670 C.3   245  THR245      0.1897
     92  C        -52.7210   49.3590   19.0920 C.2   245  THR245      0.2313
     93  O        -51.7820   49.7140   18.3710 O.2   245  THR245     -0.2863
     94  CB       -54.7700   49.7050   17.6880 C.3   245  THR245      0.1794
     95  OG1      -54.1100   50.0290   16.4640 O.3   245  THR245     -0.2208
     96  CG2      -54.9760   50.9830   18.4810 C.3   245  THR245      0.0378
     97  N        -51.1660   50.4130   14.8200 N.3   250  TRP250     -0.1241
     98  CA       -51.9220   51.2160   13.8590 C.3   250  TRP250      0.1605
     99  C        -52.4950   52.4580   14.5400 C.2   250  TRP250      0.2264
    100  O        -53.1900   52.3460   15.5520 O.2   250  TRP250     -0.2867
    101  CB       -53.0480   50.3810   13.2440 C.3   250  TRP250      0.0550
    102  CG       -54.0000   51.1660   12.3780 C.ar  250  TRP250      0.0003
    103  CD1      -53.7180   51.7570   11.1800 C.ar  250  TRP250      0.0946
    104  CD2      -55.3960   51.4140   12.6270 C.ar  250  TRP250      0.0152
    105  NE1      -54.8400   52.3710   10.6760 N.ar  250  TRP250     -0.2442
    106  CE2      -55.8860   52.1720   11.5400 C.ar  250  TRP250      0.0810
    107  CE3      -56.2740   51.0810   13.6690 C.ar  250  TRP250      0.0012
    108  CZ2      -57.2180   52.6060   11.4620 C.ar  250  TRP250      0.0191
    109  CZ3      -57.5990   51.5060   13.5870 C.ar  250  TRP250      0.0001
    110  CH2      -58.0560   52.2600   12.4930 C.ar  250  TRP250      0.0015
    111  N        -55.2480   55.0110   14.6750 N.3   252  PRO252     -0.2116
    112  CA       -56.5950   55.0940   14.0950 C.3   252  PRO252      0.1372
    113  C        -57.0330   56.5010   13.7960 C.2   252  PRO252      0.2244
    114  O        -57.9750   56.6800   13.0110 O.2   252  PRO252     -0.2868
    115  CB       -57.4970   54.4750   15.1840 C.3   252  PRO252      0.0268
    116  CG       -56.5420   53.8230   16.1580 C.3   252  PRO252      0.0207
    117  CD       -55.3100   54.6740   16.1030 C.3   252  PRO252      0.0892
    118  N        -52.4940   58.2350   20.2370 N.3   387  PHE387     -0.1241
    119  CA       -53.4020   57.1910   20.7030 C.3   387  PHE387      0.1605
    120  C        -52.7860   56.6240   21.9700 C.2   387  PHE387      0.2264
    121  O        -51.6120   56.2470   21.9620 O.2   387  PHE387     -0.2867
    122  CB       -53.5980   56.0860   19.6420 C.3   387  PHE387      0.0534
    123  CG       -54.9760   55.4690   19.6510 C.ar  387  PHE387     -0.0203
    124  CD1      -56.0520   56.1440   19.0880 C.ar  387  PHE387     -0.0042
    125  CD2      -55.1930   54.2210   20.2150 C.ar  387  PHE387     -0.0042
    126  CE1      -57.3140   55.5860   19.0880 C.ar  387  PHE387     -0.0003
    127  CE2      -56.4590   53.6590   20.2280 C.ar  387  PHE387     -0.0003
    128  CZ       -57.5210   54.3490   19.6610 C.ar  387  PHE387     -0.0000
@<TRIPOS>BOND
     1    55    54    2
     2    54    53    1
     3    52    53    1
     4    53    56    1
     5    47    46    2
     6    46    45    1
     7   105   103   ar
     8   105   106   ar
     9    56    57    1
    10    48    45    1
    11    48    49    1
    12   103   102   ar
    13    50    51    1
    14    50    49    1
    15   108   106   ar
    16   108   110   ar
    17   106   104   ar
    18    45    44    1
    19    57    58    1
    20   102   104   ar
    21   102   101    1
    22   110   109   ar
    23    32    31    2
    24   104   107   ar
    25    44    36   am
    26   114   113    2
    27    58    59    1
    28   101    98    1
    29    28    27    2
    30    31    33   am
    31    31    30    1
    32   109   107   ar
    33   113   112    1
    34    98    99    1
    35    98    97    1
    36    29    30    1
    37    29    26    1
    38    36    37    2
    39    36    35    1
    40   112   111    1
    41   112   115    1
    42    27    26    1
    43    59    60    2
    44    99   100    2
    45   111   117    1
    46    12    11    1
    47    26    25    1
    48    34    35    1
    49   115   116    1
    50    43    42   ar
    51    43    41   ar
    52    35    38    1
    53    61    60    1
    54    42    40   ar
    55    60    62    1
    56    41    39   ar
    57    40    39   ar
    58    74    73    1
    59    39    38    1
    60   117   116    1
    61    11     9   ar
    62    11    10   ar
    63    95    94    1
    64     9     7   ar
    65    10     8   ar
    66    73    71   ar
    67    73    72   ar
    68    94    91    1
    69    94    96    1
    70     7     6   ar
    71    88    87    2
    72    71    69   ar
    73    72    70   ar
    74    93    92    2
    75     8     6   ar
    76    91    92    1
    77    91    90    1
    78    89    87   am
    79     6     5    1
    80    87    86    1
    81    21    19   ar
    82    21    23   ar
    83   124   126   ar
    84   124   123   ar
    85   126   128   ar
    86    69    68   ar
    87    19    18   ar
    88    70    68   ar
    89    24    23    1
    90    90    84   am
    91   122   123    1
    92   122   119    1
    93   123   125   ar
    94   128   127   ar
    95    85    84    2
    96    23    22   ar
    97    68    67    1
    98    84    83    1
    99     5     2    1
   100    86    83    1
   101   125   127   ar
   102   118   119    1
   103    14    17    1
   104    14    15    1
   105    14    13    1
   106    18    17    1
   107    18    20   ar
   108   119   120    1
   109    78    77    2
   110    15    16    2
   111     2     3    1
   112     2     1    1
   113    83    82    1
   114    76    79    1
   115    76    77    1
   116    76    75    1
   117    66    65    2
   118    79    80    1
   119    22    20   ar
   120     3     4    2
   121    67    64    1
   122    65    75   am
   123    65    64    1
   124    75    81    1
   125   121   120    2
   126    64    63    1
   127    80    81    1
