@<TRIPOS>MOLECULE
tmp/5x1oA01.pdb
 95 89 0 0 0
SMALL
GASTEIGER

@<TRIPOS>ATOM
      1  N         39.0250    5.2830  251.4890 N.3    55  ARG55      -0.1245
      2  CA        39.0960    6.1670  252.6430 C.3    55  ARG55       0.1563
      3  C         38.6490    5.4370  253.8910 C.2    55  ARG55       0.2260
      4  O         37.8830    4.4680  253.8350 O.2    55  ARG55      -0.2867
      5  CB        38.2680    7.4660  252.4770 C.3    55  ARG55       0.0307
      6  CG        38.4180    8.2150  251.1560 C.3    55  ARG55       0.0489
      7  CD        37.3690    9.3470  251.0770 C.3    55  ARG55       0.2205
      8  NE        37.8100   10.5120  250.2980 N.pl3  55  ARG55      -0.0865
      9  CZ        38.1180   11.6910  250.8440 C.cat  55  ARG55       0.5346
     10  NH1       38.4990   12.7190  250.0790 N.pl3  55  ARG55       0.1354
     11  NH2       38.0380   11.8420  252.1670 N.pl3  55  ARG55       0.1354
     12  N         34.6240   12.0200  264.2070 N.3    60  LYS60      -0.1231
     13  CA        35.1520   13.3560  264.4040 C.3    60  LYS60       0.1693
     14  C         34.8790   13.8100  265.8370 C.2    60  LYS60       0.2592
     15  O         34.1450   13.1750  266.5980 O.2    60  LYS60      -0.2718
     16  CB        34.5510   14.3550  263.3910 C.3    60  LYS60       0.0285
     17  CG        34.5320   13.9020  261.9080 C.3    60  LYS60       0.0035
     18  CD        35.8080   13.2040  261.5500 C.3    60  LYS60       0.0206
     19  CE        36.7770   14.1410  260.9520 C.3    60  LYS60       0.1093
     20  NZ        38.0970   13.4950  260.7260 N.3    60  LYS60      -0.1314
     21  N         35.5080   14.9220  266.2090 N.am   61  GLU61      -0.1966
     22  CA        35.4490   15.3730  267.5930 C.3    61  GLU61       0.1733
     23  C         34.0700   15.8910  267.9660 C.2    61  GLU61       0.2616
     24  O         33.7680   16.0080  269.1570 O.2    61  GLU61      -0.2715
     25  CB        36.5510   16.3940  267.8460 C.3    61  GLU61       0.0429
     26  CG        36.6940   17.4630  266.7680 C.3    61  GLU61       0.1163
     27  CD        37.5330   16.9820  265.5480 C.2    61  GLU61       0.3649
     28  OE1       38.5280   17.6640  265.2160 O.co2  61  GLU61      -0.2457
     29  OE2       37.1950   15.9370  264.9380 O.co2  61  GLU61      -0.2457
     30  N         33.2250   16.1960  266.9860 N.am   62  ASP62      -0.1971
     31  CA        31.8520   16.5920  267.2550 C.3    62  ASP62       0.1709
     32  C         30.8580   15.4520  267.0520 C.2    62  ASP62       0.2293
     33  O         29.6460   15.7010  267.0410 O.2    62  ASP62      -0.2864
     34  CB        31.4760   17.7990  266.3900 C.3    62  ASP62       0.1436
     35  CG        31.5440   17.5140  264.8740 C.2    62  ASP62       0.3671
     36  OD1       31.1030   18.4120  264.1400 O.co2  62  ASP62      -0.2456
     37  OD2       32.0090   16.4300  264.4190 O.co2  62  ASP62      -0.2456
     38  N         30.5380   13.6660  264.3330 N.3    64  ARG64      -0.1231
     39  CA        30.2710   13.4410  262.9240 C.3    64  ARG64       0.1694
     40  C         31.0970   12.2670  262.4220 C.2    64  ARG64       0.2592
     41  O         32.1040   11.8690  263.0280 O.2    64  ARG64      -0.2718
     42  CB        30.5890   14.6940  262.0970 C.3    64  ARG64       0.0321
     43  CG        29.5010   15.7720  262.0800 C.3    64  ARG64       0.0489
     44  CD        29.9370   16.9390  261.1980 C.3    64  ARG64       0.2205
     45  NE        28.8840   17.8510  260.7550 N.pl3  64  ARG64      -0.0865
     46  CZ        28.7610   19.1370  261.1200 C.cat  64  ARG64       0.5346
     47  NH1       29.5980   19.7080  261.9760 N.pl3  64  ARG64       0.1354
     48  NH2       27.7890   19.8800  260.6070 N.pl3  64  ARG64       0.1354
     49  N         30.6510   11.6920  261.3140 N.am   65  LEU65      -0.1966
     50  CA        31.4140   10.6790  260.5930 C.3    65  LEU65       0.1728
     51  C         31.9390   11.2820  259.2990 C.2    65  LEU65       0.2616
     52  O         31.2070   11.9830  258.5960 O.2    65  LEU65      -0.2715
     53  CB        30.5560    9.4530  260.2790 C.3    65  LEU65       0.0311
     54  CG        30.0620    8.6690  261.4900 C.3    65  LEU65       0.0022
     55  CD1       29.2970    7.3820  261.0190 C.3    65  LEU65       0.0001
     56  CD2       31.2170    8.3190  262.4460 C.3    65  LEU65       0.0001
     57  N         33.2060   11.0290  258.9980 N.am   66  LEU66      -0.1977
     58  CA        33.7830   11.4490  257.7270 C.3    66  LEU66       0.1596
     59  C         34.9240   10.4890  257.4090 C.2    66  LEU66       0.2287
     60  O         35.7810   10.2450  258.2600 O.2    66  LEU66      -0.2864
     61  CB        34.2730   12.9000  257.8160 C.3    66  LEU66       0.0297
     62  CG        34.6800   13.7280  256.5970 C.3    66  LEU66       0.0022
     63  CD1       36.0100   13.2710  256.0300 C.3    66  LEU66       0.0001
     64  CD2       33.5890   13.7130  255.5250 C.3    66  LEU66       0.0001
     65  N         38.3870    9.4320  255.9840 N.3    68  SER68      -0.1202
     66  CA        39.6780   10.0830  255.7590 C.3    68  SER68       0.2020
     67  C         40.5100    9.3530  254.7040 C.2    68  SER68       0.2618
     68  O         40.6050    8.1210  254.7260 O.2    68  SER68      -0.2717
     69  CB        40.4560   10.1510  257.0780 C.3    68  SER68       0.2103
     70  OG        41.4440   11.1690  257.0780 O.3    68  SER68      -0.2182
     71  N         41.1240   10.1150  253.7850 N.am   69  LYS69      -0.1979
     72  CA        42.0930    9.5230  252.8550 C.3    69  LYS69       0.1596
     73  C         43.2970    8.9410  253.5840 C.2    69  LYS69       0.2287
     74  O         43.8470    7.9160  253.1650 O.2    69  LYS69      -0.2864
     75  CB        42.5830   10.5450  251.8270 C.3    69  LYS69       0.0298
     76  CG        41.5640   10.9940  250.7870 C.3    69  LYS69       0.0038
     77  CD        42.2320   11.6960  249.5890 C.3    69  LYS69       0.0206
     78  CE        42.6310   13.1390  249.9030 C.3    69  LYS69       0.1093
     79  NZ        43.7440   13.2630  250.8880 N.3    69  LYS69      -0.1314
     80  N         44.1360    8.1750  260.6580 N.3    72  THR72      -0.1218
     81  CA        44.4920    8.9430  261.8360 C.3    72  THR72       0.1862
     82  C         43.9710    8.1810  263.0370 C.2    72  THR72       0.2287
     83  O         43.3560    7.1180  262.9020 O.2    72  THR72      -0.2866
     84  CB        43.9360   10.3730  261.8140 C.3    72  THR72       0.1770
     85  OG1       42.5060   10.3260  261.8670 O.3    72  THR72      -0.2211
     86  CG2       44.4040   11.1540  260.5800 C.3    72  THR72       0.0375
     87  N         41.5370    8.9450  264.6340 N.3    74  GLU74      -0.1245
     88  CA        40.0840    8.9790  264.5760 C.3    74  GLU74       0.1567
     89  C         39.5110    7.7910  263.8260 C.2    74  GLU74       0.2260
     90  O         38.2830    7.6320  263.8070 O.2    74  GLU74      -0.2867
     91  CB        39.5950   10.2680  263.9110 C.3    74  GLU74       0.0388
     92  CG        39.7160   11.4680  264.8190 C.3    74  GLU74       0.1160
     93  CD        39.3420   12.7840  264.1770 C.2    74  GLU74       0.3649
     94  OE1       39.2990   12.9020  262.9260 O.co2  74  GLU74      -0.2457
     95  OE2       39.0620   13.7070  264.9690 O.co2  74  GLU74      -0.2457
@<TRIPOS>BOND
     1    77    78    1
     2    77    76    1
     3    78    79    1
     4    10     9    1
     5     8     9    2
     6     8     7    1
     7    76    75    1
     8     9    11    1
     9     7     6    1
    10     6     5    1
    11     1     2    1
    12    75    72    1
    13     5     2    1
    14     2     3    1
    15    72    73    1
    16    72    71    1
    17    74    73    2
    18    71    67   am
    19     4     3    2
    20    67    68    2
    21    67    66    1
    22    64    62    1
    23    66    65    1
    24    66    69    1
    25    63    62    1
    26    62    61    1
    27    70    69    1
    28    59    58    1
    29    59    60    2
    30    58    61    1
    31    58    57    1
    32    52    51    2
    33    57    51   am
    34    51    50    1
    35    53    50    1
    36    53    54    1
    37    86    84    1
    38    50    49    1
    39    48    46    1
    40    80    81    1
    41    20    19    1
    42    45    46    2
    43    45    44    1
    44    19    18    1
    45    55    54    1
    46    46    47    1
    47    44    43    1
    48    49    40   am
    49    54    56    1
    50    18    17    1
    51    84    81    1
    52    84    85    1
    53    81    82    1
    54    17    16    1
    55    43    42    1
    56    42    39    1
    57    40    39    1
    58    40    41    2
    59    83    82    2
    60    39    38    1
    61    94    93   ar
    62    16    13    1
    63    90    89    2
    64    89    88    1
    65    91    88    1
    66    91    92    1
    67    36    35   ar
    68    93    92    1
    69    93    95   ar
    70    12    13    1
    71    13    14    1
    72    37    35   ar
    73    88    87    1
    74    35    34    1
    75    29    27   ar
    76    28    27   ar
    77    27    26    1
    78    14    21   am
    79    14    15    2
    80    21    22    1
    81    34    31    1
    82    26    25    1
    83    30    31    1
    84    30    23   am
    85    33    32    2
    86    32    31    1
    87    22    25    1
    88    22    23    1
    89    23    24    2
