@<TRIPOS>MOLECULE
tmp/5x1qA00.pdb
 153 143 0 0 0
SMALL
GASTEIGER

@<TRIPOS>ATOM
      1  N         19.1040  112.2510   58.5890 N.3    19  ILE19      -0.1231
      2  CA        19.4920  112.1370   59.9890 C.3    19  ILE19       0.1692
      3  C         19.3660  110.7240   60.5050 C.2    19  ILE19       0.2593
      4  O         19.8690  110.4350   61.6020 O.2    19  ILE19      -0.2718
      5  CB        18.6850  113.1020   60.8810 C.3    19  ILE19       0.0266
      6  CG1       17.1860  112.7730   60.8120 C.3    19  ILE19       0.0019
      7  CG2       18.9470  114.5350   60.4330 C.3    19  ILE19       0.0020
      8  CD1       16.3340  113.5550   61.8230 C.3    19  ILE19       0.0001
      9  N         18.7040  109.8410   59.7680 N.am   20  GLY20      -0.1942
     10  CA        18.7090  108.4370   60.1200 C.3    20  GLY20       0.2014
     11  C         18.7240  107.6060   58.8600 C.2    20  GLY20       0.2639
     12  O         17.9960  107.8990   57.9090 O.2    20  GLY20      -0.2714
     13  N         19.5700  106.5840   58.8150 N.am   21  GLU21      -0.1963
     14  CA        19.5840  105.6770   57.6750 C.3    21  GLU21       0.1733
     15  C         19.7470  104.2730   58.2160 C.2    21  GLU21       0.2616
     16  O         20.8130  103.9280   58.7390 O.2    21  GLU21      -0.2715
     17  CB        20.6940  106.0110   56.6870 C.3    21  GLU21       0.0429
     18  CG        20.6370  105.1340   55.4510 C.3    21  GLU21       0.1163
     19  CD        21.3000  105.7750   54.2490 C.2    21  GLU21       0.3649
     20  OE1       22.0820  106.7340   54.4410 O.co2  21  GLU21      -0.2457
     21  OE2       21.0230  105.3280   53.1130 O.co2  21  GLU21      -0.2457
     22  N         18.6880  103.4810   58.1160 N.am   22  GLY22      -0.1955
     23  CA        18.7290  102.1200   58.5860 C.3    22  GLY22       0.1869
     24  C         18.4680  101.1620   57.4510 C.2    22  GLY22       0.2309
     25  O         18.3950  101.5660   56.2820 O.2    22  GLY22      -0.2863
     26  N         14.4340  102.1460   56.3300 N.3    25  GLY25      -0.1225
     27  CA        13.9310  103.4640   55.9980 C.3    25  GLY25       0.1811
     28  C         14.9900  104.5110   56.2460 C.2    25  GLY25       0.2280
     29  O         15.9830  104.2700   56.9350 O.2    25  GLY25      -0.2866
     30  N         15.3510  108.6370   57.4960 N.3    27  VAL27      -0.1245
     31  CA        14.6890  109.7700   58.1290 C.3    27  VAL27       0.1561
     32  C         15.4450  111.0330   57.7540 C.2    27  VAL27       0.2260
     33  O         16.6690  111.0930   57.9100 O.2    27  VAL27      -0.2867
     34  CB        14.6350  109.6210   59.6560 C.3    27  VAL27       0.0252
     35  CG1       13.8970  110.8200   60.2620 C.3    27  VAL27       0.0019
     36  CG2       13.9750  108.2920   60.0430 C.3    27  VAL27       0.0019
     37  N         10.0630  116.2400   59.9920 N.3    40  ALA40      -0.1245
     38  CA        10.8080  115.0600   59.5750 C.3    40  ALA40       0.1562
     39  C         10.0650  114.3870   58.4330 C.2    40  ALA40       0.2260
     40  O          8.8350  114.4600   58.3470 O.2    40  ALA40      -0.2867
     41  CB        10.9980  114.0590   60.7220 C.3    40  ALA40       0.0290
     42  N          9.9730  110.5190   56.7410 N.3    42  LYS42      -0.1245
     43  CA        10.3730  109.1180   56.8160 C.3    42  LYS42       0.1561
     44  C         10.1070  108.4900   55.4580 C.2    42  LYS42       0.2260
     45  O          8.9770  108.5400   54.9640 O.2    42  LYS42      -0.2867
     46  CB         9.6020  108.3640   57.9030 C.3    42  LYS42       0.0271
     47  CG         9.7620  108.9280   59.2860 C.3    42  LYS42       0.0035
     48  CD         8.9210  108.1580   60.3240 C.3    42  LYS42       0.0206
     49  CE         9.3370  106.6910   60.4420 C.3    42  LYS42       0.1093
     50  NZ         8.7520  106.0930   61.6890 N.3    42  LYS42      -0.1314
     51  N          4.7420  109.7050   68.0220 N.3    92  LEU92      -0.1245
     52  CA         5.1430  110.3950   66.7970 C.3    92  LEU92       0.1561
     53  C          3.9260  110.9560   66.0800 C.2    92  LEU92       0.2260
     54  O          3.0100  110.2080   65.7320 O.2    92  LEU92      -0.2867
     55  CB         5.8830  109.4120   65.8850 C.3    92  LEU92       0.0270
     56  CG         6.2880  109.8990   64.4850 C.3    92  LEU92       0.0019
     57  CD1        7.6960  110.3830   64.4860 C.3    92  LEU92       0.0001
     58  CD2        6.1340  108.7540   63.5010 C.3    92  LEU92       0.0001
     59  N          6.2320  114.0760   59.3580 N.3   108  THR108     -0.1203
     60  CA         5.9300  114.0090   60.7890 C.3   108  THR108      0.1994
     61  C          6.5070  115.2170   61.5070 C.2   108  THR108      0.2618
     62  O          7.3120  115.9820   60.9690 O.2   108  THR108     -0.2717
     63  CB         6.4840  112.7330   61.4570 C.3   108  THR108      0.1784
     64  OG1        7.8920  112.8800   61.6920 O.3   108  THR108     -0.2211
     65  CG2        6.2430  111.5060   60.5900 C.3   108  THR108      0.0376
     66  N          6.0650  115.3900   62.7480 N.am  109  GLN109     -0.1965
     67  CA         6.6830  116.3710   63.6100 C.3   109  GLN109      0.1733
     68  C          8.1680  116.0600   63.7410 C.2   109  GLN109      0.2616
     69  O          8.5690  114.8960   63.7480 O.2   109  GLN109     -0.2715
     70  CB         5.9970  116.3390   64.9760 C.3   109  GLN109      0.0408
     71  CG         6.5100  117.3550   65.9740 C.3   109  GLN109      0.0908
     72  CD         5.5430  117.5410   67.1060 C.2   109  GLN109      0.2608
     73  OE1        4.3350  117.3140   66.9530 O.2   109  GLN109     -0.2717
     74  NE2        6.0610  117.9400   68.2600 N.am  109  GLN109     -0.0878
     75  N          8.9790  117.1090   63.8370 N.am  110  PHE110     -0.1960
     76  CA        10.4100  116.9660   64.0550 C.3   110  PHE110      0.1771
     77  C         10.7020  117.1390   65.5390 C.2   110  PHE110      0.2619
     78  O         10.2990  118.1410   66.1440 O.2   110  PHE110     -0.2715
     79  CB        11.1950  117.9880   63.2280 C.3   110  PHE110      0.0574
     80  CG        12.6810  117.8920   63.4180 C.ar  110  PHE110     -0.0200
     81  CD1       13.4300  116.9790   62.7070 C.ar  110  PHE110     -0.0042
     82  CD2       13.3190  118.6980   64.3430 C.ar  110  PHE110     -0.0042
     83  CE1       14.8020  116.8770   62.9160 C.ar  110  PHE110     -0.0003
     84  CE2       14.6870  118.5970   64.5380 C.ar  110  PHE110     -0.0003
     85  CZ        15.4160  117.6970   63.8160 C.ar  110  PHE110     -0.0000
     86  N         11.3840  116.1580   66.1280 N.am  111  TYR111     -0.1974
     87  CA        11.6750  116.1710   67.5540 C.3   111  TYR111      0.1639
     88  C         13.1350  116.5000   67.8170 C.2   111  TYR111      0.2290
     89  O         14.0340  116.0410   67.1000 O.2   111  TYR111     -0.2864
     90  CB        11.3270  114.8250   68.2060 C.3   111  TYR111      0.0560
     91  CG         9.8680  114.5190   68.0460 C.ar  111  TYR111     -0.0198
     92  CD1        8.9210  115.0990   68.8900 C.ar  111  TYR111     -0.0009
     93  CD2        9.4300  113.6950   67.0260 C.ar  111  TYR111     -0.0009
     94  CE1        7.5680  114.8470   68.7160 C.ar  111  TYR111      0.0417
     95  CE2        8.0850  113.4440   66.8440 C.ar  111  TYR111      0.0417
     96  CZ         7.1620  114.0260   67.6840 C.ar  111  TYR111      0.1957
     97  OH         5.8250  113.7750   67.5020 O.3   111  TYR111     -0.2866
     98  N         17.7610  113.0280   70.8280 N.3   114  THR114     -0.1203
     99  CA        18.2300  111.8450   70.1230 C.3   114  THR114      0.1994
    100  C         17.5700  110.6350   70.7710 C.2   114  THR114      0.2618
    101  O         16.7540  110.7770   71.6810 O.2   114  THR114     -0.2717
    102  CB        19.7590  111.7520   70.1460 C.3   114  THR114      0.1784
    103  OG1       20.1930  110.7360   69.2260 O.3   114  THR114     -0.2211
    104  CG2       20.2480  111.4290   71.5390 C.3   114  THR114      0.0376
    105  N         17.9030  109.4440   70.2760 N.am  115  THR115     -0.1952
    106  CA        17.2890  108.2300   70.7970 C.3   115  THR115      0.1897
    107  C         17.8120  107.8990   72.1890 C.2   115  THR115      0.2313
    108  O         18.9090  108.2980   72.5840 O.2   115  THR115     -0.2863
    109  CB        17.5510  107.0300   69.8930 C.3   115  THR115      0.1794
    110  OG1       18.9630  106.7950   69.7790 O.3   115  THR115     -0.2208
    111  CG2       16.9400  107.2520   68.5220 C.3   115  THR115      0.0378
    112  N         18.7870  105.0090   72.9580 N.3   117  LYS117     -0.1231
    113  CA        19.9730  104.2010   72.6900 C.3   117  LYS117      0.1693
    114  C         21.2170  105.0780   72.5990 C.2   117  LYS117      0.2592
    115  O         22.2510  104.7700   73.2010 O.2   117  LYS117     -0.2718
    116  CB        19.7720  103.3930   71.4030 C.3   117  LYS117      0.0285
    117  CG        20.8780  102.3690   71.1180 C.3   117  LYS117      0.0035
    118  CD        20.8260  101.8890   69.6910 C.3   117  LYS117      0.0206
    119  CE        20.8660  103.0640   68.7480 C.3   117  LYS117      0.1093
    120  NZ        22.2700  103.5230   68.5030 N.3   117  LYS117     -0.1314
    121  N         21.1250  106.1990   71.8880 N.am  118  ASN118     -0.1974
    122  CA        22.2930  107.0670   71.7610 C.3   118  ASN118      0.1688
    123  C         22.6140  107.7610   73.0750 C.2   118  ASN118      0.2292
    124  O         23.7900  107.9450   73.4110 O.2   118  ASN118     -0.2864
    125  CB        22.0770  108.0950   70.6520 C.3   118  ASN118      0.1181
    126  CG        22.1450  107.4780   69.2720 C.2   118  ASN118      0.2629
    127  OD1       22.6980  106.3880   69.0810 O.2   118  ASN118     -0.2716
    128  ND2       21.5750  108.1720   68.2960 N.am  118  ASN118     -0.0877
    129  N         15.9960  101.7420   70.9390 N.3   159  ASP159     -0.1239
    130  CA        16.3130  102.2590   69.6200 C.3   159  ASP159      0.1674
    131  C         15.2170  103.1680   69.0680 C.2   159  ASP159      0.2266
    132  O         15.5060  104.0290   68.2310 O.2   159  ASP159     -0.2867
    133  CB        16.5800  101.0340   68.7370 C.3   159  ASP159      0.1410
    134  CG        16.8720  101.3640   67.3260 C.2   159  ASP159      0.3668
    135  OD1       17.9520  101.9200   67.0450 O.co2 159  ASP159     -0.2456
    136  OD2       16.0390  100.9760   66.4900 O.co2 159  ASP159     -0.2456
    137  N         12.5960  108.3380   71.4020 N.3   162  GLN162     -0.1245
    138  CA        13.3210  109.6030   71.3360 C.3   162  GLN162      0.1566
    139  C         13.3030  110.2630   72.7050 C.2   162  GLN162      0.2260
    140  O         12.2740  110.2650   73.3760 O.2   162  GLN162     -0.2867
    141  CB        12.6680  110.5340   70.3110 C.3   162  GLN162      0.0367
    142  CG        13.4120  111.8470   70.0410 C.3   162  GLN162      0.0905
    143  CD        14.4730  111.6840   68.9810 C.2   162  GLN162      0.2608
    144  OE1       14.7510  110.5740   68.5400 O.2   162  GLN162     -0.2717
    145  NE2       15.0760  112.7980   68.5600 N.am  162  GLN162     -0.0878
    146  N          8.7250  106.5240   68.4390 N.3   172  LEU172     -0.1245
    147  CA         8.9790  106.9250   67.0530 C.3   172  LEU172      0.1561
    148  C          8.4740  105.9550   65.9980 C.2   172  LEU172      0.2260
    149  O          8.2500  106.3670   64.8510 O.2   172  LEU172     -0.2867
    150  CB        10.4810  107.0770   66.8190 C.3   172  LEU172      0.0270
    151  CG        11.1940  108.1790   67.5870 C.3   172  LEU172      0.0019
    152  CD1       12.6990  108.0190   67.3910 C.3   172  LEU172      0.0001
    153  CD2       10.7180  109.5610   67.1390 C.3   172  LEU172      0.0001
@<TRIPOS>BOND
     1    21    19   ar
     2    19    20   ar
     3    19    18    1
     4    45    44    2
     5    18    17    1
     6    44    43    1
     7    27    28    1
     8    27    26    1
     9    28    29    2
    10    25    24    2
    11    17    14    1
    12    42    43    1
    13    43    46    1
    14    24    23    1
    15    30    31    1
    16    14    15    1
    17    14    13    1
    18    32    33    2
    19    32    31    1
    20    46    47    1
    21    12    11    2
    22    22    15   am
    23    22    23    1
    24    31    34    1
    25    15    16    2
    26    40    39    2
    27    39    38    1
    28     1     2    1
    29    13    11   am
    30    11    10    1
    31    47    48    1
    32    59    60    1
    33    38    37    1
    34    38    41    1
    35    34    36    1
    36    34    35    1
    37     9    10    1
    38     9     3   am
    39     2     3    1
    40     2     5    1
    41    48    49    1
    42     7     5    1
    43    49    50    1
    44     3     4    2
    45    65    63    1
    46    60    63    1
    47    60    61    1
    48     6     5    1
    49     6     8    1
    50    62    61    2
    51    63    64    1
    52    61    66   am
    53    81    83   ar
    54    81    80   ar
    55    66    67    1
    56    83    85   ar
    57    79    80    1
    58    79    76    1
    59    80    82   ar
    60    58    56    1
    61    67    68    1
    62    67    70    1
    63    68    69    2
    64    68    75   am
    65    85    84   ar
    66    75    76    1
    67    76    77    1
    68    82    84   ar
    69    56    57    1
    70    56    55    1
    71   149   148    2
    72    70    71    1
    73    77    86   am
    74    77    78    2
    75    54    53    2
    76    55    52    1
    77    71    72    1
    78   148   147    1
    79    53    52    1
    80    86    87    1
    81   136   134   ar
    82    52    51    1
    83   150   147    1
    84   150   151    1
    85    95    93   ar
    86    95    96   ar
    87    73    72    2
    88    93    91   ar
    89   135   134   ar
    90   147   146    1
    91    89    88    2
    92    72    74   am
    93   153   151    1
    94   134   133    1
    95   152   151    1
    96    97    96    1
    97    87    88    1
    98    87    90    1
    99    96    94   ar
   100    91    90    1
   101    91    92   ar
   102   132   131    2
   103   128   126   am
   104   120   119    1
   105   111   109    1
   106   144   143    2
   107   145   143   am
   108    94    92   ar
   109   133   130    1
   110   119   118    1
   111   143   142    1
   112   131   130    1
   113   127   126    2
   114   103   102    1
   115   126   125    1
   116   130   129    1
   117   118   117    1
   118   110   109    1
   119   109   106    1
   120   142   141    1
   121    99   102    1
   122    99   100    1
   123    99    98    1
   124   102   104    1
   125   105   100   am
   126   105   106    1
   127   141   138    1
   128   125   122    1
   129   100   101    2
   130   106   107    1
   131   117   116    1
   132   138   137    1
   133   138   139    1
   134   116   113    1
   135   122   121    1
   136   122   123    1
   137   121   114   am
   138   107   108    2
   139   114   113    1
   140   114   115    2
   141   113   112    1
   142   139   140    2
   143   123   124    2
