@<TRIPOS>MOLECULE
tmp/5x1sA00.pdb
 157 147 0 0 0
SMALL
GASTEIGER

@<TRIPOS>ATOM
      1  N         -0.6720   19.0710   33.6610 N.3    19  ILE19      -0.1231
      2  CA         0.7240   19.4770   33.5290 C.3    19  ILE19       0.1692
      3  C          1.2330   19.3670   32.1070 C.2    19  ILE19       0.2593
      4  O          2.3160   19.8900   31.8040 O.2    19  ILE19      -0.2718
      5  CB         1.6450   18.7030   34.4920 C.3    19  ILE19       0.0266
      6  CG1        1.5800   17.1940   34.2030 C.3    19  ILE19       0.0019
      7  CG2        1.2580   19.0300   35.9340 C.3    19  ILE19       0.0020
      8  CD1        2.5530   16.3680   35.0380 C.3    19  ILE19       0.0001
      9  N          0.5090   18.6870   31.2330 N.am   20  GLY20      -0.1942
     10  CA         0.8860   18.6230   29.8390 C.3    20  GLY20       0.2014
     11  C         -0.3590   18.6290   28.9880 C.2    20  GLY20       0.2639
     12  O         -1.3310   17.9400   29.2960 O.2    20  GLY20      -0.2714
     13  N         -0.3730   19.4350   27.9350 N.am   21  GLU21      -0.1963
     14  CA        -1.5250   19.4620   27.0410 C.3    21  GLU21       0.1733
     15  C         -0.9850   19.6500   25.6330 C.2    21  GLU21       0.2616
     16  O         -0.5300   20.7420   25.2740 O.2    21  GLU21      -0.2715
     17  CB        -2.5200   20.5480   27.4160 C.3    21  GLU21       0.0429
     18  CG        -3.7630   20.5240   26.5380 C.3    21  GLU21       0.1163
     19  CD        -4.9400   21.2190   27.1820 C.2    21  GLU21       0.3649
     20  OE1       -4.7210   21.9660   28.1580 O.co2  21  GLU21      -0.2457
     21  OE2       -6.0860   20.9990   26.7250 O.co2  21  GLU21      -0.2457
     22  N         -1.0170   18.5800   24.8510 N.am   22  GLY22      -0.1955
     23  CA        -0.5940   18.6450   23.4760 C.3    22  GLY22       0.1869
     24  C         -1.7260   18.3010   22.5390 C.2    22  GLY22       0.2309
     25  O         -2.8880   18.1850   22.9570 O.2    22  GLY22      -0.2863
     26  N         -2.9210   14.2920   23.5990 N.3    25  GLY25      -0.1225
     27  CA        -3.2180   13.7840   24.9160 C.3    25  GLY25       0.1811
     28  C         -2.9560   14.8470   25.9530 C.2    25  GLY25       0.2280
     29  O         -2.2730   15.8420   25.6950 O.2    25  GLY25      -0.2866
     30  N         -1.7270   15.2420   30.0720 N.3    27  VAL27      -0.1245
     31  CA        -1.1000   14.5990   31.2230 C.3    27  VAL27       0.1561
     32  C         -1.4870   15.3830   32.4670 C.2    27  VAL27       0.2260
     33  O         -1.3520   16.6120   32.4960 O.2    27  VAL27      -0.2867
     34  CB         0.4320   14.5550   31.0980 C.3    27  VAL27       0.0252
     35  CG1        1.0550   13.8470   32.3070 C.3    27  VAL27       0.0019
     36  CG2        0.8450   13.8740   29.8020 C.3    27  VAL27       0.0019
     37  N          0.7380   10.0290   37.7490 N.3    40  ALA40      -0.1245
     38  CA         0.3220   10.7680   36.5690 C.3    40  ALA40       0.1562
     39  C         -0.8090   10.0170   35.8870 C.2    40  ALA40       0.2260
     40  O         -0.8900    8.7880   35.9620 O.2    40  ALA40      -0.2867
     41  CB         1.4600   10.9490   35.5740 C.3    40  ALA40       0.0290
     42  N         -2.5100    9.9120   32.0050 N.3    42  LYS42      -0.1245
     43  CA        -2.4460   10.3210   30.6130 C.3    42  LYS42       0.1561
     44  C         -3.8070   10.0260   29.9880 C.2    42  LYS42       0.2260
     45  O         -4.2480    8.9330   30.0280 O.2    42  LYS42      -0.2867
     46  CB        -1.3930    9.5400   29.8360 C.3    42  LYS42       0.0271
     47  CG         0.0170    9.7000   30.3290 C.3    42  LYS42       0.0035
     48  CD         1.0440    8.8050   29.5970 C.3    42  LYS42       0.0206
     49  CE         1.2550    9.2490   28.1460 C.3    42  LYS42       0.1093
     50  NZ         2.5200    8.7060   27.5650 N.3    42  LYS42      -0.1314
     51  N          8.7900    4.6220   31.2740 N.3    92  LEU92      -0.1245
     52  CA         7.5540    5.0190   31.9450 C.3    92  LEU92       0.1561
     53  C          6.8610    3.8060   32.5440 C.2    92  LEU92       0.2260
     54  O          6.5220    2.8600   31.8250 O.2    92  LEU92      -0.2867
     55  CB         6.6280    5.6700   30.9140 C.3    92  LEU92       0.0270
     56  CG         5.2450    6.1200   31.4020 C.3    92  LEU92       0.0019
     57  CD1        5.3090    7.5160   31.9430 C.3    92  LEU92       0.0001
     58  CD2        4.2530    6.0660   30.2450 C.3    92  LEU92       0.0001
     59  N          0.1240    6.2200   35.6270 N.3   108  THR108     -0.1203
     60  CA         1.5510    5.9020   35.5700 C.3   108  THR108      0.1994
     61  C          2.2670    6.4810   36.7820 C.2   108  THR108      0.2618
     62  O          1.7250    7.3060   37.5280 O.2   108  THR108     -0.2717
     63  CB         2.2490    6.4450   34.2960 C.3   108  THR108      0.1784
     64  OG1        2.4800    7.8580   34.4330 O.3   108  THR108     -0.2211
     65  CG2        1.4150    6.1890   33.0490 C.3   108  THR108      0.0376
     66  N          3.5070    6.0420   36.9680 N.am  109  GLN109     -0.1965
     67  CA         4.3690    6.6900   37.9400 C.3   109  GLN109      0.1733
     68  C          4.4930    8.1740   37.5990 C.2   109  GLN109      0.2616
     69  O          4.4870    8.5640   36.4220 O.2   109  GLN109     -0.2715
     70  CB         5.7430    6.0170   37.8960 C.3   109  GLN109      0.0408
     71  CG         6.7030    6.4930   38.9690 C.3   109  GLN109      0.0908
     72  CD         7.8780    5.5660   39.1500 C.2   109  GLN109      0.2608
     73  OE1        7.7690    4.3600   38.9230 O.2   109  GLN109     -0.2717
     74  NE2        9.0050    6.1220   39.5510 N.am  109  GLN109     -0.0878
     75  N          4.5720    9.0070   38.6370 N.am  110  PHE110     -0.1960
     76  CA         4.7810   10.4440   38.4800 C.3   110  PHE110      0.1771
     77  C          6.2670   10.7260   38.6730 C.2   110  PHE110      0.2619
     78  O          6.8450   10.3470   39.7010 O.2   110  PHE110     -0.2715
     79  CB         3.9620   11.2410   39.4960 C.3   110  PHE110      0.0574
     80  CG         4.1910   12.7180   39.4130 C.ar  110  PHE110     -0.0200
     81  CD1        3.5410   13.4840   38.4680 C.ar  110  PHE110     -0.0042
     82  CD2        5.1030   13.3330   40.2600 C.ar  110  PHE110     -0.0042
     83  CE1        3.7990   14.8590   38.3850 C.ar  110  PHE110     -0.0003
     84  CE2        5.3330   14.6850   40.1850 C.ar  110  PHE110     -0.0003
     85  CZ         4.6870   15.4370   39.2500 C.ar  110  PHE110     -0.0000
     86  N          6.8880   11.3760   37.6880 N.am  111  TYR111     -0.1974
     87  CA         8.3240   11.6490   37.7290 C.3   111  TYR111      0.1639
     88  C          8.6050   13.1030   38.0820 C.2   111  TYR111      0.2290
     89  O          7.8920   14.0110   37.6490 O.2   111  TYR111     -0.2864
     90  CB         8.9990   11.2880   36.4010 C.3   111  TYR111      0.0560
     91  CG         8.8310    9.8270   36.0920 C.ar  111  TYR111     -0.0198
     92  CD1        9.6490    8.8710   36.6880 C.ar  111  TYR111     -0.0009
     93  CD2        7.8240    9.4010   35.2500 C.ar  111  TYR111     -0.0009
     94  CE1        9.4620    7.5300   36.4460 C.ar  111  TYR111      0.0417
     95  CE2        7.6350    8.0680   34.9970 C.ar  111  TYR111      0.0417
     96  CZ         8.4600    7.1400   35.5890 C.ar  111  TYR111      0.1957
     97  OH         8.2590    5.8070   35.3290 O.3   111  TYR111     -0.2866
     98  N         11.1650   16.5170   37.9690 N.3   113  GLY113     -0.1210
     99  CA        11.9100   17.1250   36.8800 C.3   113  GLY113      0.1956
    100  C         11.0040   17.5970   35.7580 C.2   113  GLY113      0.2613
    101  O          9.8250   17.8970   35.9610 O.2   113  GLY113     -0.2717
    102  N         11.5750   17.6730   34.5580 N.am  114  THR114     -0.1938
    103  CA        10.8430   18.0860   33.3640 C.3   114  THR114      0.2028
    104  C         11.5020   17.4340   32.1520 C.2   114  THR114      0.2642
    105  O         12.4220   16.6280   32.2950 O.2   114  THR114     -0.2714
    106  CB        10.7800   19.6130   33.2660 C.3   114  THR114      0.1808
    107  OG1        9.8540   19.9780   32.2360 O.3   114  THR114     -0.2208
    108  CG2       12.1530   20.1860   32.9530 C.3   114  THR114      0.0379
    109  N         11.0390   17.7820   30.9540 N.am  115  THR115     -0.1950
    110  CA        11.5840   17.1440   29.7630 C.3   115  THR115      0.1897
    111  C         12.9630   17.6930   29.4170 C.2   115  THR115      0.2313
    112  O         13.3420   18.8100   29.7870 O.2   115  THR115     -0.2863
    113  CB        10.6850   17.3680   28.5540 C.3   115  THR115      0.1794
    114  OG1       10.6070   18.7690   28.2800 O.3   115  THR115     -0.2208
    115  CG2        9.2970   16.7810   28.7880 C.3   115  THR115      0.0378
    116  N         13.7870   18.6310   26.5010 N.3   117  LYS117     -0.1231
    117  CA        13.5070   19.8200   25.6940 C.3   117  LYS117      0.1693
    118  C         13.3970   21.0620   26.5710 C.2   117  LYS117      0.2592
    119  O         13.9860   22.1070   26.2640 O.2   117  LYS117     -0.2718
    120  CB        12.2140   19.6040   24.9030 C.3   117  LYS117      0.0285
    121  CG        11.6630   20.8540   24.2140 C.3   117  LYS117      0.0035
    122  CD        10.4170   20.4980   23.4060 C.3   117  LYS117      0.0206
    123  CE         9.4080   21.6340   23.3590 C.3   117  LYS117      0.1093
    124  NZ         8.9300   21.8820   21.9680 N.3   117  LYS117     -0.1314
    125  N         12.6710   20.9600   27.6850 N.am  118  ASN118     -0.1974
    126  CA        12.5230   22.1170   28.5650 C.3   118  ASN118      0.1688
    127  C         13.8350   22.4560   29.2590 C.2   118  ASN118      0.2292
    128  O         14.1590   23.6340   29.4360 O.2   118  ASN118     -0.2864
    129  CB        11.4210   21.8750   29.5960 C.3   118  ASN118      0.1181
    130  CG        10.0310   21.9370   28.9940 C.2   118  ASN118      0.2629
    131  OD1        9.8300   22.4590   27.8940 O.2   118  ASN118     -0.2716
    132  ND2        9.0560   21.4110   29.7240 N.am  118  ASN118     -0.0877
    133  N         11.7120   15.8800   23.2440 N.3   159  ASP159     -0.1239
    134  CA        10.4070   16.1260   23.7660 C.3   159  ASP159      0.1674
    135  C          9.7990   15.0330   24.6590 C.2   159  ASP159      0.2266
    136  O          9.0780   15.3320   25.5260 O.2   159  ASP159     -0.2867
    137  CB         9.5480   16.3560   22.5330 C.3   159  ASP159      0.1410
    138  CG         8.1910   16.7070   22.8220 C.2   159  ASP159      0.3668
    139  OD1        7.9570   17.8100   23.2900 O.co2 159  ASP159     -0.2456
    140  OD2        7.3330   15.9080   22.5200 O.co2 159  ASP159     -0.2456
    141  N         12.1580   12.4600   29.9000 N.3   162  GLN162     -0.1245
    142  CA        12.0840   13.1930   31.1610 C.3   162  GLN162      0.1566
    143  C         13.4590   13.1790   31.8220 C.2   162  GLN162      0.2260
    144  O         14.1470   12.1560   31.8160 O.2   162  GLN162     -0.2867
    145  CB        11.0880   12.5030   32.0910 C.3   162  GLN162      0.0367
    146  CG        10.8030   13.2470   33.3990 C.3   162  GLN162      0.0905
    147  CD         9.7510   14.3350   33.2510 C.2   162  GLN162      0.2608
    148  OE1        9.2900   14.6290   32.1450 O.2   162  GLN162     -0.2717
    149  NE2        9.3740   14.9490   34.3710 N.am  162  GLN162     -0.0878
    150  N          9.2010    8.5710   28.0540 N.3   172  LEU172     -0.1245
    151  CA         7.8160    8.8210   28.4530 C.3   172  LEU172      0.1561
    152  C          6.7650    8.3390   27.4710 C.2   172  LEU172      0.2260
    153  O          5.6140    8.1460   27.8820 O.2   172  LEU172     -0.2867
    154  CB         7.5750   10.3240   28.5970 C.3   172  LEU172      0.0270
    155  CG         8.3220   11.0570   29.6960 C.3   172  LEU172      0.0019
    156  CD1        8.1260   12.5630   29.5520 C.3   172  LEU172      0.0001
    157  CD2        7.8650   10.5610   31.0670 C.3   172  LEU172      0.0001
@<TRIPOS>BOND
     1   124   123    1
     2   140   138   ar
     3   137   138    1
     4   137   134    1
     5    24    25    2
     6    24    23    1
     7   138   139   ar
     8   133   134    1
     9   123   122    1
    10   122   121    1
    11    23    22    1
    12    26    27    1
    13   134   135    1
    14   121   120    1
    15   135   136    2
    16    22    15   am
    17   120   117    1
    18    27    28    1
    19    16    15    2
    20    15    14    1
    21   117   116    1
    22   117   118    1
    23    29    28    2
    24   119   118    2
    25    18    19    1
    26    18    17    1
    27   118   125   am
    28    21    19   ar
    29    14    17    1
    30    14    13    1
    31    19    20   ar
    32   152   153    2
    33   152   151    1
    34    50    49    1
    35   125   126    1
    36   131   130    2
    37    13    11   am
    38   150   151    1
    39    49    48    1
    40   114   113    1
    41   151   154    1
    42   113   115    1
    43   113   110    1
    44   126   127    1
    45   126   129    1
    46   154   155    1
    47    11    12    2
    48    11    10    1
    49   130   129    1
    50   130   132   am
    51   127   128    2
    52   111   110    1
    53   111   112    2
    54   156   155    1
    55    48    47    1
    56   155   157    1
    57   110   109    1
    58    36    34    1
    59    46    47    1
    60    46    43    1
    61    10     9    1
    62   141   142    1
    63    44    45    2
    64    44    43    1
    65    30    31    1
    66    58    56    1
    67    43    42    1
    68    55    56    1
    69    55    52    1
    70   109   104   am
    71    34    31    1
    72    34    35    1
    73   142   143    1
    74   142   145    1
    75    31    32    1
    76     9     3   am
    77    51    52    1
    78    56    57    1
    79     4     3    2
    80   144   143    2
    81    54    53    2
    82    52    53    1
    83   145   146    1
    84     3     2    1
    85   148   147    2
    86   104   105    2
    87   104   103    1
    88   107   106    1
    89    32    33    2
    90   108   106    1
    91    65    63    1
    92   147   146    1
    93   147   149   am
    94   106   103    1
    95   103   102    1
    96     2     1    1
    97     2     5    1
    98     6     5    1
    99     6     8    1
   100    63    64    1
   101    63    60    1
   102     5     7    1
   103   102   100   am
   104    95    93   ar
   105    95    96   ar
   106    93    91   ar
   107    97    96    1
   108    60    59    1
   109    60    61    1
   110    41    38    1
   111    96    94   ar
   112   100   101    2
   113   100    99    1
   114    39    40    2
   115    39    38    1
   116    91    90    1
   117    91    92   ar
   118    90    87    1
   119    69    68    2
   120    94    92   ar
   121    38    37    1
   122    61    66   am
   123    61    62    2
   124    99    98    1
   125    66    67    1
   126    68    67    1
   127    68    75   am
   128    89    88    2
   129    86    87    1
   130    86    77   am
   131    87    88    1
   132    70    67    1
   133    70    71    1
   134    83    81   ar
   135    83    85   ar
   136    81    80   ar
   137    76    75    1
   138    76    77    1
   139    76    79    1
   140    77    78    2
   141    73    72    2
   142    71    72    1
   143    72    74   am
   144    85    84   ar
   145    80    79    1
   146    80    82   ar
   147    84    82   ar
