@<TRIPOS>MOLECULE
tmp/5x1tA00.pdb
 144 135 0 0 0
SMALL
GASTEIGER

@<TRIPOS>ATOM
      1  N         -0.5640   19.1630   34.0950 N.3    19  ILE19      -0.1231
      2  CA         0.8360   19.5630   34.0160 C.3    19  ILE19       0.1692
      3  C          1.3860   19.4840   32.6090 C.2    19  ILE19       0.2593
      4  O          2.4690   20.0300   32.3540 O.2    19  ILE19      -0.2718
      5  CB         1.7210   18.7400   34.9780 C.3    19  ILE19       0.0266
      6  CG1        1.6410   17.2470   34.6470 C.3    19  ILE19       0.0019
      7  CG2        1.3000   19.0040   36.4270 C.3    19  ILE19       0.0020
      8  CD1        2.5430   16.3800   35.5110 C.3    19  ILE19       0.0001
      9  N          0.6840   18.8310   31.6890 N.am   20  GLY20      -0.1942
     10  CA         1.0920   18.8290   30.3030 C.3    20  GLY20       0.2014
     11  C         -0.1210   18.7510   29.4080 C.2    20  GLY20       0.2639
     12  O         -1.0360   17.9690   29.6650 O.2    20  GLY20      -0.2714
     13  N         -0.1680   19.5740   28.3710 N.am   21  GLU21      -0.1963
     14  CA        -1.3160   19.5730   27.4710 C.3    21  GLU21       0.1733
     15  C         -0.7860   19.7720   26.0630 C.2    21  GLU21       0.2616
     16  O         -0.2890   20.8520   25.7330 O.2    21  GLU21      -0.2715
     17  CB        -2.3220   20.6560   27.8470 C.3    21  GLU21       0.0429
     18  CG        -3.5720   20.6390   26.9880 C.3    21  GLU21       0.1163
     19  CD        -4.7490   21.3390   27.6450 C.2    21  GLU21       0.3649
     20  OE1       -4.5470   21.9710   28.7070 O.co2  21  GLU21      -0.2457
     21  OE2       -5.8730   21.2510   27.1000 O.co2  21  GLU21      -0.2457
     22  N         -0.8560   18.7220   25.2510 N.am   22  GLY22      -0.1955
     23  CA        -0.4770   18.8230   23.8590 C.3    22  GLY22       0.1869
     24  C         -1.6720   18.5970   22.9630 C.2    22  GLY22       0.2309
     25  O         -2.8190   18.5670   23.4280 O.2    22  GLY22      -0.2863
     26  N         -1.6690   15.4410   30.4190 N.3    27  VAL27      -0.1245
     27  CA        -1.0560   14.7560   31.5510 C.3    27  VAL27       0.1561
     28  C         -1.3950   15.5160   32.8210 C.2    27  VAL27       0.2260
     29  O         -1.2440   16.7400   32.8760 O.2    27  VAL27      -0.2867
     30  CB         0.4650   14.6320   31.3810 C.3    27  VAL27       0.0252
     31  CG1        1.0550   13.9560   32.5990 C.3    27  VAL27       0.0019
     32  CG2        0.7800   13.8410   30.1100 C.3    27  VAL27       0.0019
     33  N          0.7820   10.0480   38.0250 N.3    40  ALA40      -0.1245
     34  CA         0.3570   10.8090   36.8600 C.3    40  ALA40       0.1562
     35  C         -0.7640   10.0650   36.1510 C.2    40  ALA40       0.2260
     36  O         -0.8280    8.8320   36.1730 O.2    40  ALA40      -0.2867
     37  CB         1.5140   11.0470   35.8810 C.3    40  ALA40       0.0290
     38  N         -2.5090   10.1600   32.3010 N.3    42  LYS42      -0.1245
     39  CA        -2.4430   10.5690   30.9070 C.3    42  LYS42       0.1561
     40  C         -3.7850   10.3050   30.2400 C.2    42  LYS42       0.2260
     41  O         -4.2980    9.1820   30.2880 O.2    42  LYS42      -0.2867
     42  CB        -1.3320    9.8200   30.1710 C.3    42  LYS42       0.0271
     43  CG         0.0490   10.2130   30.6090 C.3    42  LYS42       0.0035
     44  CD         1.1160    9.3440   29.9590 C.3    42  LYS42       0.0206
     45  CE         1.1290    9.5700   28.4570 C.3    42  LYS42       0.1093
     46  NZ         2.2350    8.8330   27.7770 N.3    42  LYS42      -0.1314
     47  N          8.8260    4.8330   31.4570 N.3    92  LEU92      -0.1245
     48  CA         7.5930    5.2170   32.1430 C.3    92  LEU92       0.1561
     49  C          6.8810    3.9890   32.6800 C.2    92  LEU92       0.2260
     50  O          6.5750    3.0650   31.9190 O.2    92  LEU92      -0.2867
     51  CB         6.6760    5.9620   31.1710 C.3    92  LEU92       0.0270
     52  CG         5.3080    6.3880   31.7040 C.3    92  LEU92       0.0019
     53  CD1        5.3840    7.7870   32.2160 C.3    92  LEU92       0.0001
     54  CD2        4.2880    6.2860   30.5930 C.3    92  LEU92       0.0001
     55  N          0.1410    6.2770   35.7640 N.3   108  THR108     -0.1203
     56  CA         1.5620    5.9480   35.7140 C.3   108  THR108      0.1994
     57  C          2.2650    6.4790   36.9480 C.2   108  THR108      0.2618
     58  O          1.7320    7.2880   37.7170 O.2   108  THR108     -0.2717
     59  CB         2.2720    6.5290   34.4710 C.3   108  THR108      0.1784
     60  OG1        2.4940    7.9350   34.6590 O.3   108  THR108     -0.2211
     61  CG2        1.4290    6.3270   33.2230 C.3   108  THR108      0.0376
     62  N          3.4900    6.0100   37.1270 N.am  109  GLN109     -0.1965
     63  CA         4.3510    6.6030   38.1270 C.3   109  GLN109      0.1733
     64  C          4.5150    8.0870   37.8360 C.2   109  GLN109      0.2616
     65  O          4.5230    8.5100   36.6770 O.2   109  GLN109     -0.2715
     66  CB         5.6900    5.8810   38.1110 C.3   109  GLN109      0.0408
     67  CG         6.6880    6.3980   39.1160 C.3   109  GLN109      0.0908
     68  CD         7.8300    5.4290   39.2980 C.2   109  GLN109      0.2608
     69  OE1        7.6550    4.2110   39.1770 O.2   109  GLN109     -0.2717
     70  NE2        9.0070    5.9600   39.5710 N.am  109  GLN109     -0.0878
     71  N          4.5900    8.8890   38.8950 N.am  110  PHE110     -0.1960
     72  CA         4.8150   10.3210   38.7560 C.3   110  PHE110      0.1771
     73  C          6.3070   10.6100   38.8090 C.2   110  PHE110      0.2619
     74  O          6.9880   10.1770   39.7420 O.2   110  PHE110     -0.2715
     75  CB         4.1100   11.1130   39.8570 C.3   110  PHE110      0.0574
     76  CG         4.3510   12.5950   39.7690 C.ar  110  PHE110     -0.0200
     77  CD1        3.5780   13.3920   38.9390 C.ar  110  PHE110     -0.0042
     78  CD2        5.3890   13.1820   40.4810 C.ar  110  PHE110     -0.0042
     79  CE1        3.8220   14.7660   38.8440 C.ar  110  PHE110     -0.0003
     80  CE2        5.6280   14.5420   40.3860 C.ar  110  PHE110     -0.0003
     81  CZ         4.8350   15.3270   39.5780 C.ar  110  PHE110     -0.0000
     82  N          6.8040   11.3660   37.8330 N.am  111  TYR111     -0.1974
     83  CA         8.2190   11.7000   37.7880 C.3   111  TYR111      0.1639
     84  C          8.4390   13.1840   38.0530 C.2   111  TYR111      0.2290
     85  O          7.7320   14.0390   37.5140 O.2   111  TYR111     -0.2864
     86  CB         8.8380   11.2970   36.4410 C.3   111  TYR111      0.0560
     87  CG         8.7010    9.8190   36.1850 C.ar  111  TYR111     -0.0198
     88  CD1        9.5790    8.9130   36.7660 C.ar  111  TYR111     -0.0009
     89  CD2        7.6410    9.3230   35.4280 C.ar  111  TYR111     -0.0009
     90  CE1        9.4290    7.5620   36.5680 C.ar  111  TYR111      0.0417
     91  CE2        7.4880    7.9710   35.2250 C.ar  111  TYR111      0.0417
     92  CZ         8.3910    7.0970   35.7910 C.ar  111  TYR111      0.1957
     93  OH         8.2610    5.7500   35.5960 O.3   111  TYR111     -0.2866
     94  N         10.8600   16.7160   37.9620 N.3   113  GLY113     -0.1210
     95  CA        11.6630   17.3440   36.9300 C.3   113  GLY113      0.1956
     96  C         10.8230   17.8380   35.7660 C.2   113  GLY113      0.2613
     97  O          9.6430   18.1670   35.9010 O.2   113  GLY113     -0.2717
     98  N         11.4590   17.8850   34.6000 N.am  114  THR114     -0.1938
     99  CA        10.8480   18.4160   33.3960 C.3   114  THR114      0.2028
    100  C         11.4470   17.6790   32.2070 C.2   114  THR114      0.2642
    101  O         12.3580   16.8610   32.3660 O.2   114  THR114     -0.2714
    102  CB        11.0690   19.9240   33.2840 C.3   114  THR114      0.1808
    103  OG1       10.1990   20.4520   32.2740 O.3   114  THR114     -0.2208
    104  CG2       12.5350   20.2290   32.9290 C.3   114  THR114      0.0379
    105  N         10.9140   17.9570   31.0180 N.am  115  THR115     -0.1950
    106  CA        11.4450   17.3370   29.8120 C.3   115  THR115      0.1897
    107  C         12.8150   17.8960   29.4770 C.2   115  THR115      0.2313
    108  O         13.1750   19.0100   29.8570 O.2   115  THR115     -0.2863
    109  CB        10.5430   17.5700   28.6050 C.3   115  THR115      0.1794
    110  OG1       10.4520   18.9750   28.3360 O.3   115  THR115     -0.2208
    111  CG2        9.1630   16.9880   28.8370 C.3   115  THR115      0.0378
    112  N         12.5220   21.1830   27.7290 N.3   118  ASN118     -0.1240
    113  CA        12.3420   22.3540   28.5840 C.3   118  ASN118      0.1653
    114  C         13.6200   22.7030   29.3320 C.2   118  ASN118      0.2266
    115  O         13.9100   23.8840   29.5530 O.2   118  ASN118     -0.2867
    116  CB        11.2050   22.1230   29.5820 C.3   118  ASN118      0.1155
    117  CG         9.8400   22.0900   28.9210 C.2   118  ASN118      0.2627
    118  OD1        9.6570   22.5900   27.8080 O.2   118  ASN118     -0.2716
    119  ND2        8.8670   21.5080   29.6150 N.am  118  ASN118     -0.0877
    120  N         11.6230   16.0290   23.3780 N.3   159  ASP159     -0.1239
    121  CA        10.3210   16.3440   23.9490 C.3   159  ASP159      0.1674
    122  C          9.8120   15.2510   24.8790 C.2   159  ASP159      0.2266
    123  O          8.9620   15.5270   25.7390 O.2   159  ASP159     -0.2867
    124  CB         9.3040   16.5760   22.8370 C.3   159  ASP159      0.1410
    125  CG         7.9610   17.0010   23.3730 C.2   159  ASP159      0.3668
    126  OD1        6.9350   16.5670   22.8050 O.co2 159  ASP159     -0.2456
    127  OD2        7.9340   17.7610   24.3690 O.co2 159  ASP159     -0.2456
    128  N         12.1500   12.6690   29.9960 N.3   162  GLN162     -0.1245
    129  CA        12.0770   13.4040   31.2480 C.3   162  GLN162      0.1566
    130  C         13.4420   13.4330   31.9110 C.2   162  GLN162      0.2260
    131  O         14.1330   12.4160   31.9480 O.2   162  GLN162     -0.2867
    132  CB        11.0830   12.7350   32.1910 C.3   162  GLN162      0.0367
    133  CG        10.8470   13.4990   33.4900 C.3   162  GLN162      0.0905
    134  CD         9.7970   14.5790   33.3200 C.2   162  GLN162      0.2608
    135  OE1        9.3740   14.8720   32.2050 O.2   162  GLN162     -0.2717
    136  NE2        9.3760   15.1830   34.4320 N.am  162  GLN162     -0.0878
    137  N          9.1970    8.7330   28.1870 N.3   172  LEU172     -0.1245
    138  CA         7.8190    8.9840   28.6060 C.3   172  LEU172      0.1561
    139  C          6.7620    8.4530   27.6530 C.2   172  LEU172      0.2260
    140  O          5.6310    8.1980   28.0870 O.2   172  LEU172     -0.2867
    141  CB         7.5750   10.4890   28.7540 C.3   172  LEU172      0.0270
    142  CG         8.3520   11.2230   29.8370 C.3   172  LEU172      0.0019
    143  CD1        8.1560   12.7310   29.6970 C.3   172  LEU172      0.0001
    144  CD2        7.9150   10.7310   31.2090 C.3   172  LEU172      0.0001
@<TRIPOS>BOND
     1   126   125   ar
     2   124   125    1
     3   124   121    1
     4    24    25    2
     5    24    23    1
     6   125   127   ar
     7   120   121    1
     8    23    22    1
     9   121   122    1
    10   122   123    2
    11    22    15   am
    12    16    15    2
    13    15    14    1
    14    18    19    1
    15    18    17    1
    16    21    19   ar
    17    14    17    1
    18    14    13    1
    19    19    20   ar
    20   139   140    2
    21   139   138    1
    22   112   113    1
    23    46    45    1
    24   118   117    2
    25   137   138    1
    26   110   109    1
    27    13    11   am
    28    45    44    1
    29   113   114    1
    30   113   116    1
    31   109   111    1
    32   109   106    1
    33   138   141    1
    34   141   142    1
    35   117   116    1
    36   117   119   am
    37   114   115    2
    38    11    12    2
    39    11    10    1
    40   107   106    1
    41   107   108    2
    42   143   142    1
    43   106   105    1
    44   142   144    1
    45    44    43    1
    46   128   129    1
    47    32    30    1
    48    42    43    1
    49    42    39    1
    50    40    41    2
    51    40    39    1
    52    10     9    1
    53    26    27    1
    54    54    52    1
    55    39    38    1
    56   105   100   am
    57    51    52    1
    58    51    48    1
    59   129   130    1
    60   129   132    1
    61    30    27    1
    62    30    31    1
    63    47    48    1
    64    27    28    1
    65     9     3   am
    66    52    53    1
    67   130   131    2
    68    50    49    2
    69    48    49    1
    70   132   133    1
    71   135   134    2
    72   100   101    2
    73   100    99    1
    74   103   102    1
    75     4     3    2
    76     3     2    1
    77    28    29    2
    78   104   102    1
    79    61    59    1
    80   102    99    1
    81   134   133    1
    82   134   136   am
    83    99    98    1
    84     2     1    1
    85     2     5    1
    86    59    60    1
    87    59    56    1
    88    98    96   am
    89     6     5    1
    90     6     8    1
    91     5     7    1
    92    91    89   ar
    93    91    92   ar
    94    89    87   ar
    95    93    92    1
    96    56    55    1
    97    56    57    1
    98    96    97    2
    99    96    95    1
   100    92    90   ar
   101    37    34    1
   102    35    36    2
   103    35    34    1
   104    87    86    1
   105    87    88   ar
   106    86    83    1
   107    90    88   ar
   108    65    64    2
   109    34    33    1
   110    95    94    1
   111    57    62   am
   112    57    58    2
   113    62    63    1
   114    85    84    2
   115    83    82    1
   116    83    84    1
   117    82    73   am
   118    64    63    1
   119    64    71   am
   120    66    63    1
   121    66    67    1
   122    72    73    1
   123    72    71    1
   124    72    75    1
   125    73    74    2
   126    79    77   ar
   127    79    81   ar
   128    77    76   ar
   129    67    68    1
   130    69    68    2
   131    68    70   am
   132    81    80   ar
   133    76    75    1
   134    76    78   ar
   135    80    78   ar
