@<TRIPOS>MOLECULE
tmp/5x1vB02.pdb
 133 126 0 0 0
SMALL
GASTEIGER

@<TRIPOS>ATOM
      1  N          7.6040    2.1760   19.8230 N.3    13  PHE13      -0.1241
      2  CA         7.3970    3.0500   18.6210 C.3    13  PHE13       0.1605
      3  C          5.9380    3.5200   18.4970 C.2    13  PHE13       0.2264
      4  O          5.6750    4.6900   18.1940 O.2    13  PHE13      -0.2867
      5  CB         7.8820    2.3500   17.3420 C.3    13  PHE13       0.0534
      6  CG         7.9620    3.2450   16.1220 C.ar   13  PHE13      -0.0203
      7  CD1        6.8810    3.3720   15.2290 C.ar   13  PHE13      -0.0042
      8  CD2        9.1400    3.9210   15.8220 C.ar   13  PHE13      -0.0042
      9  CE1        6.9630    4.1800   14.0960 C.ar   13  PHE13      -0.0003
     10  CE2        9.2280    4.7310   14.6820 C.ar   13  PHE13      -0.0003
     11  CZ         8.1400    4.8600   13.8240 C.ar   13  PHE13      -0.0000
     12  N          5.1920    6.0910   21.2800 N.3    16  HIS16      -0.1226
     13  CA         5.8420    7.2910   20.7470 C.3    16  HIS16       0.1752
     14  C          4.9850    8.0600   19.7360 C.2    16  HIS16       0.2595
     15  O          4.8470    9.2850   19.8840 O.2    16  HIS16      -0.2718
     16  CB         7.2290    6.9920   20.1450 C.3    16  HIS16       0.0759
     17  CG         7.8930    8.1940   19.5700 C.ar   16  HIS16       0.0818
     18  ND1        8.4690    9.1690   20.3550 N.ar   16  HIS16      -0.2268
     19  CD2        8.0600    8.5960   18.2830 C.ar   16  HIS16       0.1154
     20  CE1        8.9690   10.1130   19.5770 C.ar   16  HIS16       0.1986
     21  NE2        8.7290    9.7910   18.3190 N.ar   16  HIS16      -0.2212
     22  N          4.3710    7.3370   18.7940 N.am   17  MET17      -0.1979
     23  CA         3.4370    7.9210   17.8110 C.3    17  MET17       0.1605
     24  C          2.1810    8.4820   18.5090 C.2    17  MET17       0.2287
     25  O          1.8690    9.6460   18.3200 O.2    17  MET17      -0.2864
     26  CB         3.0430    6.9160   16.7040 C.3    17  MET17       0.0413
     27  CG         4.0180    6.7800   15.5210 C.3    17  MET17       0.0598
     28  SD         3.4460    5.4130   14.4740 S.3    17  MET17      -0.1393
     29  CE         1.9560    6.1180   13.7740 C.3    17  MET17       0.0692
     30  N          2.6610   11.9540   20.3390 N.3    20  LEU20      -0.1245
     31  CA         3.0190   13.1330   19.5610 C.3    20  LEU20       0.1561
     32  C          2.0060   14.2390   19.7320 C.2    20  LEU20       0.2260
     33  O          0.8300   14.0380   19.5250 O.2    20  LEU20      -0.2867
     34  CB         3.2210   12.7950   18.0490 C.3    20  LEU20       0.0270
     35  CG         4.4390   11.9170   17.7280 C.3    20  LEU20       0.0019
     36  CD1        4.6540   11.7200   16.2120 C.3    20  LEU20       0.0001
     37  CD2        5.6710   12.5010   18.3790 C.3    20  LEU20       0.0001
     38  N         13.7070    5.4120    1.2180 N.3   293  LYS293     -0.1245
     39  CA        13.9880    4.9170    2.5810 C.3   293  LYS293      0.1561
     40  C         15.1920    3.9690    2.6470 C.2   293  LYS293      0.2260
     41  O         15.8170    3.8410    3.6980 O.2   293  LYS293     -0.2867
     42  CB        12.7400    4.2700    3.1980 C.3   293  LYS293      0.0271
     43  CG        11.6190    5.2610    3.4510 C.3   293  LYS293      0.0035
     44  CD        10.2630    4.5810    3.4510 C.3   293  LYS293      0.0206
     45  CE         9.1430    5.6110    3.6070 C.3   293  LYS293      0.1093
     46  NZ         9.1250    6.2070    4.9750 N.3   293  LYS293     -0.1314
     47  N         22.6310    6.9120    6.4150 N.3   300  ASN300     -0.1240
     48  CA        22.5850    6.9660    7.8910 C.3   300  ASN300      0.1653
     49  C         23.5410    5.9790    8.5350 C.2   300  ASN300      0.2266
     50  O         24.3390    6.3660    9.3840 O.2   300  ASN300     -0.2867
     51  CB        21.1540    6.7130    8.4640 C.3   300  ASN300      0.1155
     52  CG        20.2040    7.9180    8.3520 C.2   300  ASN300      0.2627
     53  OD1       19.0830    7.8590    8.8680 O.2   300  ASN300     -0.2716
     54  ND2       20.6140    8.9850    7.6790 N.am  300  ASN300     -0.0877
     55  N          8.1580   13.4260    6.8130 N.3   332  ASN332     -0.1240
     56  CA         8.6080   12.0620    6.7290 C.3   332  ASN332      0.1653
     57  C          9.9940   11.8640    6.1690 C.2   332  ASN332      0.2266
     58  O         10.6100   10.9140    6.5610 O.2   332  ASN332     -0.2867
     59  CB         7.6450   11.2320    5.9050 C.3   332  ASN332      0.1155
     60  CG         6.3770   10.9400    6.6530 C.2   332  ASN332      0.2627
     61  OD1        6.4020   10.2600    7.6770 O.2   332  ASN332     -0.2716
     62  ND2        5.2600   11.4330    6.1450 N.am  332  ASN332     -0.0877
     63  N         12.0260   12.6670    9.1280 N.3   335  LEU335     -0.1231
     64  CA        11.8280   11.5120   10.0040 C.3   335  LEU335      0.1693
     65  C         12.5750   10.2920    9.4920 C.2   335  LEU335      0.2592
     66  O         13.2060    9.6380   10.2970 O.2   335  LEU335     -0.2718
     67  CB        10.3440   11.1870   10.2300 C.3   335  LEU335      0.0284
     68  CG         9.5350   12.0940   11.1710 C.3   335  LEU335      0.0019
     69  CD1        8.0580   11.7730   11.0280 C.3   335  LEU335      0.0001
     70  CD2        9.9240   11.9620   12.6420 C.3   335  LEU335      0.0001
     71  N         12.5550   10.0370    8.1760 N.am  336  ASP336     -0.1960
     72  CA        13.4150    9.0030    7.5300 C.3   336  ASP336      0.1840
     73  C         14.9020    9.1280    7.8900 C.2   336  ASP336      0.2622
     74  O         15.5450    8.1320    8.1810 O.2   336  ASP336     -0.2715
     75  CB        13.3370    9.0340    5.9910 C.3   336  ASP336      0.1450
     76  CG        12.0510    8.4310    5.4170 C.2   336  ASP336      0.3671
     77  OD1       11.3290    7.6650    6.0890 O.co2 336  ASP336     -0.2456
     78  OD2       11.7480    8.7830    4.2620 O.co2 336  ASP336     -0.2456
     79  N         15.4260   10.3530    7.8780 N.am  337  GLY337     -0.1954
     80  CA        16.7960   10.6030    8.2980 C.3   337  GLY337      0.1869
     81  C         17.6380   11.4130    7.3270 C.2   337  GLY337      0.2309
     82  O         18.8590   11.4930    7.5230 O.2   337  GLY337     -0.2863
     83  N         10.0560   15.1300   16.7690 N.3   370  ALA370     -0.1231
     84  CA         9.2460   13.9000   16.7390 C.3   370  ALA370      0.1694
     85  C         10.0150   12.6060   16.4270 C.2   370  ALA370      0.2592
     86  O          9.3850   11.5270   16.4280 O.2   370  ALA370     -0.2718
     87  CB         8.0920   14.0610   15.7450 C.3   370  ALA370      0.0304
     88  N         11.3270   12.7190   16.1350 N.am  371  ILE371     -0.1966
     89  CA        12.2410   11.5480   16.0330 C.3   371  ILE371      0.1727
     90  C         12.2300   10.7290   17.3340 C.2   371  ILE371      0.2616
     91  O         12.2640   11.3130   18.4030 O.2   371  ILE371     -0.2715
     92  CB        13.6960   11.9930   15.6780 C.3   371  ILE371      0.0290
     93  CG1       13.7700   12.4850   14.2350 C.3   371  ILE371      0.0022
     94  CG2       14.7320   10.8770   15.8190 C.3   371  ILE371      0.0023
     95  CD1       14.9830   13.3440   14.0000 C.3   371  ILE371      0.0001
     96  N         12.0490    9.4110   17.2230 N.am  372  TYR372     -0.1974
     97  CA        12.1710    8.4910   18.3500 C.3   372  TYR372      0.1639
     98  C         13.6570    8.1600   18.5960 C.2   372  TYR372      0.2290
     99  O         14.1570    7.1200   18.1290 O.2   372  TYR372     -0.2864
    100  CB        11.3530    7.2190   18.0590 C.3   372  TYR372      0.0560
    101  CG        11.0780    6.3210   19.2530 C.ar  372  TYR372     -0.0198
    102  CD1       11.0840    6.8130   20.5690 C.ar  372  TYR372     -0.0009
    103  CD2       10.8010    4.9790   19.0590 C.ar  372  TYR372     -0.0009
    104  CE1       10.8360    5.9750   21.6420 C.ar  372  TYR372      0.0417
    105  CE2       10.5890    4.1270   20.1270 C.ar  372  TYR372      0.0417
    106  CZ        10.5800    4.6290   21.4120 C.ar  372  TYR372      0.1957
    107  OH        10.3470    3.7570   22.4480 O.3   372  TYR372     -0.2866
    108  N         14.9320    4.6100   20.3760 N.3   375  GLN375     -0.1231
    109  CA        15.1670    3.4610   19.5090 C.3   375  GLN375      0.1698
    110  C         16.2910    3.7470   18.4900 C.2   375  GLN375      0.2592
    111  O         17.1500    2.9050   18.3050 O.2   375  GLN375     -0.2718
    112  CB        13.8700    3.0090   18.8400 C.3   375  GLN375      0.0381
    113  CG        13.9820    2.1630   17.5850 C.3   375  GLN375      0.0905
    114  CD        12.7360    1.3880   17.2740 C.2   375  GLN375      0.2608
    115  OE1       11.6360    1.7130   17.7390 O.2   375  GLN375     -0.2717
    116  NE2       12.8940    0.3420   16.4960 N.am  375  GLN375     -0.0878
    117  N         16.3130    4.9580   17.9320 N.am  376  LEU376     -0.1980
    118  CA        17.2750    5.3370   16.8550 C.3   376  LEU376      0.1596
    119  C         18.7460    5.2900   17.2880 C.2   376  LEU376      0.2287
    120  O         19.5370    4.6010   16.6320 O.2   376  LEU376     -0.2864
    121  CB        16.9340    6.6890   16.2050 C.3   376  LEU376      0.0297
    122  CG        17.9100    7.1750   15.0880 C.3   376  LEU376      0.0022
    123  CD1       17.8820    6.2790   13.8670 C.3   376  LEU376      0.0001
    124  CD2       17.6000    8.5990   14.6990 C.3   376  LEU376      0.0001
    125  N         19.7630    1.7170   18.0160 N.3   379  GLU379     -0.1245
    126  CA        20.0070    0.9570   16.7840 C.3   379  GLU379      0.1567
    127  C         21.2810    1.3860   16.0680 C.2   379  GLU379      0.2260
    128  O         21.9620    0.5390   15.4860 O.2   379  GLU379     -0.2867
    129  CB        18.7990    0.9710   15.8370 C.3   379  GLU379      0.0388
    130  CG        17.6060    0.1640   16.3530 C.3   379  GLU379      0.1160
    131  CD        16.4740    0.0480   15.3510 C.2   379  GLU379      0.3649
    132  OE1       16.6380    0.5110   14.2030 O.co2 379  GLU379     -0.2457
    133  OE2       15.4610   -0.6210   15.6530 O.co2 379  GLU379     -0.2457
@<TRIPOS>BOND
     1    38    39    1
     2    39    40    1
     3    39    42    1
     4    40    41    2
     5    42    43    1
     6    43    44    1
     7    44    45    1
     8    45    46    1
     9    78    76   ar
    10    76    75    1
    11    76    77   ar
    12    59    60    1
    13    59    56    1
    14    75    72    1
    15    62    60   am
    16    57    58    2
    17    57    56    1
    18    47    48    1
    19    60    61    2
    20    56    55    1
    21    81    82    2
    22    81    80    1
    23    72    73    1
    24    72    71    1
    25    54    52   am
    26    79    73   am
    27    79    80    1
    28    73    74    2
    29    48    51    1
    30    48    49    1
    31    71    65   am
    32    52    51    1
    33    52    53    2
    34    49    50    2
    35    63    64    1
    36    65    64    1
    37    65    66    2
    38    64    67    1
    39    67    68    1
    40    69    68    1
    41    68    70    1
    42    29    28    1
    43    11     9   ar
    44    11    10   ar
    45   123   122    1
    46    95    93    1
    47     9     7   ar
    48   132   131   ar
    49    93    92    1
    50    28    27    1
    51    10     8   ar
    52   124   122    1
    53   122   121    1
    54     7     6   ar
    55   131   133   ar
    56   131   130    1
    57   128   127    2
    58    27    26    1
    59    92    94    1
    60    92    89    1
    61    87    84    1
    62     8     6   ar
    63   129   130    1
    64   129   126    1
    65    89    88    1
    66    89    90    1
    67   127   126    1
    68     6     5    1
    69    88    85   am
    70   121   118    1
    71    36    35    1
    72    85    86    2
    73    85    84    1
    74   116   114   am
    75   120   119    2
    76    26    23    1
    77    84    83    1
    78   126   125    1
    79   118   119    1
    80   118   117    1
    81    96    90   am
    82    96    97    1
    83   114   113    1
    84   114   115    2
    85    90    91    2
    86     5     2    1
    87   113   112    1
    88    35    34    1
    89    35    37    1
    90    23    24    1
    91    23    22    1
    92   117   110   am
    93    34    31    1
    94   100    97    1
    95   100   101    1
    96    99    98    2
    97     4     3    2
    98    19    21   ar
    99    19    17   ar
   100   111   110    2
   101    21    20   ar
   102    25    24    2
   103    97    98    1
   104   110   109    1
   105     3     2    1
   106     2     1    1
   107    22    14   am
   108   112   109    1
   109   103   101   ar
   110   103   105   ar
   111   101   102   ar
   112   109   108    1
   113    33    32    2
   114    31    32    1
   115    31    30    1
   116    17    16    1
   117    17    18   ar
   118    20    18   ar
   119    14    15    2
   120    14    13    1
   121   105   106   ar
   122    16    13    1
   123   102   104   ar
   124    13    12    1
   125   106   104   ar
   126   106   107    1
