@<TRIPOS>MOLECULE
tmp/5x1wA01.pdb
 141 134 0 0 0
SMALL
GASTEIGER

@<TRIPOS>ATOM
      1  N         14.5020   -1.8420   13.6730 N.3    13  PHE13      -0.1227
      2  CA        13.6610   -0.9920   12.7930 C.3    13  PHE13       0.1736
      3  C         14.4360   -0.3360   11.6430 C.2    13  PHE13       0.2595
      4  O         13.8880   -0.1800   10.5440 O.2    13  PHE13      -0.2718
      5  CB        12.9300    0.0880   13.6300 C.3    13  PHE13       0.0547
      6  CG        11.8710    0.8870   12.8710 C.ar   13  PHE13      -0.0202
      7  CD1       12.1790    2.1030   12.2440 C.ar   13  PHE13      -0.0042
      8  CD2       10.5500    0.4560   12.8360 C.ar   13  PHE13      -0.0042
      9  CE1       11.2200    2.8340   11.5670 C.ar   13  PHE13      -0.0003
     10  CE2        9.5810    1.1920   12.1620 C.ar   13  PHE13      -0.0003
     11  CZ         9.9150    2.3790   11.5280 C.ar   13  PHE13      -0.0000
     12  N         15.6650    0.0950   11.9320 N.am   14  LEU14      -0.1980
     13  CA        16.5440    0.7170   10.9510 C.3    14  LEU14       0.1596
     14  C         16.9580   -0.2710    9.8720 C.2    14  LEU14       0.2287
     15  O         16.9320    0.0820    8.7020 O.2    14  LEU14      -0.2864
     16  CB        17.7750    1.3160   11.6330 C.3    14  LEU14       0.0297
     17  CG        18.7220    2.1610   10.7790 C.3    14  LEU14       0.0022
     18  CD1       18.0960    3.4940   10.3970 C.3    14  LEU14       0.0001
     19  CD2       20.0250    2.3630   11.5250 C.3    14  LEU14       0.0001
     20  N         15.1420   -2.9340    9.0530 N.3    16  HIS16      -0.1226
     21  CA        13.8910   -3.1550    8.2950 C.3    16  HIS16       0.1752
     22  C         13.7520   -2.1720    7.1330 C.2    16  HIS16       0.2595
     23  O         13.3720   -2.5730    6.0180 O.2    16  HIS16      -0.2718
     24  CB        12.6430   -3.0810    9.2000 C.3    16  HIS16       0.0759
     25  CG        11.3480   -3.2050    8.4500 C.ar   16  HIS16       0.0818
     26  ND1       10.8300   -4.4260    8.0630 N.ar   16  HIS16      -0.2268
     27  CD2       10.4850   -2.2650    7.9870 C.ar   16  HIS16       0.1154
     28  CE1        9.7100   -4.2350    7.3900 C.ar   16  HIS16       0.1986
     29  NE2        9.4740   -2.9320    7.3380 N.ar   16  HIS16      -0.2212
     30  N         14.0550   -0.9040    7.4300 N.am   17  MET17      -0.1979
     31  CA        14.0960    0.1700    6.4410 C.3    17  MET17       0.1605
     32  C         15.1880   -0.0500    5.4060 C.2    17  MET17       0.2287
     33  O         14.9080    0.0920    4.2220 O.2    17  MET17      -0.2864
     34  CB        14.2430    1.5430    7.1070 C.3    17  MET17       0.0413
     35  CG        12.9030    2.1900    7.4150 C.3    17  MET17       0.0598
     36  SD        12.9720    3.7900    8.2430 S.3    17  MET17      -0.1393
     37  CE        13.9320    4.7840    7.1030 C.3    17  MET17       0.0692
     38  N         14.4130   -2.7650    2.6530 N.3    20  LEU20      -0.1245
     39  CA        13.2660   -2.5110    1.7640 C.3    20  LEU20       0.1561
     40  C         13.7120   -2.5140    0.3050 C.2    20  LEU20       0.2260
     41  O         14.4370   -1.6230   -0.1410 O.2    20  LEU20      -0.2867
     42  CB        12.5360   -1.2010    2.1070 C.3    20  LEU20       0.0270
     43  CG        11.6730   -1.1110    3.3790 C.3    20  LEU20       0.0019
     44  CD1       11.0920    0.2890    3.5220 C.3    20  LEU20       0.0001
     45  CD2       10.5570   -2.1540    3.4230 C.3    20  LEU20       0.0001
     46  N         -0.6270   11.1140   13.4320 N.3   298  LYS298     -0.1245
     47  CA         0.0290    9.9450   14.0110 C.3   298  LYS298      0.1561
     48  C         -0.3760    9.6810   15.4630 C.2   298  LYS298      0.2260
     49  O         -0.2310    8.5490   15.9390 O.2   298  LYS298     -0.2867
     50  CB         1.5500   10.0700   13.8890 C.3   298  LYS298      0.0271
     51  CG         2.0650    9.9700   12.4610 C.3   298  LYS298      0.0035
     52  CD         3.4620   10.5530   12.3220 C.3   298  LYS298      0.0206
     53  CE         3.8990   10.6100   10.8670 C.3   298  LYS298      0.1093
     54  NZ         4.4800    9.3260   10.3830 N.3   298  LYS298     -0.1314
     55  N         -5.3660    2.6460   16.6800 N.3   305  ASN305     -0.1240
     56  CA        -4.7060    1.3400   16.5970 C.3   305  ASN305      0.1653
     57  C         -4.6170    0.6720   17.9740 C.2   305  ASN305      0.2266
     58  O         -4.8240   -0.5410   18.0870 O.2   305  ASN305     -0.2867
     59  CB        -3.2960    1.4840   15.9870 C.3   305  ASN305      0.1155
     60  CG        -3.2720    1.3880   14.4620 C.2   305  ASN305      0.2627
     61  OD1       -2.2590    0.9800   13.8880 O.2   305  ASN305     -0.2716
     62  ND2       -4.3610    1.7750   13.7970 N.am  305  ASN305     -0.0877
     63  N          2.9370    6.5130    3.6900 N.3   337  ASN337     -0.1240
     64  CA         3.1630    6.7500    5.1160 C.3   337  ASN337      0.1653
     65  C          1.9090    6.6260    5.9720 C.2   337  ASN337      0.2266
     66  O          2.0030    6.1240    7.0830 O.2   337  ASN337     -0.2867
     67  CB         3.8540    8.0960    5.3610 C.3   337  ASN337      0.1155
     68  CG         5.2980    8.0970    4.9030 C.2   337  ASN337      0.2627
     69  OD1        6.1270    7.3620    5.4300 O.2   337  ASN337     -0.2716
     70  ND2        5.6070    8.9330    3.9240 N.am  337  ASN337     -0.0877
     71  N          1.3950    3.0420    6.3330 N.3   340  LEU340     -0.1231
     72  CA         2.4510    2.6220    7.2640 C.3   340  LEU340      0.1693
     73  C          2.1250    2.9160    8.7250 C.2   340  LEU340      0.2592
     74  O          2.1570    1.9730    9.5220 O.2   340  LEU340     -0.2718
     75  CB         3.8220    3.1830    6.8680 C.3   340  LEU340      0.0284
     76  CG         4.5560    2.3470    5.8070 C.3   340  LEU340      0.0019
     77  CD1        5.5890    3.1800    5.0660 C.3   340  LEU340      0.0001
     78  CD2        5.1880    1.0930    6.4030 C.3   340  LEU340      0.0001
     79  N          1.7150    4.1640    9.0180 N.am  341  ASP341     -0.1960
     80  CA         1.2240    4.6300   10.3530 C.3   341  ASP341      0.1840
     81  C          0.1130    3.7700   10.9860 C.2   341  ASP341      0.2622
     82  O          0.1000    3.5660   12.2000 O.2   341  ASP341     -0.2715
     83  CB         0.6850    6.0760   10.2760 C.3   341  ASP341      0.1450
     84  CG         1.7780    7.1340   10.0840 C.2   341  ASP341      0.3671
     85  OD1        2.9700    6.8800   10.3830 O.co2 341  ASP341     -0.2456
     86  OD2        1.4320    8.2350    9.5970 O.co2 341  ASP341     -0.2456
     87  N         -0.8060    3.2840   10.1490 N.am  342  GLY342     -0.1954
     88  CA        -1.8520    2.3390   10.5450 C.3   342  GLY342      0.1869
     89  C         -3.2730    2.7730   10.2160 C.2   342  GLY342      0.2309
     90  O         -4.2010    2.3890   10.9370 O.2   342  GLY342     -0.2863
     91  N          5.5880   -3.3910    3.3540 N.3   375  ALA375     -0.1231
     92  CA         6.6460   -2.6130    4.0250 C.3   375  ALA375      0.1694
     93  C          6.5040   -2.4240    5.5480 C.2   375  ALA375      0.2592
     94  O          7.3500   -1.7680    6.1590 O.2   375  ALA375     -0.2718
     95  CB         6.7860   -1.2500    3.3540 C.3   375  ALA375      0.0304
     96  N          5.4490   -2.9760    6.1460 N.am  376  ILE376     -0.1966
     97  CA         5.2010   -2.8870    7.5840 C.3   376  ILE376      0.1727
     98  C          6.1730   -3.8110    8.3200 C.2   376  ILE376      0.2616
     99  O          6.3510   -4.9670    7.9310 O.2   376  ILE376     -0.2715
    100  CB         3.7170   -3.2360    7.8960 C.3   376  ILE376      0.0290
    101  CG1        2.8040   -2.1180    7.3880 C.3   376  ILE376      0.0022
    102  CG2        3.4520   -3.4740    9.3850 C.3   376  ILE376      0.0023
    103  CD1        1.3420   -2.4920    7.3720 C.3   376  ILE376      0.0001
    104  N          6.8190   -3.2740    9.3570 N.am  377  TYR377     -0.1974
    105  CA         7.6140   -4.0600   10.2900 C.3   377  TYR377      0.1639
    106  C          6.6700   -4.7340   11.2840 C.2   377  TYR377      0.2290
    107  O          6.4430   -4.2250   12.3870 O.2   377  TYR377     -0.2864
    108  CB         8.6590   -3.1580   10.9690 C.3   377  TYR377      0.0560
    109  CG         9.7670   -3.8610   11.7300 C.ar  377  TYR377     -0.0198
    110  CD1       10.2540   -5.1140   11.3360 C.ar  377  TYR377     -0.0009
    111  CD2       10.3680   -3.2400   12.8240 C.ar  377  TYR377     -0.0009
    112  CE1       11.2680   -5.7390   12.0400 C.ar  377  TYR377      0.0417
    113  CE2       11.3790   -3.8590   13.5400 C.ar  377  TYR377      0.0417
    114  CZ        11.8300   -5.1040   13.1400 C.ar  377  TYR377      0.1957
    115  OH        12.8380   -5.7070   13.8470 O.3   377  TYR377     -0.2866
    116  N          7.8010   -6.0000   15.0670 N.3   380  GLN380     -0.1231
    117  CA         7.7020   -5.0430   16.1550 C.3   380  GLN380      0.1698
    118  C          6.2530   -4.7370   16.4900 C.2   380  GLN380      0.2592
    119  O          5.8990   -4.7560   17.6720 O.2   380  GLN380     -0.2718
    120  CB         8.4450   -3.7530   15.8100 C.3   380  GLN380      0.0381
    121  CG         8.5170   -2.7300   16.9380 C.3   380  GLN380      0.0905
    122  CD         9.4880   -1.5860   16.6840 C.2   380  GLN380      0.2608
    123  OE1       10.2600   -1.5860   15.7190 O.2   380  GLN380     -0.2717
    124  NE2        9.4510   -0.5970   17.5630 N.am  380  GLN380     -0.0878
    125  N          5.4490   -4.4670   15.4510 N.am  381  LEU381     -0.1980
    126  CA         4.0490   -4.0310   15.5700 C.3   381  LEU381      0.1596
    127  C          3.1470   -5.0260   16.2870 C.2   381  LEU381      0.2287
    128  O          2.3860   -4.6210   17.1660 O.2   381  LEU381     -0.2864
    129  CB         3.4570   -3.6850   14.1960 C.3   381  LEU381      0.0297
    130  CG         1.9850   -3.2440   14.0900 C.3   381  LEU381      0.0022
    131  CD1        1.6840   -1.9950   14.9150 C.3   381  LEU381      0.0001
    132  CD2        1.6030   -3.0240   12.6370 C.3   381  LEU381      0.0001
    133  N          4.2500   -5.2170   19.9810 N.3   384  GLU384     -0.1245
    134  CA         3.7730   -4.0480   20.7250 C.3   384  GLU384      0.1567
    135  C          2.2580   -4.0040   20.9340 C.2   384  GLU384      0.2260
    136  O          1.7970   -3.5070   21.9640 O.2   384  GLU384     -0.2867
    137  CB         4.2810   -2.7550   20.0840 C.3   384  GLU384      0.0388
    138  CG         5.7840   -2.5730   20.2610 C.3   384  GLU384      0.1160
    139  CD         6.3190   -1.2620   19.7260 C.2   384  GLU384      0.3649
    140  OE1        5.5140   -0.3580   19.4300 O.co2 384  GLU384     -0.2457
    141  OE2        7.5560   -1.1050   19.6890 O.co2 384  GLU384     -0.2457
@<TRIPOS>BOND
     1    41    40    2
     2    40    39    1
     3    39    42    1
     4    39    38    1
     5    42    43    1
     6    95    92    1
     7    91    92    1
     8    43    45    1
     9    43    44    1
    10    63    64    1
    11    70    68   am
    12    92    93    1
    13    33    32    2
    14    68    67    1
    15    68    69    2
    16    77    76    1
    17    64    67    1
    18    64    65    1
    19    32    31    1
    20    93    96   am
    21    93    94    2
    22    76    78    1
    23    76    75    1
    24    65    66    2
    25    23    22    2
    26    96    97    1
    27    71    72    1
    28    31    34    1
    29    31    30    1
    30    75    72    1
    31    37    36    1
    32    34    35    1
    33    22    30   am
    34    22    21    1
    35    72    73    1
    36    29    28   ar
    37    29    27   ar
    38   103   101    1
    39   101   100    1
    40    28    26   ar
    41    35    36    1
    42    97   100    1
    43    97    98    1
    44   100   102    1
    45    99    98    2
    46    27    25   ar
    47    26    25   ar
    48    21    20    1
    49    21    24    1
    50    98   104   am
    51    25    24    1
    52    15    14    2
    53    73    79   am
    54    73    74    2
    55    79    80    1
    56   104   105    1
    57    86    84   ar
    58    14    13    1
    59    84    83    1
    60    84    85   ar
    61    87    88    1
    62    87    81   am
    63    89    88    1
    64    89    90    2
    65    83    80    1
    66   105   108    1
    67   105   106    1
    68    80    81    1
    69    54    53    1
    70    18    17    1
    71     4     3    2
    72    17    19    1
    73    17    16    1
    74    53    52    1
    75    13    16    1
    76    13    12    1
    77   108   109    1
    78    81    82    2
    79   106   107    2
    80   110   109   ar
    81   110   112   ar
    82    11     9   ar
    83    11    10   ar
    84     9     7   ar
    85     3    12   am
    86     3     2    1
    87   109   111   ar
    88   112   114   ar
    89    10     8   ar
    90     7     6   ar
    91    52    51    1
    92    51    50    1
    93   132   130    1
    94     2     5    1
    95     2     1    1
    96   111   113   ar
    97     8     6   ar
    98     6     5    1
    99   114   113   ar
   100   114   115    1
   101    46    47    1
   102    62    60   am
   103    61    60    2
   104    50    47    1
   105    47    48    1
   106   130   129    1
   107   130   131    1
   108   129   126    1
   109    60    59    1
   110   116   117    1
   111   125   126    1
   112   125   118   am
   113    48    49    2
   114   126   127    1
   115   123   122    2
   116   120   117    1
   117   120   121    1
   118    59    56    1
   119   117   118    1
   120   127   128    2
   121   118   119    2
   122    56    55    1
   123    56    57    1
   124   122   121    1
   125   122   124   am
   126    57    58    2
   127   140   139   ar
   128   141   139   ar
   129   139   138    1
   130   133   134    1
   131   137   138    1
   132   137   134    1
   133   134   135    1
   134   135   136    2
