@<TRIPOS>MOLECULE
tmp/5x20A00.pdb
 222 212 0 0 0
SMALL
GASTEIGER

@<TRIPOS>ATOM
      1  N         23.8380  -17.9480   19.2520 N.3     7  GLY7       -0.1210
      2  CA        25.2710  -18.1460   19.3600 C.3     7  GLY7        0.1956
      3  C         25.6860  -19.0270   18.2020 C.2     7  GLY7        0.2612
      4  O         25.8560  -20.2350   18.3630 O.2     7  GLY7       -0.2717
      5  N         25.8300  -18.4280   17.0230 N.am    8  ALA8       -0.1965
      6  CA        25.9900  -19.2130   15.8150 C.3     8  ALA8        0.1728
      7  C         27.4600  -19.2930   15.4210 C.2     8  ALA8        0.2617
      8  O         27.8310  -19.0170   14.3090 O.2     8  ALA8       -0.2715
      9  CB        25.1420  -18.6350   14.7040 C.3     8  ALA8        0.0334
     10  N         28.2790  -19.7480   16.3560 N.am    9  GLY9       -0.1940
     11  CA        29.6560  -20.0200   16.0640 C.3     9  GLY9        0.2014
     12  C         29.8090  -21.4230   15.5050 C.2     9  GLY9        0.2639
     13  O         28.9550  -21.8970   14.7690 O.2     9  GLY9       -0.2714
     14  N         30.8970  -22.1040   15.8770 N.am   10  ALA10      -0.1963
     15  CA        31.1610  -23.3890   15.2850 C.3    10  ALA10       0.1728
     16  C         30.0110  -24.3400   15.5310 C.2    10  ALA10       0.2616
     17  O         29.4620  -24.9150   14.5550 O.2    10  ALA10      -0.2715
     18  CB        32.4620  -23.9640   15.7900 C.3    10  ALA10       0.0334
     19  N         29.6120  -24.5000   16.8030 N.am   11  MET11      -0.1977
     20  CA        28.5740  -25.5090   17.1570 C.3    11  MET11       0.1605
     21  C         27.1690  -25.0580   16.7700 C.2    11  MET11       0.2287
     22  O         26.3460  -25.8260   16.3190 O.2    11  MET11      -0.2864
     23  CB        28.6540  -25.8510   18.6380 C.3    11  MET11       0.0413
     24  CG        29.9410  -26.5690   19.0020 C.3    11  MET11       0.0598
     25  SD        30.0890  -28.2900   18.4060 S.3    11  MET11      -0.1393
     26  CE        28.6320  -28.9910   19.0960 C.3    11  MET11       0.0692
     27  N         23.6580  -13.8450   16.4760 N.3    30  ASP30      -0.1225
     28  CA        25.0720  -13.8040   16.7760 C.3    30  ASP30       0.1805
     29  C         25.5170  -12.4120   17.0870 C.2    30  ASP30       0.2598
     30  O         24.8530  -11.4450   16.7330 O.2    30  ASP30      -0.2718
     31  CB        25.9070  -14.3510   15.6220 C.3    30  ASP30       0.1424
     32  CG        27.2140  -14.9450   16.1020 C.2    30  ASP30       0.3668
     33  OD1       27.1590  -16.0710   16.6370 O.co2  30  ASP30      -0.2456
     34  OD2       28.2900  -14.2770   15.9920 O.co2  30  ASP30      -0.2456
     35  N         26.6330  -12.3120   17.7850 N.am   31  GLY31      -0.1942
     36  CA        27.1690  -11.0390   18.2000 C.3    31  GLY31       0.2014
     37  C         28.3750  -10.5960   17.4120 C.2    31  GLY31       0.2638
     38  O         28.8910   -9.5390   17.6520 O.2    31  GLY31      -0.2714
     39  N         28.8810  -11.4130   16.4980 N.am   32  TRP32      -0.1973
     40  CA        30.0840  -11.0590   15.7710 C.3    32  TRP32       0.1640
     41  C         29.6880  -10.4210   14.4300 C.2    32  TRP32       0.2290
     42  O         29.2460  -11.1120   13.4940 O.2    32  TRP32      -0.2864
     43  CB        30.9150  -12.3290   15.5410 C.3    32  TRP32       0.0576
     44  CG        32.2400  -12.1530   14.8550 C.ar   32  TRP32       0.0006
     45  CD1       32.9120  -10.9830   14.6490 C.ar   32  TRP32       0.0946
     46  CD2       33.0740  -13.1930   14.3240 C.ar   32  TRP32       0.0152
     47  NE1       34.0810  -11.2110   14.0220 N.ar   32  TRP32      -0.2442
     48  CE2       34.2250  -12.5550   13.7940 C.ar   32  TRP32       0.0810
     49  CE3       32.9740  -14.5890   14.2500 C.ar   32  TRP32       0.0012
     50  CZ2       35.2640  -13.2590   13.2000 C.ar   32  TRP32       0.0191
     51  CZ3       33.9880  -15.2880   13.6370 C.ar   32  TRP32       0.0001
     52  CH2       35.1330  -14.6210   13.1240 C.ar   32  TRP32       0.0015
     53  N         30.8720  -11.6610   11.0570 N.3    35  HIS35      -0.1241
     54  CA        30.3670  -13.0000   10.8030 C.3    35  HIS35       0.1621
     55  C         28.9380  -12.9070   10.2840 C.2    35  HIS35       0.2264
     56  O         28.5690  -13.5780    9.2940 O.2    35  HIS35      -0.2867
     57  CB        30.4460  -13.7730   12.1190 C.3    35  HIS35       0.0745
     58  CG        29.9740  -15.1980   12.0740 C.ar   35  HIS35       0.0817
     59  ND1       30.5610  -16.1420   11.2670 N.ar   35  HIS35      -0.2268
     60  CD2       29.0670  -15.8590   12.8200 C.ar   35  HIS35       0.1154
     61  CE1       29.9790  -17.3140   11.4550 C.ar   35  HIS35       0.1986
     62  NE2       29.0670  -17.1680   12.4010 N.ar   35  HIS35      -0.2212
     63  N         24.1870  -21.5930   22.1550 N.3    77  PHE77      -0.1227
     64  CA        25.4900  -22.1030   21.7600 C.3    77  PHE77       0.1736
     65  C         26.5790  -21.0230   21.7330 C.2    77  PHE77       0.2596
     66  O         27.5560  -21.1480   20.9940 O.2    77  PHE77      -0.2718
     67  CB        25.4110  -22.8360   20.4220 C.3    77  PHE77       0.0547
     68  CG        25.4420  -24.3310   20.5580 C.ar   77  PHE77      -0.0202
     69  CD1       26.3890  -24.9450   21.3610 C.ar   77  PHE77      -0.0042
     70  CD2       24.5210  -25.1210   19.8930 C.ar   77  PHE77      -0.0042
     71  CE1       26.4210  -26.3200   21.4930 C.ar   77  PHE77      -0.0003
     72  CE2       24.5470  -26.4970   20.0210 C.ar   77  PHE77      -0.0003
     73  CZ        25.4990  -27.0970   20.8220 C.ar   77  PHE77      -0.0000
     74  N         26.4220  -19.9720   22.5390 N.am   78  THR78      -0.1939
     75  CA        27.5380  -19.0780   22.8010 C.3    78  THR78       0.2028
     76  C         28.6320  -19.7870   23.6340 C.2    78  THR78       0.2642
     77  O         28.4420  -20.8930   24.1520 O.2    78  THR78      -0.2714
     78  CB        27.1090  -17.8250   23.5750 C.3    78  THR78       0.1808
     79  OG1       26.6710  -18.1960   24.9010 O.3    78  THR78      -0.2208
     80  CG2       26.0280  -17.0760   22.8560 C.3    78  THR78       0.0379
     81  N         29.7560  -19.1210   23.7870 N.am   79  LYS79      -0.1977
     82  CA        30.7320  -19.4890   24.8290 C.3    79  LYS79       0.1596
     83  C         30.1510  -19.0260   26.1300 C.2    79  LYS79       0.2287
     84  O         29.3240  -18.1020   26.1640 O.2    79  LYS79      -0.2864
     85  CB        32.0700  -18.7930   24.6140 C.3    79  LYS79       0.0298
     86  CG        32.8870  -19.3630   23.4650 C.3    79  LYS79       0.0038
     87  CD        33.6890  -20.5370   23.9410 C.3    79  LYS79       0.0206
     88  CE        34.2250  -21.5190   22.9050 C.3    79  LYS79       0.1093
     89  NZ        35.0130  -20.8610   21.8250 N.3    79  LYS79      -0.1314
     90  N         29.7190  -15.3250   27.0940 N.3    82  GLN82      -0.1245
     91  CA        28.8040  -14.5190   26.3180 C.3    82  GLN82       0.1566
     92  C         27.3350  -14.8250   26.6570 C.2    82  GLN82       0.2260
     93  O         26.4550  -14.1630   26.1910 O.2    82  GLN82      -0.2867
     94  CB        29.0230  -14.7530   24.8220 C.3    82  GLN82       0.0367
     95  CG        30.4240  -14.5750   24.3000 C.3    82  GLN82       0.0905
     96  CD        30.6170  -15.3220   22.9850 C.2    82  GLN82       0.2608
     97  OE1       30.2300  -16.4760   22.8650 O.2    82  GLN82      -0.2717
     98  NE2       31.2100  -14.6550   21.9780 N.am   82  GLN82      -0.0878
     99  N         23.9210  -12.4790   25.8930 N.3    86  MET86      -0.1245
    100  CA        23.0890  -12.9860   24.8170 C.3    86  MET86       0.1570
    101  C         21.6370  -13.1100   25.2850 C.2    86  MET86       0.2261
    102  O         20.7190  -12.7160   24.5560 O.2    86  MET86      -0.2867
    103  CB        23.5830  -14.3530   24.2920 C.3    86  MET86       0.0387
    104  CG        22.6230  -15.0730   23.3560 C.3    86  MET86       0.0595
    105  SD        22.4110  -14.2710   21.7600 S.3    86  MET86      -0.1393
    106  CE        23.9820  -14.6440   20.9680 C.3    86  MET86       0.0692
    107  N         23.2170  -26.3540   25.5910 N.3   103  LEU103     -0.1231
    108  CA        24.1510  -27.4220   25.3710 C.3   103  LEU103      0.1693
    109  C         25.6240  -26.9970   25.5070 C.2   103  LEU103      0.2592
    110  O         26.5470  -27.7060   25.0620 O.2   103  LEU103     -0.2718
    111  CB        23.9200  -27.9920   23.9690 C.3   103  LEU103      0.0284
    112  CG        22.5810  -28.6770   23.7550 C.3   103  LEU103      0.0019
    113  CD1       22.4710  -29.1700   22.3260 C.3   103  LEU103      0.0001
    114  CD2       22.3760  -29.7850   24.7840 C.3   103  LEU103      0.0001
    115  N         25.8550  -25.8620   26.1450 N.am  104  LEU104     -0.1966
    116  CA        27.2460  -25.4040   26.3840 C.3   104  LEU104      0.1728
    117  C         28.0420  -26.3820   27.2540 C.2   104  LEU104      0.2616
    118  O         27.4870  -27.0860   28.1040 O.2   104  LEU104     -0.2715
    119  CB        27.2320  -24.0610   27.1040 C.3   104  LEU104      0.0311
    120  CG        27.1340  -22.7860   26.3110 C.3   104  LEU104      0.0022
    121  CD1       25.7570  -22.6420   25.6870 C.3   104  LEU104      0.0001
    122  CD2       27.3910  -21.5920   27.2110 C.3   104  LEU104      0.0001
    123  N         29.3520  -26.3910   27.0490 N.am  105  ASN105     -0.1972
    124  CA        30.2310  -27.0300   27.9940 C.3   105  ASN105      0.1688
    125  C         30.2900  -26.1990   29.2740 C.2   105  ASN105      0.2292
    126  O         29.9290  -25.0030   29.2950 O.2   105  ASN105     -0.2864
    127  CB        31.6350  -27.1950   27.4220 C.3   105  ASN105      0.1181
    128  CG        31.7350  -28.3640   26.4440 C.2   105  ASN105      0.2629
    129  OD1       30.9040  -29.2840   26.4510 O.2   105  ASN105     -0.2716
    130  ND2       32.7780  -28.3360   25.6020 N.am  105  ASN105     -0.0877
    131  N         26.9270  -32.1410   24.6440 N.3   127  THR127     -0.1218
    132  CA        27.0240  -32.7400   23.3660 C.3   127  THR127      0.1862
    133  C         28.4360  -33.2470   23.1340 C.2   127  THR127      0.2287
    134  O         29.3970  -32.7030   23.6580 O.2   127  THR127     -0.2866
    135  CB        26.6150  -31.7390   22.2710 C.3   127  THR127      0.1770
    136  OG1       26.6470  -32.3830   21.0020 O.3   127  THR127     -0.2211
    137  CG2       27.5370  -30.5190   22.2390 C.3   127  THR127      0.0375
    138  N         29.2070  -33.7200   19.7590 N.3   129  TRP129     -0.1227
    139  CA        29.5280  -33.2010   18.4400 C.3   129  TRP129      0.1737
    140  C         30.7310  -32.2470   18.5530 C.2   129  TRP129      0.2596
    141  O         31.0230  -31.7270   19.6470 O.2   129  TRP129     -0.2718
    142  CB        28.3740  -32.4210   17.8810 C.3   129  TRP129      0.0564
    143  CG        27.2990  -33.3210   17.3940 C.ar  129  TRP129      0.0003
    144  CD1       26.0800  -33.5790   17.9970 C.ar  129  TRP129      0.0946
    145  CD2       27.3180  -34.1320   16.1810 C.ar  129  TRP129      0.0152
    146  NE1       25.3540  -34.4690   17.2500 N.ar  129  TRP129     -0.2442
    147  CE2       26.0430  -34.8400   16.1440 C.ar  129  TRP129      0.0810
    148  CE3       28.2270  -34.3290   15.1530 C.ar  129  TRP129      0.0012
    149  CZ2       25.7170  -35.7040   15.1170 C.ar  129  TRP129      0.0191
    150  CZ3       27.8900  -35.2000   14.1260 C.ar  129  TRP129      0.0001
    151  CH2       26.6640  -35.8720   14.1070 C.ar  129  TRP129      0.0015
    152  N         31.4330  -31.9990   17.4430 N.am  130  THR130     -0.1939
    153  CA        32.5290  -31.0640   17.3540 C.3   130  THR130      0.2028
    154  C         32.3680  -30.1440   16.1490 C.2   130  THR130      0.2642
    155  O         31.5630  -30.4190   15.2550 O.2   130  THR130     -0.2714
    156  CB        33.8780  -31.7960   17.1850 C.3   130  THR130      0.1808
    157  OG1       33.8460  -32.5130   15.9730 O.3   130  THR130     -0.2208
    158  CG2       34.1390  -32.7780   18.3100 C.3   130  THR130      0.0379
    159  N         33.0590  -29.0150   16.1660 N.am  131  ALA131     -0.1977
    160  CA        32.9670  -28.1020   15.0650 C.3   131  ALA131      0.1597
    161  C         34.0940  -27.0990   15.1300 C.2   131  ALA131      0.2287
    162  O         34.6260  -26.8440   16.1870 O.2   131  ALA131     -0.2864
    163  CB        31.6210  -27.3750   15.0990 C.3   131  ALA131      0.0319
    164  N         35.2710  -23.0970   13.7120 N.3   133  LEU133     -0.1245
    165  CA        34.9560  -21.8630   13.0410 C.3   133  LEU133      0.1561
    166  C         36.2420  -21.4000   12.4240 C.2   133  LEU133      0.2260
    167  O         37.1650  -21.0480   13.1400 O.2   133  LEU133     -0.2867
    168  CB        34.4580  -20.8550   14.0550 C.3   133  LEU133      0.0270
    169  CG        33.7490  -19.5960   13.5910 C.3   133  LEU133      0.0019
    170  CD1       32.5370  -19.9200   12.7400 C.3   133  LEU133      0.0001
    171  CD2       33.3000  -18.7620   14.7980 C.3   133  LEU133      0.0001
    172  N         31.1230  -35.0580   31.5010 N.3   187  LYS187     -0.1245
    173  CA        31.6880  -34.3830   30.3490 C.3   187  LYS187      0.1561
    174  C         32.5990  -33.2290   30.8230 C.2   187  LYS187      0.2260
    175  O         33.6340  -32.9540   30.2070 O.2   187  LYS187     -0.2867
    176  CB        30.5690  -33.9320   29.4300 C.3   187  LYS187      0.0271
    177  CG        30.9640  -32.9630   28.3410 C.3   187  LYS187      0.0035
    178  CD        31.5670  -33.5130   27.1040 C.3   187  LYS187      0.0206
    179  CE        31.2380  -32.5130   25.9960 C.3   187  LYS187      0.1093
    180  NZ        32.4050  -31.9630   25.3260 N.3   187  LYS187     -0.1314
    181  N         41.1080  -29.8500   27.9390 N.3   195  ASN195     -0.1240
    182  CA        41.1530  -28.4710   27.4790 C.3   195  ASN195      0.1653
    183  C         42.3080  -27.6640   28.0950 C.2   195  ASN195      0.2266
    184  O         43.1410  -27.0990   27.3630 O.2   195  ASN195     -0.2867
    185  CB        39.8390  -27.7350   27.7310 C.3   195  ASN195      0.1155
    186  CG        38.6720  -28.2620   26.9140 C.2   195  ASN195      0.2627
    187  OD1       38.5590  -29.4560   26.6290 O.2   195  ASN195     -0.2716
    188  ND2       37.7290  -27.4110   26.6630 N.am  195  ASN195     -0.0877
    189  N         38.7990  -27.3360   22.1050 N.3   260  SER260     -0.1217
    190  CA        38.2830  -26.0190   21.8620 C.3   260  SER260      0.1889
    191  C         39.0390  -24.9070   22.6020 C.2   260  SER260      0.2288
    192  O         39.2230  -23.8010   22.0740 O.2   260  SER260     -0.2866
    193  CB        36.7830  -25.9780   22.1950 C.3   260  SER260      0.2089
    194  OG        36.5190  -25.9990   23.5850 O.3   260  SER260     -0.2183
    195  N         43.5490  -18.6320   18.4900 N.3   268  ASN268     -0.1240
    196  CA        42.7770  -17.4190   18.1810 C.3   268  ASN268      0.1653
    197  C         42.9200  -16.2770   19.1410 C.2   268  ASN268      0.2266
    198  O         42.2950  -15.2320   18.9450 O.2   268  ASN268     -0.2867
    199  CB        41.3290  -17.7880   18.0500 C.3   268  ASN268      0.1155
    200  CG        41.1130  -18.7290   16.8930 C.2   268  ASN268      0.2627
    201  OD1       41.7390  -18.5720   15.8560 O.2   268  ASN268     -0.2716
    202  ND2       40.2290  -19.6590   17.0350 N.am  268  ASN268     -0.0877
    203  N         41.6960  -15.8230   22.0650 N.3   270  ARG270     -0.1245
    204  CA        40.4220  -15.4800   22.7080 C.3   270  ARG270      0.1563
    205  C         40.4010  -16.0070   24.1660 C.2   270  ARG270      0.2260
    206  O         41.0620  -16.9980   24.4790 O.2   270  ARG270     -0.2867
    207  CB        39.2600  -16.0600   21.9280 C.3   270  ARG270      0.0307
    208  CG        39.0630  -15.3890   20.5880 C.3   270  ARG270      0.0489
    209  CD        38.0850  -16.1750   19.7390 C.3   270  ARG270      0.2205
    210  NE        36.7240  -16.0940   20.2590 N.pl3 270  ARG270     -0.0865
    211  CZ        35.8320  -17.0760   20.1730 C.cat 270  ARG270      0.5346
    212  NH1       36.1580  -18.2220   19.5900 N.pl3 270  ARG270      0.1354
    213  NH2       34.6150  -16.9110   20.6740 N.pl3 270  ARG270      0.1354
    214  N         36.8570  -20.5970   28.5390 N.3   273  GLU273     -0.1245
    215  CA        35.7760  -20.9600   29.4330 C.3   273  GLU273      0.1567
    216  C         36.2380  -21.6030   30.7750 C.2   273  GLU273      0.2260
    217  O         35.4370  -22.2370   31.4860 O.2   273  GLU273     -0.2867
    218  CB        34.9180  -21.9570   28.7000 C.3   273  GLU273      0.0388
    219  CG        34.0910  -21.3390   27.5790 C.3   273  GLU273      0.1160
    220  CD        33.1960  -22.4030   26.9000 C.2   273  GLU273      0.3649
    221  OE1       33.7310  -23.4960   26.5640 O.co2 273  GLU273     -0.2457
    222  OE2       31.9680  -22.1450   26.7780 O.co2 273  GLU273     -0.2457
@<TRIPOS>BOND
     1    56    55    2
     2    55    54    1
     3    54    53    1
     4    54    57    1
     5    59    61   ar
     6    59    58   ar
     7    61    62   ar
     8    58    57    1
     9    58    60   ar
    10    62    60   ar
    11   166   165    1
    12   166   167    2
    13   170   169    1
    14   165   164    1
    15   165   168    1
    16    52    50   ar
    17    52    51   ar
    18    50    48   ar
    19    42    41    2
    20   169   168    1
    21   169   171    1
    22    51    49   ar
    23    48    47   ar
    24    48    46   ar
    25    47    45   ar
    26   151   150   ar
    27   151   149   ar
    28   150   148   ar
    29    49    46   ar
    30     8     7    2
    31    46    44   ar
    32    41    40    1
    33    17    16    2
    34    45    44   ar
    35     9     6    1
    36    13    12    2
    37    44    43    1
    38   160   163    1
    39   160   161    1
    40   160   159    1
    41   149   147   ar
    42   161   162    2
    43   148   145   ar
    44   155   154    2
    45    15    16    1
    46    15    18    1
    47    15    14    1
    48     7     6    1
    49     7    10   am
    50    12    14   am
    51    12    11    1
    52    16    19   am
    53    43    40    1
    54    31    32    1
    55    31    28    1
    56    40    39    1
    57     6     5    1
    58   201   200    2
    59   157   156    1
    60    34    32   ar
    61    11    10    1
    62    32    33   ar
    63   147   145   ar
    64   147   146   ar
    65   154   159   am
    66   154   153    1
    67   145   143   ar
    68    22    21    2
    69    27    28    1
    70    39    37   am
    71    30    29    2
    72    21    20    1
    73    28    29    1
    74    19    20    1
    75   200   202   am
    76   200   199    1
    77     5     3   am
    78    29    35   am
    79    20    23    1
    80   156   153    1
    81   156   158    1
    82   146   144   ar
    83   153   152    1
    84   143   142    1
    85   143   144   ar
    86    37    38    2
    87    37    36    1
    88   152   140   am
    89    35    36    1
    90   142   139    1
    91   199   196    1
    92   196   195    1
    93   196   197    1
    94     3     4    2
    95     3     2    1
    96    25    24    1
    97    25    26    1
    98   139   140    1
    99   139   138    1
   100   140   141    2
   101    23    24    1
   102   198   197    2
   103     1     2    1
   104   212   211    1
   105   209   210    1
   106   209   208    1
   107    70    72   ar
   108    70    68   ar
   109    72    73   ar
   110   211   210    2
   111   211   213    1
   112    67    68    1
   113    67    64    1
   114    68    69   ar
   115   208   207    1
   116    73    71   ar
   117   106   105    1
   118    66    65    2
   119   136   135    1
   120    69    71   ar
   121    65    64    1
   122    65    74   am
   123   105   104    1
   124    64    63    1
   125    89    88    1
   126   190   189    1
   127   190   193    1
   128   190   191    1
   129   207   204    1
   130    98    96   am
   131   203   204    1
   132   192   191    2
   133   193   194    1
   134   137   135    1
   135   135   132    1
   136   113   112    1
   137    74    75    1
   138   204   205    1
   139    75    78    1
   140    75    76    1
   141    80    78    1
   142    97    96    2
   143    88    87    1
   144    96    95    1
   145   133   132    1
   146   133   134    2
   147   104   103    1
   148   132   131    1
   149    86    87    1
   150    86    85    1
   151    78    79    1
   152    76    81   am
   153    76    77    2
   154   112   111    1
   155   112   114    1
   156    81    82    1
   157   111   108    1
   158   205   206    2
   159   103   100    1
   160    95    94    1
   161   102   101    2
   162    85    82    1
   163   100   101    1
   164   100    99    1
   165    94    91    1
   166    82    83    1
   167   110   109    2
   168   180   179    1
   169   108   109    1
   170   108   107    1
   171   109   115   am
   172   130   128   am
   173   121   120    1
   174   179   178    1
   175    83    84    2
   176   115   116    1
   177    93    92    2
   178   120   119    1
   179   120   122    1
   180    91    92    1
   181    91    90    1
   182   116   119    1
   183   116   117    1
   184   128   129    2
   185   128   127    1
   186   221   220   ar
   187   187   186    2
   188   188   186   am
   189   222   220   ar
   190   220   219    1
   191   186   185    1
   192   123   117   am
   193   123   124    1
   194   178   177    1
   195   117   118    2
   196   184   183    2
   197   127   124    1
   198   182   185    1
   199   182   181    1
   200   182   183    1
   201   219   218    1
   202   124   125    1
   203   177   176    1
   204   214   215    1
   205   218   215    1
   206   125   126    2
   207   176   173    1
   208   215   216    1
   209   175   174    2
   210   173   174    1
   211   173   172    1
   212   216   217    2
