@<TRIPOS>MOLECULE
tmp/5x20A01.pdb
 112 106 0 0 0
SMALL
GASTEIGER

@<TRIPOS>ATOM
      1  N         29.3520  -26.3910   27.0490 N.3   105  ASN105     -0.1240
      2  CA        30.2310  -27.0300   27.9940 C.3   105  ASN105      0.1653
      3  C         30.2900  -26.1990   29.2740 C.2   105  ASN105      0.2266
      4  O         29.9290  -25.0030   29.2950 O.2   105  ASN105     -0.2867
      5  CB        31.6350  -27.1950   27.4220 C.3   105  ASN105      0.1155
      6  CG        31.7350  -28.3640   26.4440 C.2   105  ASN105      0.2627
      7  OD1       30.9040  -29.2840   26.4510 O.2   105  ASN105     -0.2716
      8  ND2       32.7780  -28.3360   25.6020 N.am  105  ASN105     -0.0877
      9  N         28.5370  -34.2630   22.2990 N.3   128  MET128     -0.1230
     10  CA        29.8120  -34.8230   21.8550 C.3   128  MET128      0.1702
     11  C         30.0650  -34.5120   20.3910 C.2   128  MET128      0.2592
     12  O         31.0180  -34.9490   19.8520 O.2   128  MET128     -0.2718
     13  CB        29.7920  -36.3320   22.0300 C.3   128  MET128      0.0401
     14  CG        29.5870  -36.8530   23.4520 C.3   128  MET128      0.0596
     15  SD        30.9320  -36.4240   24.5560 S.3   128  MET128     -0.1393
     16  CE        32.0240  -37.8370   24.2550 C.3   128  MET128      0.0692
     17  N         29.2070  -33.7200   19.7590 N.am  129  TRP129     -0.1962
     18  CA        29.5280  -33.2010   18.4400 C.3   129  TRP129      0.1771
     19  C         30.7310  -32.2470   18.5530 C.2   129  TRP129      0.2620
     20  O         31.0230  -31.7270   19.6470 O.2   129  TRP129     -0.2715
     21  CB        28.3740  -32.4210   17.8810 C.3   129  TRP129      0.0590
     22  CG        27.2990  -33.3210   17.3940 C.ar  129  TRP129      0.0006
     23  CD1       26.0800  -33.5790   17.9970 C.ar  129  TRP129      0.0946
     24  CD2       27.3180  -34.1320   16.1810 C.ar  129  TRP129      0.0152
     25  NE1       25.3540  -34.4690   17.2500 N.ar  129  TRP129     -0.2442
     26  CE2       26.0430  -34.8400   16.1440 C.ar  129  TRP129      0.0810
     27  CE3       28.2270  -34.3290   15.1530 C.ar  129  TRP129      0.0012
     28  CZ2       25.7170  -35.7040   15.1170 C.ar  129  TRP129      0.0191
     29  CZ3       27.8900  -35.2000   14.1260 C.ar  129  TRP129      0.0001
     30  CH2       26.6640  -35.8720   14.1070 C.ar  129  TRP129      0.0015
     31  N         31.4330  -31.9990   17.4430 N.am  130  THR130     -0.1951
     32  CA        32.5290  -31.0640   17.3540 C.3   130  THR130      0.1897
     33  C         32.3680  -30.1440   16.1490 C.2   130  THR130      0.2313
     34  O         31.5630  -30.4190   15.2550 O.2   130  THR130     -0.2863
     35  CB        33.8780  -31.7960   17.1850 C.3   130  THR130      0.1794
     36  OG1       33.8460  -32.5130   15.9730 O.3   130  THR130     -0.2208
     37  CG2       34.1390  -32.7780   18.3100 C.3   130  THR130      0.0378
     38  N         31.1230  -35.0580   31.5010 N.3   187  LYS187     -0.1245
     39  CA        31.6880  -34.3830   30.3490 C.3   187  LYS187      0.1561
     40  C         32.5990  -33.2290   30.8230 C.2   187  LYS187      0.2260
     41  O         33.6340  -32.9540   30.2070 O.2   187  LYS187     -0.2867
     42  CB        30.5690  -33.9320   29.4300 C.3   187  LYS187      0.0271
     43  CG        30.9640  -32.9630   28.3410 C.3   187  LYS187      0.0035
     44  CD        31.5670  -33.5130   27.1040 C.3   187  LYS187      0.0206
     45  CE        31.2380  -32.5130   25.9960 C.3   187  LYS187      0.1093
     46  NZ        32.4050  -31.9630   25.3260 N.3   187  LYS187     -0.1314
     47  N         36.1100  -34.3580   31.2850 N.3   190  VAL190     -0.1231
     48  CA        36.8350  -34.3670   30.0200 C.3   190  VAL190      0.1692
     49  C         37.3140  -32.9600   29.6570 C.2   190  VAL190      0.2592
     50  O         38.4560  -32.7720   29.3170 O.2   190  VAL190     -0.2718
     51  CB        35.9630  -34.8710   28.8790 C.3   190  VAL190      0.0266
     52  CG1       36.7250  -34.8700   27.5670 C.3   190  VAL190      0.0020
     53  CG2       35.4720  -36.2900   29.1780 C.3   190  VAL190      0.0020
     54  N         36.4190  -31.9870   29.7440 N.am  191  ASN191     -0.1974
     55  CA        36.7670  -30.6220   29.4370 C.3   191  ASN191      0.1688
     56  C         37.7270  -30.0780   30.4860 C.2   191  ASN191      0.2292
     57  O         38.4830  -29.1490   30.2300 O.2   191  ASN191     -0.2864
     58  CB        35.4850  -29.7730   29.3400 C.3   191  ASN191      0.1181
     59  CG        34.6740  -30.0690   28.0810 C.2   191  ASN191      0.2629
     60  OD1       33.4550  -30.2080   28.1240 O.2   191  ASN191     -0.2716
     61  ND2       35.3520  -30.2420   26.9700 N.am  191  ASN191     -0.0877
     62  N         41.4080  -32.3900   29.3640 N.3   194  MET194     -0.1230
     63  CA        41.9440  -32.1570   28.0360 C.3   194  MET194      0.1702
     64  C         42.1340  -30.6750   27.7050 C.2   194  MET194      0.2592
     65  O         43.2040  -30.2870   27.1920 O.2   194  MET194     -0.2718
     66  CB        41.0620  -32.8150   26.9640 C.3   194  MET194      0.0401
     67  CG        40.7790  -34.3080   27.1640 C.3   194  MET194      0.0596
     68  SD        42.2800  -35.3130   27.0960 S.3   194  MET194     -0.1393
     69  CE        42.5350  -35.8320   28.7900 C.3   194  MET194      0.0692
     70  N         41.1080  -29.8500   27.9390 N.am  195  ASN195     -0.1974
     71  CA        41.1530  -28.4710   27.4790 C.3   195  ASN195      0.1688
     72  C         42.3080  -27.6640   28.0950 C.2   195  ASN195      0.2292
     73  O         43.1410  -27.0990   27.3630 O.2   195  ASN195     -0.2864
     74  CB        39.8390  -27.7350   27.7310 C.3   195  ASN195      0.1181
     75  CG        38.6720  -28.2620   26.9140 C.2   195  ASN195      0.2629
     76  OD1       38.5590  -29.4560   26.6290 O.2   195  ASN195     -0.2716
     77  ND2       37.7290  -27.4110   26.6630 N.am  195  ASN195     -0.0877
     78  N         45.5280  -33.8280   21.9710 N.3   205  MET205     -0.1245
     79  CA        45.1360  -34.8260   22.9600 C.3   205  MET205      0.1570
     80  C         45.9420  -36.1300   22.9040 C.2   205  MET205      0.2261
     81  O         46.3300  -36.6610   23.9480 O.2   205  MET205     -0.2867
     82  CB        43.6330  -35.0900   22.8550 C.3   205  MET205      0.0387
     83  CG        42.8480  -33.9390   23.4020 C.3   205  MET205      0.0595
     84  SD        41.0550  -34.1270   23.3270 S.3   205  MET205     -0.1393
     85  CE        40.7900  -33.4040   21.7150 C.3   205  MET205      0.0692
     86  N         40.1440  -39.9740   24.9200 N.3   248  CYS248     -0.1235
     87  CA        40.5050  -38.8660   24.0350 C.3   248  CYS248      0.1677
     88  C         41.9390  -38.9300   23.5630 C.2   248  CYS248      0.2270
     89  O         42.2900  -38.2560   22.5850 O.2   248  CYS248     -0.2867
     90  CB        40.3030  -37.5150   24.7230 C.3   248  CYS248      0.0956
     91  SG        38.6310  -37.1890   25.2380 S.3   248  CYS248     -0.0801
     92  N         39.4370  -39.0250   18.8580 N.3   254  ILE254     -0.1245
     93  CA        39.5980  -37.6030   18.7120 C.3   254  ILE254      0.1561
     94  C         41.0330  -37.1200   19.0040 C.2   254  ILE254      0.2260
     95  O         41.3240  -35.9060   18.9400 O.2   254  ILE254     -0.2867
     96  CB        38.5270  -36.8980   19.5560 C.3   254  ILE254      0.0252
     97  CG1       38.3820  -35.4580   19.0970 C.3   254  ILE254      0.0019
     98  CG2       38.8470  -37.0320   21.0470 C.3   254  ILE254      0.0019
     99  CD1       37.1480  -34.7470   19.6280 C.3   254  ILE254      0.0001
    100  N         41.6970  -29.4040   21.5700 N.3   259  PRO259     -0.2102
    101  CA        40.4530  -29.0670   22.1460 C.3   259  PRO259      0.1504
    102  C         40.0630  -27.6270   21.8600 C.2   259  PRO259      0.2576
    103  O         40.9220  -26.7660   21.5660 O.2   259  PRO259     -0.2718
    104  CB        40.7260  -29.2390   23.6780 C.3   259  PRO259      0.0282
    105  CG        41.9430  -30.0640   23.7650 C.3   259  PRO259      0.0208
    106  CD        42.7240  -29.7280   22.5700 C.3   259  PRO259      0.0893
    107  N         38.7990  -27.3360   22.1050 N.am  260  SER260     -0.1953
    108  CA        38.2830  -26.0190   21.8620 C.3   260  SER260      0.1924
    109  C         39.0390  -24.9070   22.6020 C.2   260  SER260      0.2314
    110  O         39.2230  -23.8010   22.0740 O.2   260  SER260     -0.2863
    111  CB        36.7830  -25.9780   22.1950 C.3   260  SER260      0.2116
    112  OG        36.5190  -25.9990   23.5850 O.3   260  SER260     -0.2180
@<TRIPOS>BOND
     1    30    29   ar
     2    30    28   ar
     3    29    27   ar
     4    28    26   ar
     5    27    24   ar
     6    34    33    2
     7    36    35    1
     8    26    24   ar
     9    26    25   ar
    10    33    32    1
    11    24    22   ar
    12    35    32    1
    13    35    37    1
    14    25    23   ar
    15    32    31    1
    16    22    21    1
    17    22    23   ar
    18    31    19   am
    19    21    18    1
    20    18    19    1
    21    18    17    1
    22    19    20    2
    23    93    92    1
    24    93    94    1
    25    93    96    1
    26    95    94    2
    27    97    96    1
    28    97    99    1
    29    96    98    1
    30    17    11   am
    31    12    11    2
    32    11    10    1
    33   103   102    2
    34   100   101    1
    35   100   106    1
    36    85    84    1
    37    10    13    1
    38    10     9    1
    39   102   107   am
    40   102   101    1
    41   108   107    1
    42   108   111    1
    43   108   109    1
    44    78    79    1
    45    13    14    1
    46   110   109    2
    47   101   104    1
    48   111   112    1
    49   106   105    1
    50    89    88    2
    51    82    79    1
    52    82    83    1
    53    80    79    1
    54    80    81    2
    55    84    83    1
    56    14    15    1
    57    88    87    1
    58   104   105    1
    59    87    90    1
    60    87    86    1
    61    16    15    1
    62    90    91    1
    63    46    45    1
    64     8     6   am
    65    45    44    1
    66     6     7    2
    67     6     5    1
    68    76    75    2
    69    77    75   am
    70    75    74    1
    71    66    67    1
    72    66    63    1
    73    61    59   am
    74     1     2    1
    75    68    67    1
    76    68    69    1
    77    44    43    1
    78    65    64    2
    79    73    72    2
    80     5     2    1
    81    71    74    1
    82    71    70    1
    83    71    72    1
    84    52    51    1
    85    64    70   am
    86    64    63    1
    87     2     3    1
    88    63    62    1
    89    59    60    2
    90    59    58    1
    91    43    42    1
    92    51    53    1
    93    51    48    1
    94     3     4    2
    95    50    49    2
    96    58    55    1
    97    42    39    1
    98    55    54    1
    99    55    56    1
   100    49    54   am
   101    49    48    1
   102    48    47    1
   103    41    40    2
   104    57    56    2
   105    39    40    1
   106    39    38    1
