@<TRIPOS>MOLECULE
tmp/5x23A01.pdb
 186 173 0 0 0
SMALL
GASTEIGER

@<TRIPOS>ATOM
      1  N         24.3000    5.5820   18.3870 N.3    75  LEU75      -0.1245
      2  CA        24.8250    5.7810   19.7830 C.3    75  LEU75       0.1561
      3  C         23.7830    6.1270   20.8680 C.2    75  LEU75       0.2260
      4  O         23.8540    5.6040   22.0030 O.2    75  LEU75      -0.2867
      5  CB        25.9390    6.8350   19.8110 C.3    75  LEU75       0.0270
      6  CG        26.5890    7.2120   21.1480 C.3    75  LEU75       0.0019
      7  CD1       26.9910    5.9540   21.9550 C.3    75  LEU75       0.0001
      8  CD2       27.8050    8.1620   20.9400 C.3    75  LEU75       0.0001
      9  N         23.6280    3.5100   23.9640 N.3    79  ALA79      -0.1231
     10  CA        23.8720    3.8570   25.3710 C.3    79  ALA79       0.1694
     11  C         22.5980    4.3080   26.1550 C.2    79  ALA79       0.2592
     12  O         22.7020    5.0080   27.1730 O.2    79  ALA79      -0.2718
     13  CB        25.0070    4.8810   25.4760 C.3    79  ALA79       0.0304
     14  N         21.4170    3.8740   25.7000 N.am   80  ASN80      -0.1960
     15  CA        20.1210    4.2450   26.3140 C.3    80  ASN80       0.1819
     16  C         20.0680    5.7430   26.6940 C.2    80  ASN80       0.2621
     17  O         20.0660    6.1210   27.8850 O.2    80  ASN80      -0.2715
     18  CB        19.7900    3.3670   27.5280 C.3    80  ASN80       0.1195
     19  CG        18.2880    3.1670   27.7190 C.2    80  ASN80       0.2630
     20  OD1       17.4520    4.0240   27.3570 O.2    80  ASN80      -0.2716
     21  ND2       17.9290    2.0130   28.2820 N.am   80  ASN80      -0.0877
     22  N         20.1380    6.6340   25.7090 N.am   81  ARG81      -0.1977
     23  CA        20.2210    8.0610   26.0510 C.3    81  ARG81       0.1597
     24  C         19.1160    9.0310   25.6460 C.2    81  ARG81       0.2287
     25  O         19.2520   10.2370   25.8490 O.2    81  ARG81      -0.2864
     26  CB        21.5710    8.6220   25.5840 C.3    81  ARG81       0.0334
     27  CG        22.7290    7.6470   25.7220 C.3    81  ARG81       0.0492
     28  CD        23.9480    8.1260   24.9510 C.3    81  ARG81       0.2205
     29  NE        24.2980    9.5040   25.2830 N.pl3  81  ARG81      -0.0865
     30  CZ        25.3310   10.1590   24.7630 C.cat  81  ARG81       0.5346
     31  NH1       26.1220    9.5610   23.8820 N.pl3  81  ARG81       0.1354
     32  NH2       25.5750   11.4120   25.1230 N.pl3  81  ARG81       0.1354
     33  N         18.7200   15.7300   27.5340 N.3    86  VAL86      -0.1231
     34  CA        19.7250   16.0100   26.4820 C.3    86  VAL86       0.1692
     35  C         19.3510   15.3570   25.1250 C.2    86  VAL86       0.2592
     36  O         19.4310   16.0040   24.0620 O.2    86  VAL86      -0.2718
     37  CB        21.1670   15.6270   26.9300 C.3    86  VAL86       0.0266
     38  CG1       22.1730   15.8960   25.8540 C.3    86  VAL86       0.0020
     39  CG2       21.5630   16.4310   28.2220 C.3    86  VAL86       0.0020
     40  N         18.9540   14.1110   25.1720 N.am   87  PHE87      -0.1976
     41  CA        18.6510   13.4030   23.9640 C.3    87  PHE87       0.1639
     42  C         17.1880   13.0790   23.7160 C.2    87  PHE87       0.2290
     43  O         16.8870   12.1460   23.0350 O.2    87  PHE87      -0.2864
     44  CB        19.5630   12.1760   23.8530 C.3    87  PHE87       0.0560
     45  CG        21.0330   12.5180   23.8400 C.ar   87  PHE87      -0.0200
     46  CD1       21.7960   12.3730   24.9580 C.ar   87  PHE87      -0.0042
     47  CD2       21.6350   13.0100   22.7100 C.ar   87  PHE87      -0.0042
     48  CE1       23.1240   12.6910   24.9550 C.ar   87  PHE87      -0.0003
     49  CE2       22.9680   13.3380   22.7010 C.ar   87  PHE87      -0.0003
     50  CZ        23.7090   13.1840   23.8310 C.ar   87  PHE87      -0.0000
     51  N         32.6050    6.4560   37.7690 N.3   173  LYS173     -0.1231
     52  CA        31.7170    5.9600   36.7630 C.3   173  LYS173      0.1693
     53  C         31.4760    7.0250   35.7200 C.2   173  LYS173      0.2591
     54  O         31.4260    6.7540   34.5590 O.2   173  LYS173     -0.2718
     55  CB        30.4060    5.5350   37.3880 C.3   173  LYS173      0.0285
     56  CG        30.5400    4.6070   38.5640 C.3   173  LYS173      0.0035
     57  CD        31.2380    3.3330   38.1840 C.3   173  LYS173      0.0206
     58  CE        31.2610    2.3460   39.3250 C.3   173  LYS173      0.1093
     59  NZ        30.9800    1.0040   38.7880 N.3   173  LYS173     -0.1314
     60  N         31.3080    8.2590   36.1850 N.am  174  LEU174     -0.1980
     61  CA        31.0680    9.3870   35.2950 C.3   174  LEU174      0.1596
     62  C         32.2830    9.5770   34.4020 C.2   174  LEU174      0.2287
     63  O         32.1720    9.5950   33.1760 O.2   174  LEU174     -0.2864
     64  CB        30.7970   10.6590   36.0990 C.3   174  LEU174      0.0297
     65  CG        29.9200   11.7150   35.4230 C.3   174  LEU174      0.0022
     66  CD1       28.7570   11.0600   34.6930 C.3   174  LEU174      0.0001
     67  CD2       29.4190   12.7280   36.4400 C.3   174  LEU174      0.0001
     68  N         32.6860    6.8130   31.7260 N.3   177  ASN177     -0.1225
     69  CA        31.7850    6.9670   30.6130 C.3   177  ASN177      0.1785
     70  C         32.1440    8.1240   29.7170 C.2   177  ASN177      0.2597
     71  O         32.0790    8.0110   28.5300 O.2   177  ASN177     -0.2718
     72  CB        30.3390    6.9800   31.0550 C.3   177  ASN177      0.1169
     73  CG        29.8620    5.6260   31.5050 C.2   177  ASN177      0.2627
     74  OD1       30.6360    4.7520   31.7950 O.2   177  ASN177     -0.2716
     75  ND2       28.5840    5.4570   31.5540 N.am  177  ASN177     -0.0877
     76  N         32.5550    9.2250   30.3040 N.am  178  ILE178     -0.1980
     77  CA        32.9460   10.3760   29.5290 C.3   178  ILE178      0.1595
     78  C         34.1500   10.0590   28.6620 C.2   178  ILE178      0.2287
     79  O         34.1860   10.4470   27.5430 O.2   178  ILE178     -0.2864
     80  CB        33.1520   11.6370   30.4220 C.3   178  ILE178      0.0276
     81  CG1       31.9040   11.9520   31.2060 C.3   178  ILE178      0.0022
     82  CG2       33.3980   12.9020   29.6380 C.3   178  ILE178      0.0022
     83  CD1       30.6860   12.2100   30.3850 C.3   178  ILE178      0.0001
     84  N         32.9720    7.8400   25.8390 N.3   181  LEU181     -0.1245
     85  CA        32.1730    8.5580   24.8940 C.3   181  LEU181      0.1561
     86  C         32.9950    9.4950   24.0810 C.2   181  LEU181      0.2260
     87  O         32.5780    9.9200   23.0530 O.2   181  LEU181     -0.2867
     88  CB        31.0850    9.3190   25.6010 C.3   181  LEU181      0.0270
     89  CG        30.0120    8.4520   26.1840 C.3   181  LEU181      0.0019
     90  CD1       29.2400    9.2260   27.2080 C.3   181  LEU181      0.0001
     91  CD2       29.1050    7.9390   25.1110 C.3   181  LEU181      0.0001
     92  N         29.2920    0.9660   29.4420 N.3   206  LEU206     -0.1231
     93  CA        28.5470    2.1960   29.5600 C.3   206  LEU206      0.1693
     94  C         27.2550    1.9820   30.3190 C.2   206  LEU206      0.2591
     95  O         27.0120    2.6200   31.2940 O.2   206  LEU206     -0.2718
     96  CB        28.2660    2.7800   28.1930 C.3   206  LEU206      0.0284
     97  CG        29.4520    3.3410   27.4340 C.3   206  LEU206      0.0019
     98  CD1       29.1370    3.5970   25.9850 C.3   206  LEU206      0.0001
     99  CD2       30.0110    4.5790   28.0760 C.3   206  LEU206      0.0001
    100  N         26.4350    1.0640   29.8660 N.am  207  LEU207     -0.1980
    101  CA        25.1750    0.7840   30.5180 C.3   207  LEU207      0.1596
    102  C         25.3190    0.3320   31.9530 C.2   207  LEU207      0.2287
    103  O         24.5000    0.6250   32.7870 O.2   207  LEU207     -0.2864
    104  CB        24.4010   -0.2470   29.7290 C.3   207  LEU207      0.0297
    105  CG        23.9840    0.2660   28.3760 C.3   207  LEU207      0.0022
    106  CD1       23.2060   -0.7650   27.6080 C.3   207  LEU207      0.0001
    107  CD2       23.1740    1.5300   28.5400 C.3   207  LEU207      0.0001
    108  N         27.6490    1.2290   33.9800 N.3   209  ASN209     -0.1225
    109  CA        27.9970    2.3970   34.7360 C.3   209  ASN209      0.1785
    110  C         26.7790    3.2430   34.9920 C.2   209  ASN209      0.2597
    111  O         26.6430    3.8100   36.0360 O.2   209  ASN209     -0.2718
    112  CB        29.0670    3.1900   34.0200 C.3   209  ASN209      0.1169
    113  CG        30.4420    2.6870   34.3200 C.2   209  ASN209      0.2627
    114  OD1       30.6090    1.8250   35.1370 O.2   209  ASN209     -0.2716
    115  ND2       31.4200    3.2240   33.6580 N.am  209  ASN209     -0.0877
    116  N         25.8870    3.3040   34.0270 N.am  210  VAL210     -0.1980
    117  CA        24.6800    4.0440   34.1970 C.3   210  VAL210      0.1595
    118  C         23.8410    3.3130   35.2430 C.2   210  VAL210      0.2287
    119  O         23.4180    3.8950   36.2120 O.2   210  VAL210     -0.2864
    120  CB        23.9390    4.1870   32.8880 C.3   210  VAL210      0.0276
    121  CG1       22.5750    4.7630   33.1300 C.3   210  VAL210      0.0022
    122  CG2       24.6950    5.0900   31.9660 C.3   210  VAL210      0.0022
    123  N         24.7220    4.2710   38.6420 N.3   213  MET213     -0.1245
    124  CA        24.3220    5.6050   39.0090 C.3   213  MET213      0.1570
    125  C         22.7970    5.6590   39.2880 C.2   213  MET213      0.2261
    126  O         22.3630    6.1760   40.3170 O.2   213  MET213     -0.2867
    127  CB        24.7680    6.5680   37.9220 C.3   213  MET213      0.0387
    128  CG        24.1870    7.9550   38.0170 C.3   213  MET213      0.0595
    129  SD        25.3290    9.2420   37.3610 S.3   213  MET213     -0.1393
    130  CE        26.8610    8.3930   37.8400 C.3   213  MET213      0.0692
    131  N         20.5870   11.5140   35.6340 N.3   265  VAL265     -0.1231
    132  CA        21.8330   11.0410   35.0640 C.3   265  VAL265      0.1692
    133  C         22.2840   12.0400   34.0340 C.2   265  VAL265      0.2592
    134  O         23.4250   12.3360   33.9520 O.2   265  VAL265     -0.2718
    135  CB        21.6940    9.6570   34.4480 C.3   265  VAL265      0.0266
    136  CG1       22.9170    9.2940   33.6480 C.3   265  VAL265      0.0020
    137  CG2       21.4860    8.6290   35.5240 C.3   265  VAL265      0.0020
    138  N         21.3550   12.5640   33.2670 N.am  266  ASP266     -0.1974
    139  CA        21.6530   13.5600   32.2790 C.3   266  ASP266      0.1709
    140  C         22.2760   14.7800   32.9160 C.2   266  ASP266      0.2293
    141  O         23.1690   15.3710   32.3660 O.2   266  ASP266     -0.2864
    142  CB        20.3800   14.0040   31.5960 C.3   266  ASP266      0.1436
    143  CG        20.1890   13.3850   30.2600 C.2   266  ASP266      0.3671
    144  OD1       20.9230   12.4810   29.9170 O.co2 266  ASP266     -0.2456
    145  OD2       19.2980   13.8000   29.5450 O.co2 266  ASP266     -0.2456
    146  N         25.7200   13.9560   33.7050 N.3   269  GLY269     -0.1210
    147  CA        26.5260   13.9130   32.5010 C.3   269  GLY269      0.1956
    148  C         26.8060   15.3180   31.9610 C.2   269  GLY269      0.2611
    149  O         27.9710   15.6570   31.6130 O.2   269  GLY269     -0.2717
    150  N         25.7600   16.1550   31.9310 N.am  270  ALA270     -0.1979
    151  CA        25.8590   17.4570   31.2000 C.3   270  ALA270      0.1597
    152  C         26.5520   18.5090   32.0830 C.2   270  ALA270      0.2287
    153  O         27.1790   19.4300   31.5870 O.2   270  ALA270     -0.2864
    154  CB        24.4720   17.9110   30.7860 C.3   270  ALA270      0.0319
    155  N         31.4280   17.5150   33.3240 N.3   273  GLU273     -0.1231
    156  CA        32.6670   17.4440   32.5930 C.3   273  GLU273      0.1699
    157  C         33.0110   18.7440   31.9060 C.2   273  GLU273      0.2592
    158  O         34.2030   19.1590   31.9260 O.2   273  GLU273     -0.2718
    159  CB        32.5960   16.2300   31.6230 C.3   273  GLU273      0.0402
    160  CG        33.4010   16.2270   30.2850 C.3   273  GLU273      0.1161
    161  CD        34.8590   16.5130   30.4010 C.2   273  GLU273      0.3649
    162  OE1       35.3410   17.2600   29.4830 O.co2 273  GLU273     -0.2457
    163  OE2       35.5160   16.0480   31.3880 O.co2 273  GLU273     -0.2457
    164  N         31.9930   19.3880   31.3120 N.am  274  THR274     -0.1953
    165  CA        32.2470   20.5990   30.5570 C.3   274  THR274      0.1897
    166  C         32.7140   21.7780   31.4520 C.2   274  THR274      0.2313
    167  O         33.6290   22.5470   31.1050 O.2   274  THR274     -0.2863
    168  CB        30.9260   21.0260   29.7820 C.3   274  THR274      0.1794
    169  OG1       30.4190   19.9300   29.0440 O.3   274  THR274     -0.2208
    170  CG2       31.3030   22.0360   28.6940 C.3   274  THR274      0.0378
    171  N         32.6430   22.7330   22.7040 N.3   335  LEU335     -0.1245
    172  CA        31.6920   21.9750   21.9180 C.3   335  LEU335      0.1561
    173  C         31.6390   22.6360   20.5600 C.2   335  LEU335      0.2260
    174  O         30.7510   23.3660   20.2540 O.2   335  LEU335     -0.2867
    175  CB        30.3350   21.9370   22.5920 C.3   335  LEU335      0.0270
    176  CG        30.2480   20.9040   23.7050 C.3   335  LEU335      0.0019
    177  CD1       30.7790   21.4090   25.0010 C.3   335  LEU335      0.0001
    178  CD2       28.8660   20.3710   23.9190 C.3   335  LEU335      0.0001
    179  N         25.7360   20.0790   20.0410 N.3   339  LEU339     -0.1245
    180  CA        25.2250   18.7460   19.9880 C.3   339  LEU339      0.1561
    181  C         24.3580   18.7830   18.7370 C.2   339  LEU339      0.2260
    182  O         23.8000   19.7840   18.4010 O.2   339  LEU339     -0.2867
    183  CB        24.4340   18.3550   21.2170 C.3   339  LEU339      0.0270
    184  CG        25.1410   17.9280   22.5010 C.3   339  LEU339      0.0019
    185  CD1       24.1530   17.3530   23.4620 C.3   339  LEU339      0.0001
    186  CD2       26.2810   16.9680   22.3240 C.3   339  LEU339      0.0001
@<TRIPOS>BOND
     1     1     2    1
     2   182   181    2
     3   181   180    1
     4     2     5    1
     5     2     3    1
     6     5     6    1
     7   180   179    1
     8   180   183    1
     9   174   173    2
    10   173   172    1
    11     3     4    2
    12     8     6    1
    13     6     7    1
    14   183   184    1
    15   172   175    1
    16   172   171    1
    17   186   184    1
    18   184   185    1
    19   175   176    1
    20    49    47   ar
    21    49    50   ar
    22    47    45   ar
    23    43    42    2
    24    87    86    2
    25   176   178    1
    26   176   177    1
    27    42    41    1
    28    50    48   ar
    29    45    44    1
    30    45    46   ar
    31    44    41    1
    32    31    30    1
    33    41    40    1
    34     9    10    1
    35    36    35    2
    36    86    85    1
    37    30    32    1
    38    30    29    2
    39    85    88    1
    40    85    84    1
    41    28    29    1
    42    28    27    1
    43    48    46   ar
    44    91    89    1
    45    35    40   am
    46    35    34    1
    47    10    13    1
    48    10    11    1
    49    26    27    1
    50    26    23    1
    51    88    89    1
    52    24    25    2
    53    24    23    1
    54    14    11   am
    55    14    15    1
    56    22    23    1
    57    22    16   am
    58    38    37    1
    59    98    97    1
    60    11    12    2
    61    89    90    1
    62    15    16    1
    63    15    18    1
    64    34    37    1
    65    34    33    1
    66    16    17    2
    67    37    39    1
    68    20    19    2
    69    97    99    1
    70    97    96    1
    71    18    19    1
    72    79    78    2
    73   106   105    1
    74    19    21   am
    75    96    93    1
    76   105   107    1
    77   105   104    1
    78    71    70    2
    79    78    77    1
    80   170   168    1
    81   169   168    1
    82    92    93    1
    83   162   161   ar
    84    77    76    1
    85    77    80    1
    86   145   143   ar
    87    93    94    1
    88    82    80    1
    89    70    76   am
    90    70    69    1
    91   104   101    1
    92   168   165    1
    93   100    94   am
    94   100   101    1
    95   144   143   ar
    96   143   142    1
    97   160   161    1
    98   160   159    1
    99    94    95    2
   100    83    81    1
   101   161   163   ar
   102    80    81    1
   103   101   102    1
   104   165   164    1
   105   165   166    1
   106    69    72    1
   107    69    68    1
   108   154   151    1
   109    72    73    1
   110   167   166    2
   111   151   150    1
   112   151   152    1
   113   164   157   am
   114    73    75   am
   115    73    74    2
   116   153   152    2
   117   142   139    1
   118   149   148    2
   119   159   156    1
   120   157   158    2
   121   157   156    1
   122   150   148   am
   123   102   103    2
   124   148   147    1
   125   122   120    1
   126   139   140    1
   127   139   138    1
   128   141   140    2
   129   147   146    1
   130   156   155    1
   131   120   121    1
   132   120   117    1
   133    63    62    2
   134   138   133   am
   135   136   135    1
   136   115   113   am
   137   134   133    2
   138   108   109    1
   139   112   113    1
   140   112   109    1
   141   116   117    1
   142   116   110   am
   143   133   132    1
   144   117   118    1
   145   113   114    2
   146    62    61    1
   147   135   132    1
   148   135   137    1
   149    54    53    2
   150    66    65    1
   151   109   110    1
   152   110   111    2
   153   132   131    1
   154   118   119    2
   155    61    64    1
   156    61    60    1
   157    65    64    1
   158    65    67    1
   159    53    60   am
   160    53    52    1
   161    52    55    1
   162    52    51    1
   163   129   130    1
   164   129   128    1
   165    55    56    1
   166   127   128    1
   167   127   124    1
   168    57    56    1
   169    57    58    1
   170   123   124    1
   171    59    58    1
   172   124   125    1
   173   125   126    2
