@<TRIPOS>MOLECULE
tmp/5x23A03.pdb
 225 213 0 0 0
SMALL
GASTEIGER

@<TRIPOS>ATOM
      1  N         31.9320   10.5100    3.7880 N.3    15  ILE15      -0.1245
      2  CA        32.7730   10.0360    4.8910 C.3    15  ILE15       0.1561
      3  C         34.3030   10.0900    4.7510 C.2    15  ILE15       0.2260
      4  O         34.9880   10.5420    5.6700 O.2    15  ILE15      -0.2867
      5  CB        32.3840    8.5980    5.2970 C.3    15  ILE15       0.0252
      6  CG1       30.8640    8.4640    5.3940 C.3    15  ILE15       0.0019
      7  CG2       33.0440    8.2190    6.6140 C.3    15  ILE15       0.0019
      8  CD1       30.3990    7.0970    5.8460 C.3    15  ILE15       0.0001
      9  N         36.0340   13.8910    4.9400 N.3    18  ILE18      -0.1245
     10  CA        36.0120   14.7110    6.1480 C.3    18  ILE18       0.1561
     11  C         37.0780   14.3430    7.1850 C.2    18  ILE18       0.2260
     12  O         36.9580   13.3410    7.8900 O.2    18  ILE18      -0.2867
     13  CB        34.6280   14.6690    6.8260 C.3    18  ILE18       0.0252
     14  CG1       34.6210   15.5480    8.0790 C.3    18  ILE18       0.0019
     15  CG2       34.2460   13.2380    7.1720 C.3    18  ILE18       0.0019
     16  CD1       33.2350   15.8730    8.5890 C.3    18  ILE18       0.0001
     17  N         37.0380   17.7800   13.0140 N.3    23  ILE23      -0.1245
     18  CA        35.8550   18.0260   12.2350 C.3    23  ILE23       0.1561
     19  C         35.5100   19.4900   12.0640 C.2    23  ILE23       0.2260
     20  O         35.0710   19.8940   11.0190 O.2    23  ILE23      -0.2867
     21  CB        34.7020   17.1810   12.7650 C.3    23  ILE23       0.0252
     22  CG1       34.9050   15.7580   12.3070 C.3    23  ILE23       0.0019
     23  CG2       33.3660   17.6360   12.2370 C.3    23  ILE23       0.0019
     24  CD1       34.9010   14.7530   13.4160 C.3    23  ILE23       0.0001
     25  N         26.1710   17.2500    3.8280 N.3    40  LEU40      -0.1245
     26  CA        27.1730   16.2120    3.8440 C.3    40  LEU40       0.1561
     27  C         26.3920   14.9530    4.0240 C.2    40  LEU40       0.2260
     28  O         25.3230   15.0000    4.5580 O.2    40  LEU40      -0.2867
     29  CB        28.1290   16.3530    5.0110 C.3    40  LEU40       0.0270
     30  CG        28.9840   17.5910    5.0550 C.3    40  LEU40       0.0019
     31  CD1       29.7570   17.6590    6.3380 C.3    40  LEU40       0.0001
     32  CD2       29.9170   17.5870    3.8850 C.3    40  LEU40       0.0001
     33  N         26.3620   10.9990    5.4150 N.3    42  PHE42      -0.1241
     34  CA        26.9010    9.9780    6.2620 C.3    42  PHE42       0.1605
     35  C         26.0880    8.8230    5.7590 C.2    42  PHE42       0.2264
     36  O         24.9350    8.6930    6.1260 O.2    42  PHE42      -0.2867
     37  CB        26.4700   10.2990    7.6660 C.3    42  PHE42       0.0534
     38  CG        27.2850    9.6550    8.7180 C.ar   42  PHE42      -0.0203
     39  CD1       28.5010   10.1630    9.0640 C.ar   42  PHE42      -0.0042
     40  CD2       26.8030    8.5640    9.4000 C.ar   42  PHE42      -0.0042
     41  CE1       29.2510    9.5880   10.0560 C.ar   42  PHE42      -0.0003
     42  CE2       27.5440    7.9810   10.3990 C.ar   42  PHE42      -0.0003
     43  CZ        28.7740    8.4970   10.7260 C.ar   42  PHE42      -0.0000
     44  N         23.2210   15.5210    6.2360 N.3    47  ILE47      -0.1245
     45  CA        23.4280   16.3450    7.3900 C.3    47  ILE47       0.1561
     46  C         23.7110   17.7310    6.9000 C.2    47  ILE47       0.2260
     47  O         24.6300   17.9260    6.1840 O.2    47  ILE47      -0.2867
     48  CB        24.6310   15.8490    8.1710 C.3    47  ILE47       0.0252
     49  CG1       24.3090   14.5180    8.7940 C.3    47  ILE47       0.0019
     50  CG2       25.0150   16.8180    9.2610 C.3    47  ILE47       0.0019
     51  CD1       25.5050   13.8430    9.3880 C.3    47  ILE47       0.0001
     52  N         21.4150    9.4630   16.5030 N.3    73  PHE73      -0.1241
     53  CA        22.2590    8.5450   15.7910 C.3    73  PHE73       0.1605
     54  C         22.2440    7.2450   16.5540 C.2    73  PHE73       0.2264
     55  O         21.8710    7.2100   17.7160 O.2    73  PHE73      -0.2867
     56  CB        23.6920    9.0600   15.7520 C.3    73  PHE73       0.0534
     57  CG        23.9290   10.1630   14.7750 C.ar   73  PHE73      -0.0203
     58  CD1       24.6160    9.9270   13.6120 C.ar   73  PHE73      -0.0042
     59  CD2       23.4930   11.4410   15.0330 C.ar   73  PHE73      -0.0042
     60  CE1       24.8410   10.9420   12.7080 C.ar   73  PHE73      -0.0003
     61  CE2       23.7150   12.4590   14.1380 C.ar   73  PHE73      -0.0003
     62  CZ        24.3890   12.2130   12.9730 C.ar   73  PHE73      -0.0000
     63  N         24.3000    5.5820   18.3870 N.3    75  LEU75      -0.1245
     64  CA        24.8250    5.7810   19.7830 C.3    75  LEU75       0.1561
     65  C         23.7830    6.1270   20.8680 C.2    75  LEU75       0.2260
     66  O         23.8540    5.6040   22.0030 O.2    75  LEU75      -0.2867
     67  CB        25.9390    6.8350   19.8110 C.3    75  LEU75       0.0270
     68  CG        26.5890    7.2120   21.1480 C.3    75  LEU75       0.0019
     69  CD1       26.9910    5.9540   21.9550 C.3    75  LEU75       0.0001
     70  CD2       27.8050    8.1620   20.9400 C.3    75  LEU75       0.0001
     71  N         20.1380    6.6340   25.7090 N.3    81  ARG81      -0.1245
     72  CA        20.2210    8.0610   26.0510 C.3    81  ARG81       0.1563
     73  C         19.1160    9.0310   25.6460 C.2    81  ARG81       0.2260
     74  O         19.2520   10.2370   25.8490 O.2    81  ARG81      -0.2867
     75  CB        21.5710    8.6220   25.5840 C.3    81  ARG81       0.0307
     76  CG        22.7290    7.6470   25.7220 C.3    81  ARG81       0.0489
     77  CD        23.9480    8.1260   24.9510 C.3    81  ARG81       0.2205
     78  NE        24.2980    9.5040   25.2830 N.pl3  81  ARG81      -0.0865
     79  CZ        25.3310   10.1590   24.7630 C.cat  81  ARG81       0.5346
     80  NH1       26.1220    9.5610   23.8820 N.pl3  81  ARG81       0.1354
     81  NH2       25.5750   11.4120   25.1230 N.pl3  81  ARG81       0.1354
     82  N         18.9540   14.1110   25.1720 N.3    87  PHE87      -0.1241
     83  CA        18.6510   13.4030   23.9640 C.3    87  PHE87       0.1605
     84  C         17.1880   13.0790   23.7160 C.2    87  PHE87       0.2264
     85  O         16.8870   12.1460   23.0350 O.2    87  PHE87      -0.2867
     86  CB        19.5630   12.1760   23.8530 C.3    87  PHE87       0.0534
     87  CG        21.0330   12.5180   23.8400 C.ar   87  PHE87      -0.0203
     88  CD1       21.7960   12.3730   24.9580 C.ar   87  PHE87      -0.0042
     89  CD2       21.6350   13.0100   22.7100 C.ar   87  PHE87      -0.0042
     90  CE1       23.1240   12.6910   24.9550 C.ar   87  PHE87      -0.0003
     91  CE2       22.9680   13.3380   22.7010 C.ar   87  PHE87      -0.0003
     92  CZ        23.7090   13.1840   23.8310 C.ar   87  PHE87      -0.0000
     93  N         32.5550    9.2250   30.3040 N.3   178  ILE178     -0.1245
     94  CA        32.9460   10.3760   29.5290 C.3   178  ILE178      0.1561
     95  C         34.1500   10.0590   28.6620 C.2   178  ILE178      0.2260
     96  O         34.1860   10.4470   27.5430 O.2   178  ILE178     -0.2867
     97  CB        33.1520   11.6370   30.4220 C.3   178  ILE178      0.0252
     98  CG1       31.9040   11.9520   31.2060 C.3   178  ILE178      0.0019
     99  CG2       33.3980   12.9020   29.6380 C.3   178  ILE178      0.0019
    100  CD1       30.6860   12.2100   30.3850 C.3   178  ILE178      0.0001
    101  N         32.9720    7.8400   25.8390 N.3   181  LEU181     -0.1231
    102  CA        32.1730    8.5580   24.8940 C.3   181  LEU181      0.1693
    103  C         32.9950    9.4950   24.0810 C.2   181  LEU181      0.2592
    104  O         32.5780    9.9200   23.0530 O.2   181  LEU181     -0.2718
    105  CB        31.0850    9.3190   25.6010 C.3   181  LEU181      0.0284
    106  CG        30.0120    8.4520   26.1840 C.3   181  LEU181      0.0019
    107  CD1       29.2400    9.2260   27.2080 C.3   181  LEU181      0.0001
    108  CD2       29.1050    7.9390   25.1110 C.3   181  LEU181      0.0001
    109  N         34.1790    9.7960   24.5520 N.am  182  SER182     -0.1952
    110  CA        35.0420   10.6900   23.8480 C.3   182  SER182      0.1924
    111  C         35.9440   10.0310   22.8060 C.2   182  SER182      0.2314
    112  O         36.6450   10.6920   22.0930 O.2   182  SER182     -0.2863
    113  CB        35.8090   11.5400   24.8340 C.3   182  SER182      0.2116
    114  OG        37.0790   11.0380   25.0390 O.3   182  SER182     -0.2180
    115  N         32.2950    7.8410   18.9800 N.3   187  GLN187     -0.1231
    116  CA        31.5660    8.9840   18.4830 C.3   187  GLN187      0.1698
    117  C         31.2920    8.8880   16.9920 C.2   187  GLN187      0.2592
    118  O         30.2100    9.1430   16.5470 O.2   187  GLN187     -0.2718
    119  CB        32.2020   10.3190   18.9190 C.3   187  GLN187      0.0381
    120  CG        33.6190   10.5970   18.4460 C.3   187  GLN187      0.0905
    121  CD        34.2550   11.7950   19.1320 C.2   187  GLN187      0.2608
    122  OE1       33.7860   12.2680   20.1450 O.2   187  GLN187     -0.2717
    123  NE2       35.3260   12.2820   18.5670 N.am  187  GLN187     -0.0878
    124  N         32.2810    8.4930   16.2290 N.am  188  ILE188     -0.1980
    125  CA        32.1480    8.3880   14.7880 C.3   188  ILE188      0.1595
    126  C         31.8520    7.0500   14.1390 C.2   188  ILE188      0.2287
    127  O         30.7500    6.7530   13.7340 O.2   188  ILE188     -0.2864
    128  CB        33.4300    8.9540   14.1290 C.3   188  ILE188      0.0276
    129  CG1       33.3720   10.4710   14.1110 C.3   188  ILE188      0.0022
    130  CG2       33.6360    8.5300   12.6910 C.3   188  ILE188      0.0022
    131  CD1       34.5580   11.1580   14.7400 C.3   188  ILE188      0.0001
    132  N         28.9040    4.8250   14.5530 N.3   191  ASN191     -0.1240
    133  CA        27.6700    5.3280   13.9900 C.3   191  ASN191      0.1653
    134  C         27.4880    5.0640   12.4970 C.2   191  ASN191      0.2266
    135  O         26.4820    5.4160   11.9390 O.2   191  ASN191     -0.2867
    136  CB        27.4140    6.7680   14.3970 C.3   191  ASN191      0.1155
    137  CG        27.0480    6.8880   15.8550 C.2   191  ASN191      0.2627
    138  OD1       25.9030    6.7710   16.2330 O.2   191  ASN191     -0.2716
    139  ND2       28.0330    7.1030   16.6750 N.am  191  ASN191     -0.0877
    140  N         31.4280   17.5150   33.3240 N.3   273  GLU273     -0.1245
    141  CA        32.6670   17.4440   32.5930 C.3   273  GLU273      0.1567
    142  C         33.0110   18.7440   31.9060 C.2   273  GLU273      0.2260
    143  O         34.2030   19.1590   31.9260 O.2   273  GLU273     -0.2867
    144  CB        32.5960   16.2300   31.6230 C.3   273  GLU273      0.0388
    145  CG        33.4010   16.2270   30.2850 C.3   273  GLU273      0.1160
    146  CD        34.8590   16.5130   30.4010 C.2   273  GLU273      0.3649
    147  OE1       35.3410   17.2600   29.4830 O.co2 273  GLU273     -0.2457
    148  OE2       35.5160   16.0480   31.3880 O.co2 273  GLU273     -0.2457
    149  N         34.7900   24.4820   23.6110 N.3   334  LEU334     -0.1231
    150  CA        34.6210   23.1060   24.0450 C.3   334  LEU334      0.1693
    151  C         33.7010   22.1950   23.2710 C.2   334  LEU334      0.2592
    152  O         33.9420   21.0370   23.2240 O.2   334  LEU334     -0.2718
    153  CB        34.2580   23.0290   25.5110 C.3   334  LEU334      0.0284
    154  CG        35.2960   23.2220   26.5940 C.3   334  LEU334      0.0019
    155  CD1       34.7580   22.6470   27.8680 C.3   334  LEU334      0.0001
    156  CD2       36.6340   22.6210   26.2490 C.3   334  LEU334      0.0001
    157  N         32.6430   22.7330   22.7040 N.am  335  LEU335     -0.1966
    158  CA        31.6920   21.9750   21.9180 C.3   335  LEU335      0.1713
    159  C         31.6390   22.6360   20.5600 C.2   335  LEU335      0.2458
    160  O         30.7510   23.3660   20.2540 O.2   335  LEU335     -0.2730
    161  CB        30.3350   21.9370   22.5920 C.3   335  LEU335      0.0310
    162  CG        30.2480   20.9040   23.7050 C.3   335  LEU335      0.0022
    163  CD1       30.7790   21.4090   25.0010 C.3   335  LEU335      0.0001
    164  CD2       28.8660   20.3710   23.9190 C.3   335  LEU335      0.0001
    165  N         32.6490   22.4030   19.7520 N.am  336  PRO336     -0.2716
    166  CA        32.7500   23.0500   18.4570 C.3   336  PRO336      0.1536
    167  C         31.5430   22.8750   17.5940 C.2   336  PRO336      0.2599
    168  O         31.2690   23.7620   16.8710 O.2   336  PRO336     -0.2715
    169  CB        33.9870   22.4350   17.8360 C.3   336  PRO336      0.0310
    170  CG        34.6080   21.6400   18.8910 C.3   336  PRO336      0.0237
    171  CD        33.5560   21.2780   19.8500 C.3   336  PRO336      0.0939
    172  N         30.8380   21.7760   17.6860 N.am  337  THR337     -0.1937
    173  CA        29.6510   21.5990   16.8930 C.3   337  THR337      0.2028
    174  C         28.4310   21.3560   17.7710 C.2   337  THR337      0.2643
    175  O         27.5170   20.6980   17.3960 O.2   337  THR337     -0.2714
    176  CB        29.7970   20.4890   15.8360 C.3   337  THR337      0.1808
    177  OG1       30.1160   19.2690   16.4680 O.3   337  THR337     -0.2208
    178  CG2       30.8570   20.8250   14.8630 C.3   337  THR337      0.0379
    179  N         28.4660   21.9200   18.9610 N.am  338  SER338     -0.1935
    180  CA        27.4020   21.8160   19.9220 C.3   338  SER338      0.2055
    181  C         27.0050   20.3910   20.1760 C.2   338  SER338      0.2643
    182  O         27.8410   19.6050   20.4610 O.2   338  SER338     -0.2714
    183  CB        26.2500   22.6810   19.4550 C.3   338  SER338      0.2130
    184  OG        25.2620   22.8000   20.4180 O.3   338  SER338     -0.2179
    185  N         25.7360   20.0790   20.0410 N.am  339  LEU339     -0.1963
    186  CA        25.2250   18.7460   19.9880 C.3   339  LEU339      0.1713
    187  C         24.3580   18.7830   18.7370 C.2   339  LEU339      0.2458
    188  O         23.8000   19.7840   18.4010 O.2   339  LEU339     -0.2730
    189  CB        24.4340   18.3550   21.2170 C.3   339  LEU339      0.0310
    190  CG        25.1410   17.9280   22.5010 C.3   339  LEU339      0.0022
    191  CD1       24.1530   17.3530   23.4620 C.3   339  LEU339      0.0001
    192  CD2       26.2810   16.9680   22.3240 C.3   339  LEU339      0.0001
    193  N         24.2770   17.5980   18.0390 N.am  340  PRO340     -0.2727
    194  CA        23.4710   17.6380   16.8140 C.3   340  PRO340      0.1402
    195  C         22.0010   18.0070   16.9490 C.2   340  PRO340      0.2269
    196  O         21.3660   17.6010   17.8510 O.2   340  PRO340     -0.2865
    197  CB        23.5240   16.2030   16.3250 C.3   340  PRO340      0.0296
    198  CG        24.7700   15.6850   16.8220 C.3   340  PRO340      0.0237
    199  CD        24.7820   16.1670   18.1920 C.3   340  PRO340      0.0939
    200  N         23.8930   20.2260   11.8990 N.3   361  LEU361     -0.1245
    201  CA        25.1140   20.3880   12.6320 C.3   361  LEU361      0.1561
    202  C         25.4510   21.8460   12.7040 C.2   361  LEU361      0.2260
    203  O         25.6640   22.4600   11.7160 O.2   361  LEU361     -0.2867
    204  CB        26.2010   19.6780   11.8880 C.3   361  LEU361      0.0270
    205  CG        27.3100   19.0260   12.6420 C.3   361  LEU361      0.0019
    206  CD1       26.7320   17.9810   13.5450 C.3   361  LEU361      0.0001
    207  CD2       28.2030   18.3610   11.6360 C.3   361  LEU361      0.0001
    208  N         35.3560   15.2980   17.6020 N.3   449  PHE449     -0.1227
    209  CA        34.4710   16.3660   17.9860 C.3   449  PHE449      0.1736
    210  C         34.8470   16.9210   19.3370 C.2   449  PHE449      0.2596
    211  O         34.2440   17.8410   19.7990 O.2   449  PHE449     -0.2718
    212  CB        33.0730   15.8280   18.1400 C.3   449  PHE449      0.0547
    213  CG        32.4380   15.3630   16.8750 C.ar  449  PHE449     -0.0202
    214  CD1       31.7970   16.2430   16.0570 C.ar  449  PHE449     -0.0042
    215  CD2       32.4240   14.0310   16.5470 C.ar  449  PHE449     -0.0042
    216  CE1       31.1850   15.8130   14.9120 C.ar  449  PHE449     -0.0003
    217  CE2       31.8140   13.5920   15.4050 C.ar  449  PHE449     -0.0003
    218  CZ        31.1910   14.4870   14.5840 C.ar  449  PHE449     -0.0000
    219  N         35.8260   16.3240   19.9820 N.am  450  THR450     -0.1953
    220  CA        36.2390   16.7260   21.3010 C.3   450  THR450      0.1897
    221  C         37.3960   17.6880   21.2720 C.2   450  THR450      0.2313
    222  O         38.2600   17.5930   20.4290 O.2   450  THR450     -0.2863
    223  CB        36.6630   15.5010   22.0980 C.3   450  THR450      0.1794
    224  OG1       35.6650   14.4930   21.9850 O.3   450  THR450     -0.2208
    225  CG2       36.7960   15.8510   23.5150 C.3   450  THR450      0.0378
@<TRIPOS>BOND
     1     1     2    1
     2    25    26    1
     3    26    27    1
     4    26    29    1
     5    32    30    1
     6    27    28    2
     7     3     2    1
     8     3     4    2
     9     2     5    1
    10     9    10    1
    11    29    30    1
    12    30    31    1
    13     5     6    1
    14     5     7    1
    15     6     8    1
    16    33    34    1
    17    35    36    2
    18    35    34    1
    19    10    13    1
    20    10    11    1
    21    47    46    2
    22    44    45    1
    23    34    37    1
    24    13    15    1
    25    13    14    1
    26    46    45    1
    27    11    12    2
    28    45    48    1
    29    37    38    1
    30    14    16    1
    31    48    49    1
    32    48    50    1
    33    38    39   ar
    34    38    40   ar
    35    49    51    1
    36    39    41   ar
    37    40    42   ar
    38    41    43   ar
    39    42    43   ar
    40    20    19    2
    41   207   205    1
    42   203   202    2
    43   204   201    1
    44   204   205    1
    45   200   201    1
    46   135   134    2
    47    19    18    1
    48    18    21    1
    49    18    17    1
    50    23    21    1
    51    22    21    1
    52    22    24    1
    53   134   133    1
    54   201   202    1
    55   205   206    1
    56   130   128    1
    57    60    62   ar
    58    60    58   ar
    59    62    61   ar
    60    58    57   ar
    61   127   126    2
    62   133   136    1
    63   133   132    1
    64   129   128    1
    65   129   131    1
    66   128   125    1
    67    61    59   ar
    68   126   125    1
    69   136   137    1
    70   218   216   ar
    71   218   217   ar
    72    57    59   ar
    73    57    56    1
    74   125   124    1
    75   178   176    1
    76   216   214   ar
    77   217   215   ar
    78    56    53    1
    79    53    52    1
    80    53    54    1
    81   176   177    1
    82   176   173    1
    83   137   138    2
    84   137   139   am
    85   214   213   ar
    86   124   117   am
    87   197   194    1
    88   197   198    1
    89   215   213   ar
    90   118   117    2
    91    54    55    2
    92   194   195    1
    93   194   193    1
    94   198   199    1
    95   168   167    2
    96   213   212    1
    97   173   172    1
    98   173   174    1
    99   195   196    2
   100   117   116    1
   101   175   174    2
   102   167   172   am
   103   167   166    1
   104   208   209    1
   105   174   179   am
   106   169   166    1
   107   169   170    1
   108   209   212    1
   109   209   210    1
   110   193   199    1
   111   193   187   am
   112    63    64    1
   113   188   187    2
   114   120   119    1
   115   120   121    1
   116   166   165    1
   117   116   119    1
   118   116   115    1
   119   123   121   am
   120   187   186    1
   121   170   171    1
   122   179   180    1
   123   121   122    2
   124   210   211    2
   125   210   219   am
   126   183   180    1
   127   183   184    1
   128   165   171    1
   129   165   159   am
   130    64    67    1
   131    64    65    1
   132    67    68    1
   133   180   181    1
   134   219   220    1
   135   186   185    1
   136   186   189    1
   137   185   181   am
   138   181   182    2
   139   160   159    2
   140   222   221    2
   141   159   158    1
   142    65    66    2
   143    70    68    1
   144    68    69    1
   145   189   190    1
   146   221   220    1
   147   220   223    1
   148   158   161    1
   149   158   157    1
   150   224   223    1
   151   112   111    2
   152   223   225    1
   153   192   190    1
   154   190   191    1
   155   161   162    1
   156    91    89   ar
   157    91    92   ar
   158   157   151   am
   159    89    87   ar
   160   111   110    1
   161    85    84    2
   162   104   103    2
   163   152   151    2
   164   151   150    1
   165   149   150    1
   166   162   164    1
   167   162   163    1
   168    84    83    1
   169    92    90   ar
   170    87    86    1
   171    87    88   ar
   172   110   109    1
   173   110   113    1
   174    86    83    1
   175    80    79    1
   176    83    82    1
   177   150   153    1
   178   103   109   am
   179   103   102    1
   180    79    81    1
   181    79    78    2
   182   113   114    1
   183   102   105    1
   184   102   101    1
   185    77    78    1
   186    77    76    1
   187    90    88   ar
   188   108   106    1
   189   153   154    1
   190    75    76    1
   191    75    72    1
   192   105   106    1
   193    73    74    2
   194    73    72    1
   195    71    72    1
   196   106   107    1
   197   156   154    1
   198   154   155    1
   199    96    95    2
   200    95    94    1
   201   147   146   ar
   202    94    93    1
   203    94    97    1
   204    99    97    1
   205   145   146    1
   206   145   144    1
   207   100    98    1
   208   146   148   ar
   209    97    98    1
   210   144   141    1
   211   142   143    2
   212   142   141    1
   213   141   140    1
